REMARK  Name = ZINC64602395
REMARK  9 active torsions:
REMARK  status: ('A' for Active; 'I' for Inactive)
REMARK    1  A    between atoms: C_1  and  C_2
REMARK    2  A    between atoms: C_2  and  C_3
REMARK    3  A    between atoms: C_3  and  O_4
REMARK    4  A    between atoms: O_4  and  C_5
REMARK    5  A    between atoms: C_8  and  C_11
REMARK    6  A    between atoms: C_11  and  N_12
REMARK    7  A    between atoms: C_13  and  C_15
REMARK    8  A    between atoms: N_17  and  C_18
REMARK    9  A    between atoms: N_27  and  C_28
REMARK                            x       y       z     vdW  Elec       q    Type
REMARK                         _______ _______ _______ _____ _____    ______ ____
ROOT
ATOM      1  N   UNL     1       2.378  -4.735   6.613  0.00  0.00    -0.303 N 
ATOM      2  C   UNL     1       2.774  -5.340   7.751  0.00  0.00    +0.300 C 
ATOM      3  O   UNL     1       3.929  -5.686   7.884  0.00  0.00    -0.265 OA
ATOM      4  H   UNL     1       1.455  -4.458   6.507  0.00  0.00    +0.149 HD
ENDROOT
BRANCH   2   5
ATOM      5  C   UNL     1       1.790  -5.585   8.847  0.00  0.00    +0.303 C 
ATOM      6  O   UNL     1       0.634  -5.238   8.714  0.00  0.00    -0.265 OA
ATOM      7  N   UNL     1       2.186  -6.190   9.985  0.00  0.00    -0.278 N 
ATOM      8  H   UNL     1       3.092  -6.527  10.065  0.00  0.00    +0.155 HD
BRANCH   7   9
ATOM      9  C   UNL     1       1.289  -6.332  11.050  0.00  0.00    +0.034 A 
ATOM     10  C   UNL     1      -0.057  -6.565  10.798  0.00  0.00    +0.025 A 
ATOM     11  C   UNL     1      -0.938  -6.703  11.850  0.00  0.00    +0.025 A 
ATOM     12  C   UNL     1      -0.480  -6.610  13.161  0.00  0.00    +0.033 A 
ATOM     13  C   UNL     1       0.863  -6.380  13.415  0.00  0.00    -0.025 A 
ATOM     14  C   UNL     1       1.746  -6.245  12.357  0.00  0.00    +0.028 A 
ATOM     15  C   UNL     1       1.393  -6.285  14.821  0.00  0.00    +0.038 C 
ATOM     16  C   UNL     1       0.263  -5.959  15.798  0.00  0.00    +0.024 C 
ATOM     17  C   UNL     1      -0.886  -6.951  15.575  0.00  0.00    +0.105 C 
ATOM     18  N   UNL     1      -1.396  -6.749  14.212  0.00  0.00    -0.333 N 
ATOM     19  C   UNL     1      -2.837  -6.693  13.957  0.00  0.00    +0.129 C 
ENDBRANCH   7   9
ENDBRANCH   2   5
BRANCH   1  20
ATOM     20  C   UNL     1       3.344  -4.495   5.537  0.00  0.00    +0.140 C 
BRANCH  20  24
ATOM     21  C   UNL     1       1.385  -2.554   2.273  0.00  0.00    +0.121 A 
ATOM     22  C   UNL     1       1.969  -1.800   3.280  0.00  0.00    +0.046 A 
ATOM     23  C   UNL     1       2.602  -2.430   4.335  0.00  0.00    +0.009 A 
ATOM     24  C   UNL     1       2.653  -3.811   4.386  0.00  0.00    -0.030 A 
ATOM     25  C   UNL     1       2.072  -4.564   3.383  0.00  0.00    +0.009 A 
ATOM     26  C   UNL     1       1.433  -3.939   2.330  0.00  0.00    +0.046 A 
BRANCH  21  27
ATOM     27  O   UNL     1       0.762  -1.937   1.235  0.00  0.00    -0.492 OA
BRANCH  27  28
ATOM     28  C   UNL     1       0.752  -0.508   1.241  0.00  0.00    +0.229 C 
BRANCH  28  30
ATOM     29  C   UNL     1       0.000   1.533   0.011  0.00  0.00    +0.007 C 
ATOM     30  C   UNL     1       0.011   0.003   0.004  0.00  0.00    +0.038 C 
ENDBRANCH  28  30
ENDBRANCH  27  28
ENDBRANCH  21  27
ENDBRANCH  20  24
ENDBRANCH   1  20
TORSDOF 7
