REMARK  Name = ZINC39480780
REMARK  8 active torsions:
REMARK  status: ('A' for Active; 'I' for Inactive)
REMARK    1  A    between atoms: C_4  and  C_7
REMARK    2  A    between atoms: C_7  and  C_8
REMARK    3  A    between atoms: C_11  and  N_22
REMARK    4  A    between atoms: C_12  and  N_14
REMARK    5  A    between atoms: N_22  and  S_23
REMARK    6  A    between atoms: S_23  and  S_26
REMARK    7  A    between atoms: S_26  and  O_29
REMARK    8  A    between atoms: O_29  and  C_30
REMARK                            x       y       z     vdW  Elec       q    Type
REMARK                         _______ _______ _______ _____ _____    ______ ____
ROOT
ATOM      1  C   UNL     1       3.578  -1.022   1.606  0.00  0.00    -0.041 A 
ATOM      2  C   UNL     1       4.434  -0.068   2.123  0.00  0.00    +0.006 A 
ATOM      3  C   UNL     1       5.048  -0.272   3.345  0.00  0.00    +0.026 A 
ATOM      4  C   UNL     1       4.805  -1.437   4.056  0.00  0.00    +0.070 A 
ATOM      5  C   UNL     1       3.940  -2.400   3.536  0.00  0.00    +0.053 A 
ATOM      6  C   UNL     1       3.325  -2.184   2.312  0.00  0.00    +0.029 A 
ENDROOT
BRANCH   5   7
ATOM      7  N   UNL     1       3.690  -3.579   4.249  0.00  0.00    -0.325 N 
ATOM      8  C   UNL     1       2.580  -3.658   5.211  0.00  0.00    +0.120 C 
ATOM      9  C   UNL     1       1.745  -4.901   4.889  0.00  0.00    +0.101 C 
ATOM     10  N   UNL     1       2.621  -6.080   4.852  0.00  0.00    -0.298 NA
ATOM     11  C   UNL     1       3.618  -5.970   3.780  0.00  0.00    +0.164 C 
ATOM     12  C   UNL     1       4.527  -4.772   4.052  0.00  0.00    +0.140 C 
ATOM     13 CL   UNL     1       4.607  -7.477   3.720  0.00  0.00    -0.103 Cl
ATOM     14  H   UNL     1       3.066  -6.228   5.746  0.00  0.00    +0.123 HD
ENDBRANCH   5   7
BRANCH   4  15
ATOM     15  N   UNL     1       5.425  -1.647   5.294  0.00  0.00    -0.197 N 
ATOM     16  H   UNL     1       5.702  -2.540   5.553  0.00  0.00    +0.175 HD
BRANCH  15  17
ATOM     17  S   UNL     1       5.688  -0.370   6.315  0.00  0.00    +0.200 S 
ATOM     18  O   UNL     1       6.190  -0.916   7.527  0.00  0.00    -0.129 OA
ATOM     19  O   UNL     1       6.398   0.608   5.568  0.00  0.00    -0.129 OA
BRANCH  17  20
ATOM     20  S   UNL     1       3.857   0.443   6.753  0.00  0.00    +0.268 S 
ATOM     21  O   UNL     1       3.355   0.989   5.541  0.00  0.00    -0.111 OA
ATOM     22  O   UNL     1       3.147  -0.535   7.500  0.00  0.00    -0.111 OA
BRANCH  20  23
ATOM     23  O   UNL     1       4.098   1.616   7.691  0.00  0.00    -0.328 OA
BRANCH  23  24
ATOM     24  C   UNL     1       4.602   2.720   7.079  0.00  0.00    +0.158 A 
ATOM     25  C   UNL     1       5.975   2.886   6.967  0.00  0.00    +0.048 A 
ATOM     26  C   UNL     1       6.485   4.009   6.343  0.00  0.00    +0.004 A 
ATOM     27  C   UNL     1       5.628   4.965   5.831  0.00  0.00    +0.000 A 
ATOM     28  C   UNL     1       4.260   4.802   5.941  0.00  0.00    +0.004 A 
ATOM     29  C   UNL     1       3.745   3.678   6.559  0.00  0.00    +0.048 A 
ENDBRANCH  23  24
ENDBRANCH  20  23
ENDBRANCH  17  20
ENDBRANCH  15  17
ENDBRANCH   4  15
BRANCH   1  30
ATOM     30  C   UNL     1       2.912  -0.793   0.274  0.00  0.00    +0.070 C 
BRANCH  30  34
ATOM     31  C   UNL     1      -0.808   1.221   0.866  0.00  0.00    +0.000 A 
ATOM     32  C   UNL     1       0.350   1.951   0.675  0.00  0.00    +0.000 A 
ATOM     33  C   UNL     1       1.554   1.300   0.484  0.00  0.00    +0.004 A 
ATOM     34  C   UNL     1       1.600  -0.082   0.483  0.00  0.00    -0.043 A 
ATOM     35  C   UNL     1       0.442  -0.812   0.675  0.00  0.00    +0.004 A 
ATOM     36  C   UNL     1      -0.762  -0.160   0.865  0.00  0.00    +0.000 A 
ENDBRANCH  30  34
ENDBRANCH   1  30
TORSDOF 8
