REMARK  Name = ZINC11839237
REMARK  8 active torsions:
REMARK  status: ('A' for Active; 'I' for Inactive)
REMARK    1  A    between atoms: C_1  and  O_2
REMARK    2  A    between atoms: O_2  and  C_3
REMARK    3  A    between atoms: C_7  and  C_9
REMARK    4  A    between atoms: C_9  and  N_10
REMARK    5  A    between atoms: C_14  and  C_17
REMARK    6  A    between atoms: C_14  and  O_28
REMARK    7  A    between atoms: C_17  and  N_62
REMARK    8  A    between atoms: C_18  and  N_62
REMARK                            x       y       z     vdW  Elec       q    Type
REMARK                         _______ _______ _______ _____ _____    ______ ____
ROOT
ATOM      1  N   UNL     1      -1.698   3.016  -1.105  0.00  0.00    -0.295 N 
ATOM      2  C   UNL     1      -2.058   3.716   0.121  0.00  0.00    +0.108 C 
ATOM      3  C   UNL     1      -0.988   3.502   1.193  0.00  0.00    +0.022 C 
ATOM      4  C   UNL     1      -0.709   1.999   1.315  0.00  0.00    +0.044 C 
ATOM      5  C   UNL     1      -0.039   1.525   0.022  0.00  0.00    +0.127 C 
ATOM      6  C   UNL     1      -0.815   2.019  -1.164  0.00  0.00    +0.246 C 
ATOM      7  O   UNL     1      -0.628   1.484  -2.236  0.00  0.00    -0.273 OA
ENDROOT
BRANCH   5   8
ATOM      8  O   UNL     1       1.294   2.037  -0.036  0.00  0.00    -0.381 OA
ATOM      9  H   UNL     1       1.782   1.774  -0.829  0.00  0.00    +0.211 HD
ENDBRANCH   5   8
BRANCH   1  10
ATOM     10  C   UNL     1      -2.349   3.432  -2.350  0.00  0.00    +0.143 C 
BRANCH  10  15
ATOM     11  C   UNL     1       0.213   5.173  -4.514  0.00  0.00    +0.120 A 
ATOM     12  C   UNL     1      -0.032   6.505  -4.212  0.00  0.00    +0.045 A 
ATOM     13  C   UNL     1      -1.024   6.836  -3.310  0.00  0.00    +0.004 A 
ATOM     14  C   UNL     1      -1.776   5.841  -2.712  0.00  0.00    +0.005 A 
ATOM     15  C   UNL     1      -1.531   4.513  -3.007  0.00  0.00    -0.027 A 
ATOM     16  C   UNL     1      -0.540   4.177  -3.909  0.00  0.00    +0.050 A 
BRANCH  11  18
ATOM     17  C   UNL     1       1.923   5.922  -5.986  0.00  0.00    +0.277 C 
ATOM     18  O   UNL     1       1.188   4.844  -5.402  0.00  0.00    -0.495 OA
ENDBRANCH  11  18
ENDBRANCH  10  15
ENDBRANCH   1  10
BRANCH   5  19
ATOM     19  C   UNL     1       0.002  -0.004   0.002  0.00  0.00    -0.037 C 
BRANCH  19  20
ATOM     20  N   UNL     1       0.716  -0.484   1.200  0.00  0.00    +0.383 N 
ATOM     21  H   UNL     1       0.188  -0.218   2.039  0.00  0.00    -0.085 HD
ATOM     22  H   UNL     1       1.649  -0.056   1.233  0.00  0.00    -0.085 HD
BRANCH  20  23
ATOM     23  C   UNL     1       0.856  -1.952   1.159  0.00  0.00    -0.065 C 
ATOM     24  C   UNL     1      -0.407  -2.602   1.728  0.00  0.00    -0.024 C 
ATOM     25  C   UNL     1      -0.257  -4.124   1.693  0.00  0.00    +0.005 C 
ATOM     26  C   UNL     1       0.952  -4.537   2.534  0.00  0.00    -0.010 C 
ATOM     27  C   UNL     1       0.749  -4.078   3.979  0.00  0.00    +0.007 C 
ATOM     28  C   UNL     1       0.600  -2.556   4.014  0.00  0.00    -0.010 C 
ATOM     29  C   UNL     1      -0.610  -2.143   3.173  0.00  0.00    +0.005 C 
ATOM     30  C   UNL     1       1.862  -1.906   3.445  0.00  0.00    +0.005 C 
ATOM     31  C   UNL     1       2.066  -2.365   2.000  0.00  0.00    -0.024 C 
ATOM     32  C   UNL     1       2.215  -3.888   1.965  0.00  0.00    +0.005 C 
ENDBRANCH  20  23
ENDBRANCH  19  20
ENDBRANCH   5  19
TORSDOF 7
