REMARK  Name = ZINC22823310
REMARK  14 active torsions:
REMARK  status: ('A' for Active; 'I' for Inactive)
REMARK    1  A    between atoms: C_1  and  C_2
REMARK    2  A    between atoms: C_2  and  N_3
REMARK    3  A    between atoms: N_3  and  C_4
REMARK    4  A    between atoms: N_3  and  C_6
REMARK    5  A    between atoms: C_4  and  C_5
REMARK    6  A    between atoms: C_9  and  N_12
REMARK    7  A    between atoms: C_16  and  C_36
REMARK    8  A    between atoms: C_17  and  N_21
REMARK    9  A    between atoms: N_21  and  C_22
REMARK   10  A    between atoms: C_22  and  N_24
REMARK   11  A    between atoms: C_25  and  C_27
REMARK   12  A    between atoms: C_30  and  C_33
REMARK   13  A    between atoms: C_33  and  C_34
REMARK   14  A    between atoms: C_33  and  C_35
REMARK                            x       y       z     vdW  Elec       q    Type
REMARK                         _______ _______ _______ _____ _____    ______ ____
ROOT
ATOM      1  N   UNL     1       1.515  -5.794   1.643  0.00  0.00    -0.149 N 
ATOM      2  N   UNL     1       2.585  -6.447   1.350  0.00  0.00    -0.147 NA
ATOM      3  C   UNL     1       2.310  -7.742   1.352  0.00  0.00    +0.114 A 
ATOM      4  C   UNL     1       3.019  -8.934   1.120  0.00  0.00    +0.037 A 
ATOM      5  C   UNL     1       2.376 -10.126   1.215  0.00  0.00    -0.027 A 
ATOM      6  C   UNL     1       1.016 -10.204   1.541  0.00  0.00    +0.038 A 
ATOM      7  C   UNL     1       0.273  -9.084   1.778  0.00  0.00    +0.055 A 
ATOM      8  C   UNL     1       0.881  -7.821   1.695  0.00  0.00    +0.115 A 
ATOM      9  N   UNL     1       0.504  -6.561   1.855  0.00  0.00    -0.147 NA
ATOM     10  C   UNL     1       3.145 -11.397   0.964  0.00  0.00    +0.046 C 
ENDROOT
BRANCH   1  14
ATOM     11  C   UNL     1       1.348  -1.637   1.895  0.00  0.00    +0.014 A 
ATOM     12  C   UNL     1       0.213  -2.389   2.137  0.00  0.00    +0.024 A 
ATOM     13  C   UNL     1       0.265  -3.767   2.054  0.00  0.00    +0.031 A 
ATOM     14  C   UNL     1       1.459  -4.397   1.727  0.00  0.00    +0.086 A 
ATOM     15  C   UNL     1       2.597  -3.639   1.484  0.00  0.00    +0.031 A 
ATOM     16  C   UNL     1       2.537  -2.261   1.563  0.00  0.00    +0.024 A 
BRANCH  11  17
ATOM     17  N   UNL     1       1.292  -0.243   1.980  0.00  0.00    -0.394 NA
ATOM     18  H   UNL     1       2.201   0.143   1.771  0.00  0.00    +0.126 HD
BRANCH  17  20
ATOM     19  C   UNL     1       0.797  -0.013  -0.407  0.00  0.00    +0.022 C 
ATOM     20  C   UNL     1       0.309   0.268   1.016  0.00  0.00    +0.081 C 
ENDBRANCH  17  20
BRANCH  17  21
ATOM     21  C   UNL     1       0.895   0.149   3.339  0.00  0.00    +0.081 C 
ATOM     22  C   UNL     1       1.980  -0.275   4.330  0.00  0.00    +0.022 C 
ENDBRANCH  17  21
ENDBRANCH  11  17
ENDBRANCH   1  14
BRANCH   6  23
ATOM     23  N   UNL     1       0.404 -11.459   1.625  0.00  0.00    -0.296 N 
ATOM     24  H   UNL     1       0.849 -12.185   2.089  0.00  0.00    +0.154 HD
BRANCH  23  25
ATOM     25  C   UNL     1      -0.803 -11.660   1.060  0.00  0.00    +0.141 C 
ATOM     26  S   UNL     1      -1.534 -10.417   0.137  0.00  0.00    -0.018 S 
BRANCH  25  27
ATOM     27  N   UNL     1      -1.435 -12.839   1.222  0.00  0.00    -0.264 N 
ATOM     28  C   UNL     1      -2.642 -13.040   0.657  0.00  0.00    +0.250 C 
ATOM     29  O   UNL     1      -3.161 -12.158   0.002  0.00  0.00    -0.270 OA
ATOM     30  H   UNL     1      -1.021 -13.544   1.745  0.00  0.00    +0.157 HD
BRANCH  28  31
ATOM     31  C   UNL     1      -3.335 -14.333   0.835  0.00  0.00    +0.037 A 
ATOM     32  C   UNL     1      -2.744 -15.347   1.592  0.00  0.00    +0.013 A 
ATOM     33  C   UNL     1      -3.397 -16.552   1.754  0.00  0.00    +0.004 A 
ATOM     34  C   UNL     1      -4.633 -16.757   1.167  0.00  0.00    -0.045 A 
ATOM     35  C   UNL     1      -5.224 -15.756   0.416  0.00  0.00    +0.004 A 
ATOM     36  C   UNL     1      -4.585 -14.545   0.251  0.00  0.00    +0.013 A 
BRANCH  34  37
ATOM     37  C   UNL     1      -5.339 -18.076   1.347  0.00  0.00    +0.013 C 
ATOM     38  C   UNL     1      -6.687 -17.843   2.033  0.00  0.00    +0.012 C 
ATOM     39  C   UNL     1      -5.568 -18.723  -0.020  0.00  0.00    +0.012 C 
ENDBRANCH  34  37
ENDBRANCH  28  31
ENDBRANCH  25  27
ENDBRANCH  23  25
ENDBRANCH   6  23
TORSDOF 9
