REMARK  Name = ZINC63557861
REMARK  8 active torsions:
REMARK  status: ('A' for Active; 'I' for Inactive)
REMARK    1  A    between atoms: C_1  and  C_2
REMARK    2  A    between atoms: C_2  and  N_3
REMARK    3  A    between atoms: N_3  and  C_4
REMARK    4  A    between atoms: C_9  and  C_10
REMARK    5  A    between atoms: C_11  and  C_13
REMARK    6  A    between atoms: N_18  and  C_20
REMARK    7  A    between atoms: C_20  and  C_21
REMARK    8  A    between atoms: C_21  and  C_22
REMARK                            x       y       z     vdW  Elec       q    Type
REMARK                         _______ _______ _______ _____ _____    ______ ____
ROOT
ATOM      1  C   UNL     1      -1.392  -0.529  -2.656  0.00  0.00    +0.101 C 
ATOM      2  C   UNL     1      -1.668   0.985  -2.511  0.00  0.00    +0.110 C 
ATOM      3  C   UNL     1      -2.743   1.266  -3.538  0.00  0.00    +0.216 C 
ATOM      4  O   UNL     1      -3.436   2.261  -3.563  0.00  0.00    -0.276 OA
ATOM      5  N   UNL     1      -2.818   0.253  -4.418  0.00  0.00    -0.300 N 
ATOM      6  C   UNL     1      -1.834  -0.793  -4.112  0.00  0.00    +0.121 C 
ENDROOT
BRANCH   1   8
ATOM      7  N   UNL     1       0.566  -1.061  -1.241  0.00  0.00    -0.271 N 
ATOM      8  C   UNL     1       0.074  -0.830  -2.474  0.00  0.00    +0.225 C 
ATOM      9  O   UNL     1       0.810  -0.865  -3.438  0.00  0.00    -0.275 OA
BRANCH   7  10
ATOM     10  C   UNL     1      -0.299  -1.133  -0.144  0.00  0.00    +0.039 A 
ATOM     11  C   UNL     1      -0.612   0.016   0.571  0.00  0.00    +0.024 A 
ATOM     12  C   UNL     1      -1.467  -0.059   1.653  0.00  0.00    +0.002 A 
ATOM     13  C   UNL     1      -2.010  -1.275   2.026  0.00  0.00    +0.000 A 
ATOM     14  C   UNL     1      -1.700  -2.420   1.316  0.00  0.00    +0.005 A 
ATOM     15  C   UNL     1      -0.851  -2.352   0.228  0.00  0.00    -0.029 A 
ATOM     16  C   UNL     1      -0.518  -3.599  -0.549  0.00  0.00    +0.045 C 
ENDBRANCH   7  10
BRANCH   7  18
ATOM     17  C   UNL     1       2.374  -2.709  -1.256  0.00  0.00    +0.025 C 
ATOM     18  C   UNL     1       2.008  -1.238  -1.050  0.00  0.00    +0.110 C 
ENDBRANCH   7  18
ENDBRANCH   1   8
BRANCH   5  19
ATOM     19  C   UNL     1      -3.760   0.199  -5.538  0.00  0.00    +0.112 C 
BRANCH  19  20
ATOM     20  C   UNL     1      -3.123   0.841  -6.772  0.00  0.00    +0.052 C 
BRANCH  20  21
ATOM     21  C   UNL     1      -4.093   0.786  -7.924  0.00  0.00    -0.040 C 
ATOM     22  C   UNL     1      -4.950   1.757  -8.313  0.00  0.00    +0.000 A 
ATOM     23  C   UNL     1      -5.226   3.104  -7.800  0.00  0.00    +0.030 A 
ATOM     24  C   UNL     1      -6.164   3.862  -8.414  0.00  0.00    +0.042 A 
ATOM     25  C   UNL     1      -6.878   3.392  -9.526  0.00  0.00    +0.022 A 
ATOM     26  C   UNL     1      -6.680   2.166 -10.055  0.00  0.00    +0.027 A 
ATOM     27  C   UNL     1      -5.717   1.286  -9.489  0.00  0.00    +0.043 A 
ATOM     28  N   UNL     1      -5.349   0.070  -9.813  0.00  0.00    -0.380 N 
ATOM     29  C   UNL     1      -4.300  -0.365  -8.884  0.00  0.00    +0.144 C 
ATOM     30 CL   UNL     1      -6.493   5.455  -7.809  0.00  0.00    -0.084 Cl
ATOM     31  H   UNL     1      -5.707  -0.452 -10.548  0.00  0.00    +0.160 HD
ENDBRANCH  20  21
ENDBRANCH  19  20
ENDBRANCH   5  19
TORSDOF 6
