REMARK  Name = ZINC29165238
REMARK  12 active torsions:
REMARK  status: ('A' for Active; 'I' for Inactive)
REMARK    1  A    between atoms: C_1  and  C_2
REMARK    2  A    between atoms: C_2  and  N_3
REMARK    3  A    between atoms: N_3  and  C_4
REMARK    4  A    between atoms: N_3  and  C_6
REMARK    5  A    between atoms: C_4  and  C_5
REMARK    6  A    between atoms: C_6  and  C_8
REMARK    7  A    between atoms: C_6  and  C_27
REMARK    8  A    between atoms: C_8  and  N_9
REMARK    9  A    between atoms: C_10  and  C_12
REMARK   10  A    between atoms: C_13  and  C_26
REMARK   11  A    between atoms: N_15  and  C_18
REMARK   12  A    between atoms: C_18  and  C_19
REMARK                            x       y       z     vdW  Elec       q    Type
REMARK                         _______ _______ _______ _____ _____    ______ ____
ROOT
ATOM      1  N   UNL     1      -2.249   2.391   4.380  0.00  0.00    -0.312 N 
ATOM      2  C   UNL     1      -2.932   3.068   3.435  0.00  0.00    +0.249 C 
ATOM      3  O   UNL     1      -2.802   4.273   3.337  0.00  0.00    -0.270 OA
ATOM      4  H   UNL     1      -2.367   1.301   4.468  0.00  0.00    +0.149 HD
ENDROOT
BRANCH   2   5
ATOM      5  C   UNL     1      -3.836   2.348   2.522  0.00  0.00    +0.096 A 
ATOM      6  C   UNL     1      -3.493   1.785   1.271  0.00  0.00    +0.074 A 
ATOM      7  N   UNL     1      -4.563   1.236   0.768  0.00  0.00    -0.174 NA
ATOM      8  N   UNL     1      -5.628   1.416   1.657  0.00  0.00    -0.248 N 
ATOM      9  C   UNL     1      -5.181   2.100   2.724  0.00  0.00    +0.140 A 
ATOM     10 CL   UNL     1      -6.120   2.581   4.104  0.00  0.00    -0.062 Cl
ATOM     11  C   UNL     1      -2.129   1.816   0.632  0.00  0.00    +0.068 C 
BRANCH   8  12
ATOM     12  C   UNL     1      -7.000   0.945   1.456  0.00  0.00    +0.181 C 
BRANCH  12  13
ATOM     13  C   UNL     1      -7.144  -0.442   2.028  0.00  0.00    -0.008 A 
ATOM     14  C   UNL     1      -7.720  -0.621   3.272  0.00  0.00    +0.007 A 
ATOM     15  C   UNL     1      -7.852  -1.892   3.797  0.00  0.00    +0.000 A 
ATOM     16  C   UNL     1      -7.408  -2.987   3.078  0.00  0.00    +0.001 A 
ATOM     17  C   UNL     1      -6.832  -2.810   1.834  0.00  0.00    +0.020 A 
ATOM     18  C   UNL     1      -6.700  -1.537   1.308  0.00  0.00    +0.046 A 
ATOM     19 CL   UNL     1      -5.976  -1.313  -0.254  0.00  0.00    -0.083 Cl
ENDBRANCH  12  13
ENDBRANCH   8  12
ENDBRANCH   2   5
BRANCH   1  20
ATOM     20  C   UNL     1      -1.350   3.107   5.288  0.00  0.00    +0.094 C 
BRANCH  20  21
ATOM     21  C   UNL     1      -0.704   2.113   6.255  0.00  0.00    -0.020 C 
BRANCH  21  22
ATOM     22  C   UNL     1       0.075   2.865   7.303  0.00  0.00    -0.059 A 
ATOM     23  C   UNL     1      -0.590   3.634   8.240  0.00  0.00    +0.002 A 
ATOM     24  C   UNL     1       0.125   4.320   9.204  0.00  0.00    +0.000 A 
ATOM     25  C   UNL     1       1.505   4.246   9.224  0.00  0.00    +0.000 A 
ATOM     26  C   UNL     1       2.170   3.481   8.284  0.00  0.00    +0.000 A 
ATOM     27  C   UNL     1       1.455   2.791   7.323  0.00  0.00    +0.002 A 
ENDBRANCH  21  22
BRANCH  21  28
ATOM     28  N   UNL     1      -1.750   1.311   6.904  0.00  0.00    +0.385 N 
ATOM     29  H   UNL     1      -2.450   0.974   6.125  0.00  0.00    -0.081 HD
BRANCH  28  31
ATOM     30  C   UNL     1      -0.616  -0.816   6.472  0.00  0.00    -0.017 C 
ATOM     31  C   UNL     1      -1.178   0.119   7.545  0.00  0.00    -0.081 C 
ENDBRANCH  28  31
BRANCH  28  32
ATOM     32  C   UNL     1      -2.506   2.117   7.872  0.00  0.00    -0.081 C 
ATOM     33  C   UNL     1      -3.230   3.248   7.138  0.00  0.00    -0.017 C 
ENDBRANCH  28  32
ENDBRANCH  21  28
ENDBRANCH  20  21
ENDBRANCH   1  20
TORSDOF 9
