REMARK  Name = ZINC41780547
REMARK  5 active torsions:
REMARK  status: ('A' for Active; 'I' for Inactive)
REMARK    1  A    between atoms: C_1  and  C_2
REMARK    2  A    between atoms: C_3  and  N_11
REMARK    3  A    between atoms: C_7  and  N_8
REMARK    4  A    between atoms: C_12  and  C_14
REMARK    5  A    between atoms: C_20  and  C_22
REMARK                            x       y       z     vdW  Elec       q    Type
REMARK                         _______ _______ _______ _____ _____    ______ ____
ROOT
ATOM      1  N   UNL     1      -0.410   0.194  -2.477  0.00  0.00    -0.284 N 
ATOM      2  C   UNL     1      -0.694  -0.487  -3.605  0.00  0.00    +0.238 C 
ATOM      3  O   UNL     1      -0.662  -1.700  -3.606  0.00  0.00    -0.273 OA
ATOM      4  H   UNL     1      -0.384   1.163  -2.489  0.00  0.00    +0.155 HD
ENDROOT
BRANCH   1   7
ATOM      5  C   UNL     1      -1.254   1.372  -0.027  0.00  0.00    +0.048 C 
ATOM      6  C   UNL     1      -0.550   0.040  -0.070  0.00  0.00    +0.001 A 
ATOM      7  C   UNL     1      -0.154  -0.498  -1.288  0.00  0.00    +0.039 A 
ATOM      8  C   UNL     1       0.495  -1.725  -1.323  0.00  0.00    +0.024 A 
ATOM      9  C   UNL     1       0.746  -2.406  -0.147  0.00  0.00    +0.004 A 
ATOM     10  C   UNL     1       0.350  -1.867   1.063  0.00  0.00    +0.033 A 
ATOM     11  C   UNL     1      -0.291  -0.643   1.102  0.00  0.00    +0.131 A 
BRANCH  11  12
ATOM     12  N   UNL     1      -0.707  -0.067   2.401  0.00  0.00    +0.057 N 
ATOM     13  O   UNL     1      -0.802   1.132   2.527  0.00  0.00    -0.126 OA
ATOM     14  O   UNL     1      -0.951  -0.795   3.335  0.00  0.00    -0.126 OA
ENDBRANCH  11  12
ENDBRANCH   1   7
BRANCH   2  15
ATOM     15  C   UNL     1      -1.050   0.258  -4.865  0.00  0.00    +0.163 C 
ATOM     16  C   UNL     1       0.233   0.766  -5.555  0.00  0.00    +0.033 C 
ATOM     17  C   UNL     1       0.503  -0.320  -6.629  0.00  0.00    +0.021 C 
ATOM     18  C   UNL     1      -0.936  -0.704  -7.053  0.00  0.00    +0.109 C 
ATOM     19  N   UNL     1      -1.727  -0.646  -5.806  0.00  0.00    -0.286 N 
ATOM     20  C   UNL     1      -2.875  -1.311  -5.569  0.00  0.00    +0.254 C 
ATOM     21  O   UNL     1      -3.440  -1.187  -4.498  0.00  0.00    -0.269 OA
BRANCH  20  22
ATOM     22  C   UNL     1      -3.443  -2.184  -6.600  0.00  0.00    +0.074 A 
ATOM     23  C   UNL     1      -4.603  -2.944  -6.561  0.00  0.00    +0.021 A 
ATOM     24  C   UNL     1      -4.879  -3.670  -7.695  0.00  0.00    +0.008 A 
ATOM     25  C   UNL     1      -4.026  -3.600  -8.747  0.00  0.00    +0.046 A 
ATOM     26  S   UNL     1      -2.827  -2.541  -8.235  0.00  0.00    -0.092 S 
ENDBRANCH  20  22
ENDBRANCH   2  15
TORSDOF 4
