REMARK  Name = ZINC39541822
REMARK  5 active torsions:
REMARK  status: ('A' for Active; 'I' for Inactive)
REMARK    1  A    between atoms: C_1  and  S_2
REMARK    2  A    between atoms: S_2  and  C_3
REMARK    3  A    between atoms: C_8  and  O_9
REMARK    4  A    between atoms: N_23  and  C_24
REMARK    5  A    between atoms: C_29  and  O_30
REMARK                            x       y       z     vdW  Elec       q    Type
REMARK                         _______ _______ _______ _____ _____    ______ ____
ROOT
ATOM      1  C   UNL     1      -1.702  -0.454   0.016  0.00  0.00    +0.051 A 
ATOM      2  C   UNL     1      -2.671   0.534   0.025  0.00  0.00    +0.047 A 
ATOM      3  C   UNL     1      -4.021   0.178   0.033  0.00  0.00    +0.080 A 
ATOM      4  C   UNL     1      -4.380  -1.191   0.025  0.00  0.00    +0.068 A 
ATOM      5  C   UNL     1      -3.391  -2.176   0.022  0.00  0.00    +0.062 A 
ATOM      6  C   UNL     1      -2.063  -1.808   0.012  0.00  0.00    +0.131 A 
ATOM      7  C   UNL     1      -5.807  -1.533   0.014  0.00  0.00    +0.262 A 
ATOM      8  O   UNL     1      -6.175  -2.694   0.022  0.00  0.00    -0.267 OA
ATOM      9  N   UNL     1      -6.700  -0.519  -0.005  0.00  0.00    -0.291 N 
ATOM     10  C   UNL     1      -6.261   0.789   0.052  0.00  0.00    +0.161 A 
ATOM     11  N   UNL     1      -4.993   1.112   0.051  0.00  0.00    -0.227 NA
ATOM     12  C   UNL     1      -7.295   1.836   0.150  0.00  0.00    +0.094 A 
ATOM     13  C   UNL     1      -8.578   1.507   0.532  0.00  0.00    -0.009 A 
ATOM     14  C   UNL     1      -9.331   2.676   0.540  0.00  0.00    +0.004 A 
ATOM     15  C   UNL     1     -10.676   2.936   0.846  0.00  0.00    +0.010 A 
ATOM     16  C   UNL     1     -11.100   4.236   0.746  0.00  0.00    +0.001 A 
ATOM     17  C   UNL     1     -10.251   5.263   0.363  0.00  0.00    +0.002 A 
ATOM     18  C   UNL     1      -8.920   5.041   0.055  0.00  0.00    +0.027 A 
ATOM     19  C   UNL     1      -8.459   3.730   0.146  0.00  0.00    +0.055 A 
ATOM     20  N   UNL     1      -7.224   3.185  -0.084  0.00  0.00    -0.303 N 
ATOM     21  C   UNL     1      -8.938   0.075   0.849  0.00  0.00    +0.059 C 
ATOM     22  C   UNL     1      -8.132  -0.820  -0.105  0.00  0.00    +0.131 C 
ENDROOT
BRANCH  20  23
ATOM     23  C   UNL     1      -6.081   3.887  -0.490  0.00  0.00    +0.089 A 
ATOM     24  C   UNL     1      -5.812   4.056  -1.841  0.00  0.00    +0.030 A 
ATOM     25  C   UNL     1      -4.684   4.749  -2.238  0.00  0.00    +0.002 A 
ATOM     26  C   UNL     1      -3.822   5.275  -1.293  0.00  0.00    +0.004 A 
ATOM     27  C   UNL     1      -4.084   5.110   0.054  0.00  0.00    +0.047 A 
ATOM     28  C   UNL     1      -5.215   4.421   0.461  0.00  0.00    +0.141 A 
BRANCH  28  29
ATOM     29  O   UNL     1      -5.477   4.264   1.786  0.00  0.00    -0.505 OA
ATOM     30  H   UNL     1      -5.090   3.465   2.171  0.00  0.00    +0.292 HD
ENDBRANCH  28  29
ENDBRANCH  20  23
BRANCH   1  32
ATOM     31  C   UNL     1      -0.022   1.810   0.012  0.00  0.00    +0.090 C 
ATOM     32  S   UNL     1       0.002  -0.004   0.002  0.00  0.00    -0.125 S 
ENDBRANCH   1  32
BRANCH   6  33
ATOM     33  O   UNL     1      -1.096  -2.765   0.004  0.00  0.00    -0.506 OA
ATOM     34  H   UNL     1      -0.813  -3.045   0.885  0.00  0.00    +0.292 HD
ENDBRANCH   6  33
TORSDOF 4
