REMARK  Name = ZINC45665682
REMARK  12 active torsions:
REMARK  status: ('A' for Active; 'I' for Inactive)
REMARK    1  A    between atoms: C_1  and  C_2
REMARK    2  A    between atoms: C_2  and  C_3
REMARK    3  A    between atoms: C_2  and  N_4
REMARK    4  A    between atoms: N_4  and  C_5
REMARK    5  A    between atoms: N_4  and  C_6
REMARK    6  A    between atoms: C_6  and  C_7
REMARK    7  A    between atoms: C_7  and  C_8
REMARK    8  A    between atoms: C_8  and  C_9
REMARK    9  A    between atoms: C_9  and  N_10
REMARK   10  A    between atoms: N_10  and  S_11
REMARK   11  A    between atoms: S_11  and  C_14
REMARK   12  A    between atoms: C_19  and  N_20
REMARK                            x       y       z     vdW  Elec       q    Type
REMARK                         _______ _______ _______ _____ _____    ______ ____
ROOT
ATOM      1  S   UNL     1       3.691  -6.829   4.329  0.00  0.00    +0.060 S 
ATOM      2  O   UNL     1       3.613  -8.229   4.103  0.00  0.00    -0.153 OA
ATOM      3  O   UNL     1       4.847  -6.068   4.007  0.00  0.00    -0.153 OA
ENDROOT
BRANCH   1   4
ATOM      4  C   UNL     1       3.384  -6.577   6.045  0.00  0.00    +0.126 A 
ATOM      5  C   UNL     1       4.240  -5.793   6.793  0.00  0.00    +0.031 A 
ATOM      6  C   UNL     1       4.000  -5.594   8.140  0.00  0.00    +0.017 A 
ATOM      7  C   UNL     1       2.902  -6.181   8.744  0.00  0.00    +0.020 A 
ATOM      8  C   UNL     1       2.041  -6.967   8.002  0.00  0.00    +0.040 A 
ATOM      9  C   UNL     1       2.277  -7.163   6.647  0.00  0.00    +0.052 A 
ATOM     10 BR   UNL     1       2.578  -5.906  10.587  0.00  0.00    -0.050 Br
BRANCH   9  11
ATOM     11  N   UNL     1       1.406  -7.952   5.892  0.00  0.00    -0.356 N 
ATOM     12  H   UNL     1       1.521  -8.018   4.931  0.00  0.00    +0.142 HD
ATOM     13  H   UNL     1       0.686  -8.434   6.329  0.00  0.00    +0.142 HD
ENDBRANCH   9  11
ENDBRANCH   1   4
BRANCH   1  14
ATOM     14  N   UNL     1       2.430  -6.145   3.500  0.00  0.00    -0.190 NA
ATOM     15  H   UNL     1       1.834  -6.704   2.977  0.00  0.00    +0.148 HD
BRANCH  14  16
ATOM     16  C   UNL     1       2.214  -4.697   3.558  0.00  0.00    +0.106 C 
BRANCH  16  17
ATOM     17  C   UNL     1       1.259  -4.279   2.438  0.00  0.00    +0.015 C 
BRANCH  17  18
ATOM     18  C   UNL     1       1.035  -2.767   2.498  0.00  0.00    -0.017 C 
BRANCH  18  19
ATOM     19  C   UNL     1       0.080  -2.348   1.379  0.00  0.00    -0.079 C 
BRANCH  19  20
ATOM     20  N   UNL     1      -0.136  -0.896   1.437  0.00  0.00    +0.379 N 
ATOM     21  C   UNL     1      -0.828  -0.553   2.686  0.00  0.00    -0.096 C 
ATOM     22  H   UNL     1       0.754  -0.422   1.404  0.00  0.00    -0.082 HD
BRANCH  20  24
ATOM     23  C   UNL     1      -1.181   1.035   0.352  0.00  0.00    -0.014 C 
ATOM     24  C   UNL     1      -0.956  -0.477   0.292  0.00  0.00    -0.075 C 
ATOM     25  C   UNL     1      -0.235  -0.834  -1.010  0.00  0.00    -0.014 C 
ENDBRANCH  20  24
ENDBRANCH  19  20
ENDBRANCH  18  19
ENDBRANCH  17  18
ENDBRANCH  16  17
ENDBRANCH  14  16
ENDBRANCH   1  14
TORSDOF 9
