REMARK  Name = ZINC39938498
REMARK  6 active torsions:
REMARK  status: ('A' for Active; 'I' for Inactive)
REMARK    1  A    between atoms: C_4  and  C_7
REMARK    2  A    between atoms: C_7  and  C_9
REMARK    3  A    between atoms: C_7  and  S_15
REMARK    4  A    between atoms: S_15  and  C_16
REMARK    5  A    between atoms: C_20  and  C_25
REMARK    6  A    between atoms: N_21  and  C_22
REMARK                            x       y       z     vdW  Elec       q    Type
REMARK                         _______ _______ _______ _____ _____    ______ ____
ROOT
ATOM      1  C   UNL     1       3.637  -0.573  -2.600  0.00  0.00    +0.238 C 
ATOM      2  N   UNL     1       4.838   0.272  -2.496  0.00  0.00    -0.237 N 
ATOM      3  N   UNL     1       4.393   1.599  -2.493  0.00  0.00    -0.169 NA
ATOM      4  C   UNL     1       3.091   1.662  -2.581  0.00  0.00    +0.147 C 
ATOM      5  N   UNL     1       2.520   0.386  -2.654  0.00  0.00    -0.282 N 
ATOM      6  H   UNL     1       5.758  -0.032  -2.440  0.00  0.00    +0.171 HD
ENDROOT
BRANCH   4   7
ATOM      7  C   UNL     1       2.356   2.858  -2.600  0.00  0.00    +0.022 C 
ATOM      8  C   UNL     1       2.862   4.159  -2.611  0.00  0.00    +0.006 A 
ATOM      9  C   UNL     1       4.178   4.670  -2.607  0.00  0.00    +0.010 A 
ATOM     10  C   UNL     1       4.378   6.013  -2.621  0.00  0.00    +0.001 A 
ATOM     11  C   UNL     1       3.310   6.912  -2.640  0.00  0.00    +0.002 A 
ATOM     12  C   UNL     1       2.021   6.491  -2.644  0.00  0.00    +0.026 A 
ATOM     13  C   UNL     1       1.732   5.102  -2.630  0.00  0.00    +0.043 A 
ATOM     14  N   UNL     1       0.587   4.449  -2.632  0.00  0.00    -0.380 N 
ATOM     15  C   UNL     1       0.851   3.007  -2.620  0.00  0.00    +0.152 C 
ATOM     16  H   UNL     1      -0.293   4.859  -2.643  0.00  0.00    +0.160 HD
ENDBRANCH   4   7
BRANCH   5  17
ATOM     17  C   UNL     1       1.095   0.065  -2.762  0.00  0.00    +0.078 C 
ATOM     18  C   UNL     1       0.702  -1.414  -2.762  0.00  0.00    +0.024 C 
ATOM     19  C   UNL     1       0.617  -0.600  -4.055  0.00  0.00    +0.024 C 
ENDBRANCH   5  17
BRANCH   1  20
ATOM     20  S   UNL     1       3.485  -1.642  -1.143  0.00  0.00    -0.101 S 
BRANCH  20  21
ATOM     21  C   UNL     1       4.597  -3.030  -1.500  0.00  0.00    +0.166 C 
BRANCH  21  22
ATOM     22  C   UNL     1       4.388  -4.117  -0.477  0.00  0.00    +0.238 C 
ATOM     23  O   UNL     1       3.865  -3.857   0.586  0.00  0.00    -0.274 OA
ATOM     24  N   UNL     1       4.782  -5.378  -0.744  0.00  0.00    -0.239 N 
ATOM     25  C   UNL     1       4.595  -6.350   0.171  0.00  0.00    +0.303 C 
ATOM     26  O   UNL     1       4.071  -6.090   1.236  0.00  0.00    -0.253 OA
ATOM     27  N   UNL     1       4.989  -7.611  -0.096  0.00  0.00    -0.313 N 
ATOM     28  H   UNL     1       5.200  -5.586  -1.594  0.00  0.00    +0.159 HD
ATOM     29  H   UNL     1       5.407  -7.819  -0.947  0.00  0.00    +0.146 HD
ATOM     30  H   UNL     1       4.855  -8.311   0.562  0.00  0.00    +0.146 HD
ENDBRANCH  21  22
BRANCH  21  34
ATOM     31  C   UNL     1       8.648  -1.683  -1.340  0.00  0.00    +0.000 A 
ATOM     32  C   UNL     1       8.161  -2.273  -2.491  0.00  0.00    +0.000 A 
ATOM     33  C   UNL     1       6.850  -2.710  -2.542  0.00  0.00    +0.005 A 
ATOM     34  C   UNL     1       6.027  -2.555  -1.443  0.00  0.00    -0.026 A 
ATOM     35  C   UNL     1       6.514  -1.965  -0.292  0.00  0.00    +0.005 A 
ATOM     36  C   UNL     1       7.824  -1.528  -0.241  0.00  0.00    +0.000 A 
ENDBRANCH  21  34
ENDBRANCH  20  21
ENDBRANCH   1  20
TORSDOF 6
