REMARK  Name = ZINC21999535
REMARK  13 active torsions:
REMARK  status: ('A' for Active; 'I' for Inactive)
REMARK    1  A    between atoms: C_1  and  C_2
REMARK    2  A    between atoms: C_3  and  C_31
REMARK    3  A    between atoms: C_4  and  C_30
REMARK    4  A    between atoms: C_7  and  C_8
REMARK    5  A    between atoms: C_8  and  C_10
REMARK    6  A    between atoms: C_10  and  C_12
REMARK    7  A    between atoms: C_10  and  S_13
REMARK    8  A    between atoms: S_13  and  C_14
REMARK    9  A    between atoms: C_17  and  C_22
REMARK   10  A    between atoms: N_18  and  C_19
REMARK   11  A    between atoms: C_19  and  C_20
REMARK   12  A    between atoms: C_31  and  O_33
REMARK   13  A    between atoms: O_33  and  C_34
REMARK                            x       y       z     vdW  Elec       q    Type
REMARK                         _______ _______ _______ _____ _____    ______ ____
ROOT
ATOM      1  C   UNL     1       2.585   8.111  -1.750  0.00  0.00    +0.124 C 
ATOM      2  C   UNL     1       3.374   7.491  -2.905  0.00  0.00    +0.028 C 
ENDROOT
BRANCH   1   3
ATOM      3  C   UNL     1       2.953   9.566  -1.615  0.00  0.00    +0.192 C 
ATOM      4  O   UNL     1       3.812   9.905  -0.827  0.00  0.00    -0.289 OA
BRANCH   3  11
ATOM      5  C   UNL     1       3.532  12.619  -1.519  0.00  0.00    +0.047 C 
ATOM      6  C   UNL     1       2.532  11.896  -2.384  0.00  0.00    -0.008 A 
ATOM      7  C   UNL     1       1.659  12.478  -3.327  0.00  0.00    +0.083 A 
ATOM      8  C   UNL     1       0.921  11.451  -3.890  0.00  0.00    +0.028 A 
ATOM      9  N   UNL     1       1.310  10.291  -3.341  0.00  0.00    -0.355 N 
ATOM     10  H   UNL     1       0.845   9.348  -3.661  0.00  0.00    +0.166 HD
ATOM     11  C   UNL     1       2.295  10.538  -2.407  0.00  0.00    +0.087 A 
ATOM     12  C   UNL     1      -0.139  11.610  -4.950  0.00  0.00    +0.064 C 
BRANCH   7  13
ATOM     13  C   UNL     1       1.552  13.911  -3.652  0.00  0.00    +0.341 C 
ATOM     14  O   UNL     1       2.240  14.386  -4.534  0.00  0.00    -0.245 OA
BRANCH  13  15
ATOM     15  O   UNL     1       0.693  14.694  -2.971  0.00  0.00    -0.464 OA
ATOM     16  C   UNL     1       0.641  16.096  -3.344  0.00  0.00    +0.280 C 
ENDBRANCH  13  15
ENDBRANCH   7  13
ENDBRANCH   3  11
ENDBRANCH   1   3
BRANCH   1  17
ATOM     17  S   UNL     1       2.984   7.243  -0.212  0.00  0.00    -0.075 S 
BRANCH  17  18
ATOM     18  C   UNL     1       2.332   5.649  -0.583  0.00  0.00    +0.193 A 
ATOM     19  N   UNL     1       1.737   5.288  -1.696  0.00  0.00    -0.122 NA
ATOM     20  N   UNL     1       1.392   4.052  -1.627  0.00  0.00    -0.133 NA
ATOM     21  C   UNL     1       1.734   3.556  -0.471  0.00  0.00    +0.139 A 
ATOM     22  N   UNL     1       2.348   4.555   0.234  0.00  0.00    -0.302 N 
BRANCH  21  23
ATOM     23  C   UNL     1       1.502   2.144  -0.001  0.00  0.00    +0.079 C 
ATOM     24  C   UNL     1       2.180   1.157  -0.966  0.00  0.00    +0.035 C 
ATOM     25  C   UNL     1       1.686  -0.282  -0.682  0.00  0.00    +0.166 C 
ATOM     26  S   UNL     1       0.002  -0.004   0.002  0.00  0.00    -0.030 S 
ATOM     27  O   UNL     1      -0.036  -0.474   1.342  0.00  0.00    -0.174 OA
ATOM     28  O   UNL     1      -0.961  -0.474  -0.931  0.00  0.00    -0.174 OA
ATOM     29  C   UNL     1      -0.023   1.838   0.012  0.00  0.00    +0.177 C 
ENDBRANCH  21  23
BRANCH  22  30
ATOM     30  C   UNL     1       2.908   4.468   1.585  0.00  0.00    +0.152 C 
BRANCH  30  31
ATOM     31  C   UNL     1       4.354   4.051   1.504  0.00  0.00    -0.013 C 
ATOM     32  C   UNL     1       5.280   4.785   2.070  0.00  0.00    +0.005 C 
ENDBRANCH  30  31
ENDBRANCH  22  30
ENDBRANCH  17  18
ENDBRANCH   1  17
TORSDOF 9
