REMARK  Name = ZINC45917596
REMARK  11 active torsions:
REMARK  status: ('A' for Active; 'I' for Inactive)
REMARK    1  A    between atoms: C_1  and  C_2
REMARK    2  A    between atoms: C_2  and  C_4
REMARK    3  A    between atoms: C_2  and  N_12
REMARK    4  A    between atoms: C_13  and  C_15
REMARK    5  A    between atoms: C_15  and  C_17
REMARK    6  A    between atoms: C_15  and  O_18
REMARK    7  A    between atoms: O_18  and  C_19
REMARK    8  A    between atoms: C_19  and  C_21
REMARK    9  A    between atoms: C_21  and  C_22
REMARK   10  A    between atoms: C_22  and  N_23
REMARK   11  A    between atoms: N_32  and  C_33
REMARK                            x       y       z     vdW  Elec       q    Type
REMARK                         _______ _______ _______ _____ _____    ______ ____
ROOT
ATOM      1  C   UNL     1       0.526  -1.222   3.593  0.00  0.00    +0.258 C 
ATOM      2  C   UNL     1       1.067  -2.634   3.355  0.00  0.00    +0.062 C 
ENDROOT
BRANCH   1   4
ATOM      3  N   UNL     1       0.629  -0.500   1.230  0.00  0.00    -0.306 N 
ATOM      4  C   UNL     1      -0.119  -0.712   2.330  0.00  0.00    +0.254 C 
ATOM      5  O   UNL     1      -1.311  -0.491   2.305  0.00  0.00    -0.272 OA
ATOM      6  H   UNL     1       1.583  -0.677   1.250  0.00  0.00    +0.149 HD
BRANCH   3   8
ATOM      7  C   UNL     1      -0.037   1.525   0.032  0.00  0.00    +0.033 C 
ATOM      8  C   UNL     1       0.002  -0.004   0.002  0.00  0.00    +0.102 C 
BRANCH   8   9
ATOM      9  C   UNL     1       0.800  -0.463  -1.191  0.00  0.00    -0.009 A 
ATOM     10  C   UNL     1       2.154  -0.715  -1.061  0.00  0.00    +0.008 A 
ATOM     11  C   UNL     1       2.886  -1.136  -2.155  0.00  0.00    +0.020 A 
ATOM     12  C   UNL     1       2.266  -1.305  -3.380  0.00  0.00    +0.042 A 
ATOM     13  C   UNL     1       0.912  -1.053  -3.510  0.00  0.00    +0.040 A 
ATOM     14  C   UNL     1       0.178  -0.637  -2.414  0.00  0.00    +0.047 A 
ATOM     15 CL   UNL     1      -1.522  -0.326  -2.575  0.00  0.00    -0.083 Cl
ATOM     16 CL   UNL     1       3.187  -1.833  -4.754  0.00  0.00    -0.083 Cl
ENDBRANCH   8   9
ENDBRANCH   3   8
ENDBRANCH   1   4
BRANCH   1  17
ATOM     17  O   UNL     1      -0.442  -1.254   4.644  0.00  0.00    -0.452 OA
BRANCH  17  18
ATOM     18  C   UNL     1       0.010  -1.072   5.894  0.00  0.00    +0.309 C 
ATOM     19  O   UNL     1       1.188  -0.891   6.091  0.00  0.00    -0.251 OA
BRANCH  18  20
ATOM     20  C   UNL     1      -0.953  -1.092   7.054  0.00  0.00    +0.142 C 
BRANCH  20  21
ATOM     21  C   UNL     1      -0.186  -0.862   8.357  0.00  0.00    +0.137 C 
BRANCH  21  22
ATOM     22  N   UNL     1      -1.122  -0.882   9.484  0.00  0.00    -0.298 N 
ATOM     23  C   UNL     1      -1.717   0.269   9.889  0.00  0.00    +0.204 A 
ATOM     24  N   UNL     1      -2.557   0.323  10.881  0.00  0.00    -0.218 NA
ATOM     25  C   UNL     1      -2.897  -0.771  11.581  0.00  0.00    +0.165 A 
ATOM     26  C   UNL     1      -2.333  -2.009  11.236  0.00  0.00    +0.103 A 
ATOM     27  C   UNL     1      -1.394  -2.049  10.114  0.00  0.00    +0.265 A 
ATOM     28  O   UNL     1      -0.874  -3.093   9.762  0.00  0.00    -0.267 OA
ATOM     29  C   UNL     1      -2.857  -2.969  12.121  0.00  0.00    +0.150 A 
ATOM     30  N   UNL     1      -3.674  -2.368  12.941  0.00  0.00    -0.177 NA
ATOM     31  N   UNL     1      -3.724  -1.002  12.634  0.00  0.00    -0.249 N 
ATOM     32  C   UNL     1      -4.529   0.005  13.330  0.00  0.00    +0.174 C 
ENDBRANCH  21  22
ENDBRANCH  20  21
ENDBRANCH  18  20
ENDBRANCH  17  18
ENDBRANCH   1  17
TORSDOF 8
