REMARK  Name = ZINC39711473
REMARK  10 active torsions:
REMARK  status: ('A' for Active; 'I' for Inactive)
REMARK    1  A    between atoms: C_1  and  C_2
REMARK    2  A    between atoms: C_2  and  O_3
REMARK    3  A    between atoms: O_3  and  C_4
REMARK    4  A    between atoms: C_11  and  C_16
REMARK    5  A    between atoms: C_16  and  C_18
REMARK    6  A    between atoms: C_16  and  N_27
REMARK    7  A    between atoms: N_22  and  C_23
REMARK    8  A    between atoms: C_23  and  C_24
REMARK    9  A    between atoms: C_24  and  O_25
REMARK   10  A    between atoms: O_25  and  C_26
REMARK                            x       y       z     vdW  Elec       q    Type
REMARK                         _______ _______ _______ _____ _____    ______ ____
ROOT
ATOM      1  C   UNL     1      -5.334  -6.529   1.554  0.00  0.00    +0.018 C 
ENDROOT
BRANCH   1   9
ATOM      2  C   UNL     1      -7.500  -6.541  -3.868  0.00  0.00    +0.121 A 
ATOM      3  C   UNL     1      -6.904  -5.308  -4.158  0.00  0.00    +0.047 A 
ATOM      4  C   UNL     1      -5.964  -4.743  -3.357  0.00  0.00    +0.027 A 
ATOM      5  C   UNL     1      -5.544  -5.390  -2.180  0.00  0.00    +0.041 A 
ATOM      6  N   UNL     1      -4.620  -4.824  -1.404  0.00  0.00    -0.285 N 
ATOM      7  C   UNL     1      -4.180  -5.375  -0.285  0.00  0.00    +0.223 C 
ATOM      8  O   UNL     1      -3.335  -4.810   0.383  0.00  0.00    -0.275 OA
ATOM      9  C   UNL     1      -4.731  -6.711   0.160  0.00  0.00    +0.092 C 
ATOM     10  C   UNL     1      -5.782  -7.360  -0.720  0.00  0.00    -0.006 C 
ATOM     11  C   UNL     1      -6.153  -6.690  -1.848  0.00  0.00    -0.004 A 
ATOM     12  C   UNL     1      -7.165  -7.242  -2.749  0.00  0.00    +0.055 A 
ATOM     13  H   UNL     1      -4.254  -3.966  -1.671  0.00  0.00    +0.155 HD
BRANCH   2  14
ATOM     14  O   UNL     1      -8.434  -7.046  -4.716  0.00  0.00    -0.492 OA
BRANCH  14  16
ATOM     15  C   UNL     1      -9.811  -6.993  -6.701  0.00  0.00    +0.048 C 
ATOM     16  C   UNL     1      -8.747  -6.269  -5.873  0.00  0.00    +0.225 C 
ENDBRANCH  14  16
ENDBRANCH   2  14
ENDBRANCH   1   9
BRANCH   1  17
ATOM     17  N   UNL     1      -5.790  -7.829   2.064  0.00  0.00    +0.387 N 
ATOM     18  C   UNL     1      -6.498  -7.615   3.341  0.00  0.00    -0.078 C 
ATOM     19  C   UNL     1      -7.452  -8.764   3.551  0.00  0.00    -0.019 C 
ATOM     20  C   UNL     1      -6.833  -9.854   4.446  0.00  0.00    -0.002 C 
ATOM     21  C   UNL     1      -5.349 -10.098   4.105  0.00  0.00    -0.002 C 
ATOM     22  C   UNL     1      -5.093 -10.099   2.619  0.00  0.00    -0.019 C 
ATOM     23  C   UNL     1      -4.686  -8.677   2.178  0.00  0.00    -0.078 C 
ATOM     24  H   UNL     1      -6.436  -8.228   1.400  0.00  0.00    -0.081 HD
ENDBRANCH   1  17
BRANCH   1  25
ATOM     25  C   UNL     1      -6.504  -5.582   1.475  0.00  0.00    +0.139 A 
ATOM     26  N   UNL     1      -7.584  -5.732   0.748  0.00  0.00    -0.115 NA
ATOM     27  N   UNL     1      -8.347  -4.714   0.954  0.00  0.00    -0.023 NA
ATOM     28  N   UNL     1      -7.781  -3.919   1.794  0.00  0.00    -0.044 NA
ATOM     29  N   UNL     1      -6.645  -4.422   2.143  0.00  0.00    -0.229 N 
BRANCH  29  30
ATOM     30  C   UNL     1      -5.688  -3.839   3.086  0.00  0.00    +0.175 C 
BRANCH  30  31
ATOM     31  C   UNL     1      -4.801  -2.830   2.354  0.00  0.00    +0.183 C 
BRANCH  31  32
ATOM     32  O   UNL     1      -3.833  -2.299   3.261  0.00  0.00    -0.381 OA
ATOM     33  C   UNL     1      -2.950  -1.341   2.675  0.00  0.00    +0.194 C 
ENDBRANCH  31  32
ENDBRANCH  30  31
ENDBRANCH  29  30
ENDBRANCH   1  25
TORSDOF 8
