REMARK  Name = ZINC00667978
REMARK  10 active torsions:
REMARK  status: ('A' for Active; 'I' for Inactive)
REMARK    1  A    between atoms: C_1  and  C_2
REMARK    2  A    between atoms: C_2  and  C_3
REMARK    3  A    between atoms: C_2  and  N_4
REMARK    4  A    between atoms: N_4  and  S_5
REMARK    5  A    between atoms: S_5  and  C_8
REMARK    6  A    between atoms: C_17  and  N_18
REMARK    7  A    between atoms: C_19  and  C_21
REMARK    8  A    between atoms: C_21  and  C_23
REMARK    9  A    between atoms: C_21  and  N_29
REMARK   10  A    between atoms: C_30  and  C_32
REMARK                            x       y       z     vdW  Elec       q    Type
REMARK                         _______ _______ _______ _____ _____    ______ ____
ROOT
ATOM      1  N   UNL     1      -1.807   3.630  -1.536  0.00  0.00    -0.283 N 
ATOM      2  C   UNL     1      -2.819   2.818  -1.898  0.00  0.00    +0.242 C 
ATOM      3  O   UNL     1      -2.687   1.614  -1.825  0.00  0.00    -0.273 OA
ATOM      4  H   UNL     1      -1.936   4.591  -1.526  0.00  0.00    +0.155 HD
ENDROOT
BRANCH   1  14
ATOM      5  C   UNL     1       3.056   3.881  -1.422  0.00  0.00    +0.113 A 
ATOM      6  C   UNL     1       3.000   5.072  -2.078  0.00  0.00    +0.029 A 
ATOM      7  C   UNL     1       1.779   5.631  -2.446  0.00  0.00    +0.003 A 
ATOM      8  C   UNL     1       0.606   5.001  -2.161  0.00  0.00    +0.010 A 
ATOM      9  C   UNL     1       0.624   3.771  -1.487  0.00  0.00    +0.005 A 
ATOM     10  C   UNL     1       1.866   3.202  -1.111  0.00  0.00    +0.010 A 
ATOM     11  C   UNL     1       1.886   1.969  -0.435  0.00  0.00    +0.010 A 
ATOM     12  C   UNL     1       0.717   1.333  -0.147  0.00  0.00    +0.002 A 
ATOM     13  C   UNL     1      -0.509   1.879  -0.516  0.00  0.00    +0.024 A 
ATOM     14  C   UNL     1      -0.572   3.088  -1.175  0.00  0.00    +0.041 A 
BRANCH   5  15
ATOM     15  S   UNL     1       4.613   3.193  -0.966  0.00  0.00    +0.059 S 
ATOM     16  O   UNL     1       5.608   4.090  -1.440  0.00  0.00    -0.153 OA
ATOM     17  O   UNL     1       4.509   2.826   0.403  0.00  0.00    -0.153 OA
BRANCH  15  18
ATOM     18  N   UNL     1       4.797   1.787  -1.821  0.00  0.00    -0.187 NA
ATOM     19  H   UNL     1       4.822   0.936  -1.355  0.00  0.00    +0.148 HD
BRANCH  18  21
ATOM     20  C   UNL     1       5.877   0.726  -3.741  0.00  0.00    +0.025 C 
ATOM     21  C   UNL     1       4.921   1.828  -3.280  0.00  0.00    +0.070 C 
ATOM     22  C   UNL     1       3.546   1.609  -3.915  0.00  0.00    +0.025 C 
ENDBRANCH  18  21
ENDBRANCH  15  18
ENDBRANCH   5  15
ENDBRANCH   1  14
BRANCH   2  23
ATOM     23  C   UNL     1      -4.115   3.404  -2.395  0.00  0.00    +0.190 C 
BRANCH  23  24
ATOM     24  C   UNL     1      -4.715   4.277  -1.323  0.00  0.00    -0.018 A 
ATOM     25  C   UNL     1      -5.420   3.706  -0.280  0.00  0.00    +0.006 A 
ATOM     26  C   UNL     1      -5.966   4.506   0.705  0.00  0.00    +0.000 A 
ATOM     27  C   UNL     1      -5.816   5.879   0.643  0.00  0.00    +0.000 A 
ATOM     28  C   UNL     1      -5.115   6.451  -0.402  0.00  0.00    +0.000 A 
ATOM     29  C   UNL     1      -4.565   5.650  -1.386  0.00  0.00    +0.006 A 
ENDBRANCH  23  24
BRANCH  23  30
ATOM     30  N   UNL     1      -5.047   2.323  -2.722  0.00  0.00    -0.296 N 
ATOM     31  C   UNL     1      -6.030   2.529  -3.621  0.00  0.00    +0.245 C 
ATOM     32  O   UNL     1      -6.143   3.612  -4.160  0.00  0.00    -0.270 OA
ATOM     33  H   UNL     1      -4.957   1.458  -2.292  0.00  0.00    +0.150 HD
BRANCH  31  34
ATOM     34  C   UNL     1      -6.971   1.437  -3.951  0.00  0.00    +0.037 A 
ATOM     35  C   UNL     1      -6.840   0.190  -3.338  0.00  0.00    +0.013 A 
ATOM     36  C   UNL     1      -7.724  -0.823  -3.647  0.00  0.00    +0.001 A 
ATOM     37  C   UNL     1      -8.732  -0.608  -4.570  0.00  0.00    +0.000 A 
ATOM     38  C   UNL     1      -8.864   0.624  -5.186  0.00  0.00    +0.001 A 
ATOM     39  C   UNL     1      -7.990   1.647  -4.882  0.00  0.00    +0.013 A 
ENDBRANCH  31  34
ENDBRANCH  23  30
ENDBRANCH   2  23
TORSDOF 8
