REMARK  Name = ZINC65062154
REMARK  8 active torsions:
REMARK  status: ('A' for Active; 'I' for Inactive)
REMARK    1  A    between atoms: C_1  and  C_2
REMARK    2  A    between atoms: C_5  and  C_29
REMARK    3  A    between atoms: C_6  and  N_8
REMARK    4  A    between atoms: C_9  and  C_11
REMARK    5  A    between atoms: C_11  and  C_13
REMARK    6  A    between atoms: C_11  and  C_14
REMARK    7  A    between atoms: N_17  and  S_20
REMARK    8  A    between atoms: S_20  and  C_23
REMARK                            x       y       z     vdW  Elec       q    Type
REMARK                         _______ _______ _______ _____ _____    ______ ____
ROOT
ATOM      1  C   UNL     1       0.374  -1.917   6.022  0.00  0.00    +0.003 C 
ATOM      2  C   UNL     1       1.598  -1.018   5.835  0.00  0.00    +0.021 C 
ATOM      3  C   UNL     1       1.669  -0.012   6.988  0.00  0.00    +0.110 C 
ATOM      4  N   UNL     1       1.650  -0.748   8.260  0.00  0.00    -0.176 NA
ATOM      5  C   UNL     1       0.564  -1.708   8.504  0.00  0.00    +0.110 C 
ATOM      6  C   UNL     1       0.506  -2.695   7.333  0.00  0.00    +0.021 C 
ENDROOT
BRANCH   4   7
ATOM      7  S   UNL     1       2.829  -0.502   9.395  0.00  0.00    +0.067 S 
ATOM      8  O   UNL     1       2.877  -1.677  10.193  0.00  0.00    -0.152 OA
ATOM      9  O   UNL     1       3.965  -0.006   8.700  0.00  0.00    -0.152 OA
BRANCH   7  10
ATOM     10  C   UNL     1       2.276   0.799  10.447  0.00  0.00    +0.144 A 
ATOM     11  C   UNL     1       1.553   0.722  11.591  0.00  0.00    +0.038 A 
ATOM     12  C   UNL     1       1.229   1.888  12.259  0.00  0.00    +0.030 A 
ATOM     13  C   UNL     1       1.645   3.075  11.750  0.00  0.00    +0.080 A 
ATOM     14  S   UNL     1       2.530   2.559  10.287  0.00  0.00    -0.057 S 
ATOM     15 CL   UNL     1       1.391   4.678  12.364  0.00  0.00    -0.076 Cl
ENDBRANCH   7  10
ENDBRANCH   4   7
BRANCH   1  16
ATOM     16  C   UNL     1       0.280  -2.900   4.854  0.00  0.00    +0.075 C 
ATOM     17  C   UNL     1      -0.944  -3.798   5.039  0.00  0.00    +0.017 C 
BRANCH  16  19
ATOM     18  N   UNL     1       0.052  -2.797   2.393  0.00  0.00    -0.285 N 
ATOM     19  C   UNL     1       0.150  -2.135   3.562  0.00  0.00    +0.220 C 
ATOM     20  O   UNL     1       0.134  -0.922   3.575  0.00  0.00    -0.275 OA
ATOM     21  H   UNL     1      -0.016  -3.765   2.388  0.00  0.00    +0.155 HD
BRANCH  18  27
ATOM     22  C   UNL     1       1.264   1.227  -0.158  0.00  0.00    +0.044 C 
ATOM     23  C   UNL     1       0.628  -0.137  -0.079  0.00  0.00    -0.049 A 
ATOM     24  C   UNL     1       0.038  -0.690  -1.201  0.00  0.00    +0.004 A 
ATOM     25  C   UNL     1      -0.546  -1.941  -1.133  0.00  0.00    +0.005 A 
ATOM     26  C   UNL     1      -0.543  -2.643   0.057  0.00  0.00    -0.029 A 
ATOM     27  C   UNL     1       0.048  -2.090   1.185  0.00  0.00    +0.037 A 
ATOM     28  C   UNL     1       0.639  -0.835   1.112  0.00  0.00    +0.027 A 
ATOM     29  C   UNL     1      -1.181  -4.006   0.131  0.00  0.00    +0.045 C 
ENDBRANCH  18  27
ENDBRANCH  16  19
ENDBRANCH   1  16
TORSDOF 5
