REMARK  Name = ZINC28230735
REMARK  7 active torsions:
REMARK  status: ('A' for Active; 'I' for Inactive)
REMARK    1  A    between atoms: C_1  and  C_2
REMARK    2  A    between atoms: C_2  and  C_4
REMARK    3  A    between atoms: C_2  and  N_13
REMARK    4  A    between atoms: C_4  and  C_5
REMARK    5  A    between atoms: C_5  and  C_6
REMARK    6  A    between atoms: C_6  and  C_7
REMARK    7  A    between atoms: N_13  and  C_14
REMARK                            x       y       z     vdW  Elec       q    Type
REMARK                         _______ _______ _______ _____ _____    ______ ____
ROOT
ATOM      1  N   UNL     1      -1.628  -4.484  -2.237  0.00  0.00    +0.388 N 
ATOM      2  H   UNL     1      -0.856  -3.845  -1.785  0.00  0.00    -0.084 HD
ATOM      3  H   UNL     1      -1.780  -5.375  -1.610  0.00  0.00    -0.084 HD
ENDROOT
BRANCH   1   4
ATOM      4  C   UNL     1      -1.166  -4.915  -3.563  0.00  0.00    -0.002 C 
ATOM      5  C   UNL     1      -0.727  -6.353  -3.493  0.00  0.00    -0.015 A 
ATOM      6  C   UNL     1      -1.483  -7.258  -2.770  0.00  0.00    +0.006 A 
ATOM      7  C   UNL     1      -1.096  -8.583  -2.694  0.00  0.00    +0.000 A 
ATOM      8  C   UNL     1       0.049  -9.008  -3.341  0.00  0.00    +0.004 A 
ATOM      9  C   UNL     1       0.807  -8.109  -4.064  0.00  0.00    +0.046 A 
ATOM     10  C   UNL     1       0.421  -6.775  -4.142  0.00  0.00    +0.130 A 
ATOM     11  O   UNL     1       1.179  -5.908  -4.856  0.00  0.00    -0.456 OA
ATOM     12  C   UNL     1       1.087  -4.577  -4.624  0.00  0.00    +0.130 A 
ATOM     13  C   UNL     1      -0.027  -4.036  -4.002  0.00  0.00    -0.015 A 
ATOM     14  C   UNL     1      -0.097  -2.673  -3.778  0.00  0.00    +0.006 A 
ATOM     15  C   UNL     1       0.939  -1.848  -4.173  0.00  0.00    +0.000 A 
ATOM     16  C   UNL     1       2.052  -2.385  -4.794  0.00  0.00    +0.004 A 
ATOM     17  C   UNL     1       2.127  -3.744  -5.021  0.00  0.00    +0.046 A 
ENDBRANCH   1   4
BRANCH   1  19
ATOM     18  C   UNL     1      -4.052  -4.715  -2.498  0.00  0.00    -0.014 C 
ATOM     19  C   UNL     1      -2.888  -3.736  -2.336  0.00  0.00    -0.074 C 
BRANCH  19  20
ATOM     20  C   UNL     1      -3.091  -2.908  -1.066  0.00  0.00    -0.016 C 
BRANCH  20  21
ATOM     21  C   UNL     1      -1.995  -1.845  -0.969  0.00  0.00    +0.005 C 
BRANCH  21  22
ATOM     22  C   UNL     1      -2.198  -1.018   0.302  0.00  0.00    +0.055 C 
BRANCH  22  23
ATOM     23  C   UNL     1      -1.119   0.029   0.398  0.00  0.00    +0.041 A 
ATOM     24  C   UNL     1      -1.468   1.360   0.532  0.00  0.00    +0.023 A 
ATOM     25  C   UNL     1      -0.467   2.316   0.619  0.00  0.00    +0.003 A 
ATOM     26  C   UNL     1       0.854   1.895   0.568  0.00  0.00    +0.020 A 
ATOM     27  C   UNL     1       1.126   0.547   0.432  0.00  0.00    +0.111 A 
ATOM     28  N   UNL     1       0.148  -0.334   0.352  0.00  0.00    -0.260 NA
ENDBRANCH  22  23
ENDBRANCH  21  22
ENDBRANCH  20  21
ENDBRANCH  19  20
ENDBRANCH   1  19
TORSDOF 6
