REMARK  Name = ZINC32087111
REMARK  8 active torsions:
REMARK  status: ('A' for Active; 'I' for Inactive)
REMARK    1  A    between atoms: C_1  and  C_2
REMARK    2  A    between atoms: C_6  and  N_9
REMARK    3  A    between atoms: C_7  and  C_8
REMARK    4  A    between atoms: N_12  and  C_15
REMARK    5  A    between atoms: C_15  and  C_17
REMARK    6  A    between atoms: C_15  and  C_19
REMARK    7  A    between atoms: C_17  and  N_18
REMARK    8  A    between atoms: C_22  and  O_25
REMARK                            x       y       z     vdW  Elec       q    Type
REMARK                         _______ _______ _______ _____ _____    ______ ____
ROOT
ATOM      1  N   UNL     1       1.253  -2.952   2.558  0.00  0.00    -0.327 N 
ATOM      2  C   UNL     1      -0.179  -3.147   2.829  0.00  0.00    +0.120 C 
ATOM      3  C   UNL     1      -0.477  -2.650   4.248  0.00  0.00    +0.104 C 
ATOM      4  N   UNL     1       0.430  -3.310   5.196  0.00  0.00    -0.294 NA
ATOM      5  C   UNL     1       1.831  -2.958   4.926  0.00  0.00    +0.104 C 
ATOM      6  C   UNL     1       2.224  -3.473   3.533  0.00  0.00    +0.120 C 
ENDROOT
BRANCH   1  12
ATOM      7  C   UNL     1       2.492   1.221   0.276  0.00  0.00    +0.044 C 
ATOM      8  C   UNL     1       2.290  -0.273   0.267  0.00  0.00    -0.046 A 
ATOM      9  C   UNL     1       2.527  -0.994  -0.889  0.00  0.00    +0.004 A 
ATOM     10  C   UNL     1       2.343  -2.365  -0.902  0.00  0.00    +0.002 A 
ATOM     11  C   UNL     1       1.920  -3.017   0.239  0.00  0.00    +0.023 A 
ATOM     12  C   UNL     1       1.681  -2.296   1.401  0.00  0.00    +0.033 A 
ATOM     13  C   UNL     1       1.872  -0.920   1.413  0.00  0.00    -0.027 A 
ATOM     14  C   UNL     1       1.619  -0.133   2.673  0.00  0.00    +0.046 C 
ENDBRANCH   1  12
BRANCH   4  15
ATOM     15  C   UNL     1       0.065  -2.992   6.583  0.00  0.00    +0.069 C 
BRANCH  15  16
ATOM     16  C   UNL     1       0.234  -1.513   6.820  0.00  0.00    -0.032 A 
ATOM     17  C   UNL     1      -0.878  -0.714   7.011  0.00  0.00    +0.008 A 
ATOM     18  C   UNL     1      -0.726   0.642   7.228  0.00  0.00    +0.046 A 
ATOM     19  C   UNL     1       0.544   1.201   7.256  0.00  0.00    +0.117 A 
ATOM     20  C   UNL     1       1.657   0.396   7.064  0.00  0.00    +0.046 A 
ATOM     21  C   UNL     1       1.500  -0.960   6.853  0.00  0.00    +0.008 A 
BRANCH  19  22
ATOM     22  O   UNL     1       0.696   2.534   7.469  0.00  0.00    -0.507 OA
ATOM     23  H   UNL     1       0.785   2.776   8.401  0.00  0.00    +0.292 HD
ENDBRANCH  19  22
ENDBRANCH  15  16
BRANCH  15  24
ATOM     24  C   UNL     1       0.971  -3.769   7.540  0.00  0.00    -0.063 C 
BRANCH  24  25
ATOM     25  N   UNL     1       0.897  -5.203   7.229  0.00  0.00    +0.379 N 
ATOM     26  H   UNL     1       1.200  -5.357   6.279  0.00  0.00    -0.090 HD
ATOM     27  H   UNL     1       1.495  -5.715   7.860  0.00  0.00    -0.090 HD
ATOM     28  H   UNL     1      -0.055  -5.521   7.334  0.00  0.00    -0.090 HD
ENDBRANCH  24  25
ENDBRANCH  15  24
ENDBRANCH   4  15
TORSDOF 6
