REMARK  Name = ZINC08440748
REMARK  11 active torsions:
REMARK  status: ('A' for Active; 'I' for Inactive)
REMARK    1  A    between atoms: C_1  and  C_2
REMARK    2  A    between atoms: C_2  and  C_3
REMARK    3  A    between atoms: C_6  and  C_9
REMARK    4  A    between atoms: C_14  and  C_19
REMARK    5  A    between atoms: C_26  and  C_40
REMARK    6  A    between atoms: C_27  and  C_28
REMARK    7  A    between atoms: C_28  and  O_30
REMARK    8  A    between atoms: O_30  and  C_31
REMARK    9  A    between atoms: C_31  and  C_32
REMARK   10  A    between atoms: C_32  and  O_33
REMARK   11  A    between atoms: O_33  and  C_34
REMARK                            x       y       z     vdW  Elec       q    Type
REMARK                         _______ _______ _______ _____ _____    ______ ____
ROOT
ATOM      1  C   UNL     1      -2.608   1.060   0.097  0.00  0.00    +0.092 C 
ATOM      2  C   UNL     1      -1.293   1.797   0.043  0.00  0.00    +0.024 C 
ATOM      3  C   UNL     1      -1.260   3.145  -0.018  0.00  0.00    +0.016 C 
ATOM      4  C   UNL     1       0.051   3.887  -0.097  0.00  0.00    +0.059 C 
ATOM      5  C   UNL     1       1.132   3.099   0.645  0.00  0.00    +0.032 C 
ATOM      6  C   UNL     1       1.241   1.708   0.013  0.00  0.00    +0.088 C 
ATOM      7  C   UNL     1      -0.107   1.042   0.060  0.00  0.00    +0.162 C 
ATOM      8  O   UNL     1      -0.173  -0.170   0.110  0.00  0.00    -0.292 OA
ATOM      9  N   UNL     1      -2.422   3.870  -0.013  0.00  0.00    -0.321 N 
ATOM     10  C   UNL     1      -3.590   3.315   0.422  0.00  0.00    +0.016 C 
ATOM     11  C   UNL     1      -3.724   1.980   0.500  0.00  0.00    +0.065 C 
ATOM     12  C   UNL     1      -4.734   4.207   0.828  0.00  0.00    +0.061 C 
ATOM     13  H   UNL     1      -2.421   4.913  -0.363  0.00  0.00    +0.152 HD
ENDROOT
BRANCH   1  17
ATOM     14  C   UNL     1      -3.462  -0.574  -3.756  0.00  0.00    -0.048 A 
ATOM     15  C   UNL     1      -3.336  -1.411  -2.663  0.00  0.00    +0.004 A 
ATOM     16  C   UNL     1      -3.059  -0.882  -1.416  0.00  0.00    +0.005 A 
ATOM     17  C   UNL     1      -2.909   0.484  -1.262  0.00  0.00    -0.035 A 
ATOM     18  C   UNL     1      -3.040   1.321  -2.354  0.00  0.00    +0.005 A 
ATOM     19  C   UNL     1      -3.311   0.791  -3.602  0.00  0.00    +0.004 A 
BRANCH  14  21
ATOM     20  C   UNL     1      -5.278  -1.220  -5.316  0.00  0.00    +0.009 C 
ATOM     21  C   UNL     1      -3.763  -1.151  -5.115  0.00  0.00    +0.032 C 
ENDBRANCH  14  21
ENDBRANCH   1  17
BRANCH   5  22
ATOM     22  C   UNL     1       2.453   3.815   0.524  0.00  0.00    -0.044 A 
ATOM     23  C   UNL     1       2.998   4.054  -0.724  0.00  0.00    +0.004 A 
ATOM     24  C   UNL     1       4.207   4.714  -0.836  0.00  0.00    +0.000 A 
ATOM     25  C   UNL     1       4.877   5.127   0.301  0.00  0.00    +0.000 A 
ATOM     26  C   UNL     1       4.335   4.883   1.549  0.00  0.00    +0.000 A 
ATOM     27  C   UNL     1       3.123   4.227   1.661  0.00  0.00    +0.004 A 
ENDBRANCH   5  22
BRANCH  11  28
ATOM     28  C   UNL     1      -4.939   1.431   0.971  0.00  0.00    +0.338 C 
ATOM     29  O   UNL     1      -5.812   2.163   1.399  0.00  0.00    -0.245 OA
BRANCH  28  30
ATOM     30  O   UNL     1      -5.131   0.096   0.946  0.00  0.00    -0.458 OA
BRANCH  30  31
ATOM     31  C   UNL     1      -6.383  -0.389   1.437  0.00  0.00    +0.273 C 
BRANCH  31  32
ATOM     32  C   UNL     1      -6.416  -1.915   1.330  0.00  0.00    +0.270 C 
BRANCH  32  33
ATOM     33  O   UNL     1      -5.427  -2.475   2.196  0.00  0.00    -0.489 OA
BRANCH  33  34
ATOM     34  C   UNL     1      -5.325  -3.830   2.220  0.00  0.00    +0.121 A 
ATOM     35  C   UNL     1      -6.162  -4.605   1.431  0.00  0.00    +0.045 A 
ATOM     36  C   UNL     1      -6.052  -5.981   1.452  0.00  0.00    +0.004 A 
ATOM     37  C   UNL     1      -5.116  -6.588   2.269  0.00  0.00    +0.000 A 
ATOM     38  C   UNL     1      -4.283  -5.819   3.061  0.00  0.00    +0.004 A 
ATOM     39  C   UNL     1      -4.386  -4.441   3.038  0.00  0.00    +0.045 A 
ENDBRANCH  33  34
ENDBRANCH  32  33
ENDBRANCH  31  32
ENDBRANCH  30  31
ENDBRANCH  28  30
ENDBRANCH  11  28
TORSDOF 9
