REMARK  Name = ZINC00944112
REMARK  7 active torsions:
REMARK  status: ('A' for Active; 'I' for Inactive)
REMARK    1  A    between atoms: C_1  and  C_2
REMARK    2  A    between atoms: C_5  and  S_8
REMARK    3  A    between atoms: S_8  and  N_11
REMARK    4  A    between atoms: N_11  and  C_12
REMARK    5  A    between atoms: C_15  and  O_28
REMARK    6  A    between atoms: C_16  and  S_18
REMARK    7  A    between atoms: S_18  and  C_19
REMARK                            x       y       z     vdW  Elec       q    Type
REMARK                         _______ _______ _______ _____ _____    ______ ____
ROOT
ATOM      1  C   UNL     1       1.083   1.865  -0.079  0.00  0.00    +0.049 A 
ATOM      2  C   UNL     1       1.111   3.252  -0.017  0.00  0.00    +0.028 A 
ATOM      3  C   UNL     1      -0.067   3.966   0.103  0.00  0.00    +0.048 A 
ATOM      4  C   UNL     1      -1.279   3.299   0.161  0.00  0.00    +0.131 A 
ATOM      5  C   UNL     1      -1.313   1.908   0.094  0.00  0.00    +0.058 A 
ATOM      6  C   UNL     1      -0.130   1.192  -0.021  0.00  0.00    +0.043 A 
ENDROOT
BRANCH   1   7
ATOM      7  N   UNL     1       2.277   1.146  -0.200  0.00  0.00    -0.216 N 
ATOM      8  H   UNL     1       2.434   0.370   0.361  0.00  0.00    +0.174 HD
BRANCH   7   9
ATOM      9  S   UNL     1       3.421   1.619  -1.300  0.00  0.00    +0.072 S 
ATOM     10  O   UNL     1       3.667   2.998  -1.062  0.00  0.00    -0.150 OA
ATOM     11  O   UNL     1       4.452   0.642  -1.258  0.00  0.00    -0.150 OA
BRANCH   9  16
ATOM     12  C   UNL     1       0.903   1.235  -6.770  0.00  0.00    +0.044 C 
ATOM     13  C   UNL     1       1.532   1.331  -5.404  0.00  0.00    -0.050 A 
ATOM     14  C   UNL     1       1.538   2.537  -4.729  0.00  0.00    +0.005 A 
ATOM     15  C   UNL     1       2.115   2.625  -3.475  0.00  0.00    +0.029 A 
ATOM     16  C   UNL     1       2.685   1.506  -2.897  0.00  0.00    +0.109 A 
ATOM     17  C   UNL     1       2.683   0.301  -3.574  0.00  0.00    +0.029 A 
ATOM     18  C   UNL     1       2.103   0.212  -4.825  0.00  0.00    +0.005 A 
ENDBRANCH   9  16
ENDBRANCH   7   9
ENDBRANCH   1   7
BRANCH   4  19
ATOM     19  O   UNL     1      -2.438   4.003   0.279  0.00  0.00    -0.506 OA
ATOM     20  H   UNL     1      -2.838   4.247  -0.567  0.00  0.00    +0.292 HD
ENDBRANCH   4  19
BRANCH   5  21
ATOM     21  S   UNL     1      -2.855   1.058   0.161  0.00  0.00    -0.059 S 
BRANCH  21  22
ATOM     22  C   UNL     1      -3.210   1.203   1.881  0.00  0.00    +0.140 A 
ATOM     23  N   UNL     1      -2.545   1.855   2.808  0.00  0.00    -0.232 NA
ATOM     24  C   UNL     1      -2.939   1.883   4.099  0.00  0.00    +0.079 A 
ATOM     25  C   UNL     1      -2.322   2.544   5.186  0.00  0.00    +0.029 A 
ATOM     26  C   UNL     1      -2.853   2.465   6.447  0.00  0.00    +0.002 A 
ATOM     27  C   UNL     1      -4.007   1.738   6.703  0.00  0.00    +0.001 A 
ATOM     28  C   UNL     1      -4.636   1.079   5.663  0.00  0.00    +0.017 A 
ATOM     29  C   UNL     1      -4.112   1.153   4.397  0.00  0.00    +0.040 A 
ATOM     30  S   UNL     1      -4.561   0.492   2.810  0.00  0.00    -0.061 S 
ENDBRANCH  21  22
ENDBRANCH   5  21
TORSDOF 6
