REMARK  Name = ZINC09298251
REMARK  7 active torsions:
REMARK  status: ('A' for Active; 'I' for Inactive)
REMARK    1  A    between atoms: C_1  and  C_2
REMARK    2  A    between atoms: C_2  and  O_3
REMARK    3  A    between atoms: O_3  and  C_4
REMARK    4  A    between atoms: C_7  and  C_9
REMARK    5  A    between atoms: C_13  and  N_14
REMARK    6  A    between atoms: C_15  and  C_17
REMARK    7  A    between atoms: C_24  and  C_28
REMARK                            x       y       z     vdW  Elec       q    Type
REMARK                         _______ _______ _______ _____ _____    ______ ____
ROOT
ATOM      1  C   UNL     1       2.244  -4.216   3.682  0.00  0.00    +0.069 A 
ATOM      2  C   UNL     1       1.535  -4.527   4.911  0.00  0.00    -0.023 A 
ATOM      3  C   UNL     1       2.318  -5.034   5.887  0.00  0.00    -0.004 A 
ATOM      4  S   UNL     1       3.939  -5.089   5.181  0.00  0.00    -0.077 S 
ATOM      5  C   UNL     1       3.607  -4.474   3.654  0.00  0.00    +0.084 A 
ATOM      6  C   UNL     1       1.887  -5.453   7.259  0.00  0.00    +0.046 C 
ATOM      7  C   UNL     1       0.356  -5.574   7.268  0.00  0.00    -0.009 C 
ATOM      8  C   UNL     1      -0.244  -4.319   6.626  0.00  0.00    +0.008 C 
ATOM      9  C   UNL     1       0.043  -4.316   5.123  0.00  0.00    +0.037 C 
ATOM     10  C   UNL     1      -0.139  -5.702   8.710  0.00  0.00    +0.008 C 
ENDROOT
BRANCH   1  14
ATOM     11  C   UNL     1       0.801  -1.811   1.304  0.00  0.00    +0.407 C 
ATOM     12  O   UNL     1       0.321  -2.553   0.470  0.00  0.00    -0.226 OA
ATOM     13  N   UNL     1       1.441  -2.324   2.374  0.00  0.00    -0.217 N 
ATOM     14  C   UNL     1       1.549  -3.659   2.519  0.00  0.00    +0.255 C 
ATOM     15  O   UNL     1       1.068  -4.403   1.684  0.00  0.00    -0.270 OA
ATOM     16  H   UNL     1       1.824  -1.731   3.040  0.00  0.00    +0.161 HD
BRANCH  11  17
ATOM     17  O   UNL     1       0.693  -0.477   1.160  0.00  0.00    -0.450 OA
BRANCH  17  19
ATOM     18  C   UNL     1      -0.019   1.526   0.010  0.00  0.00    +0.048 C 
ATOM     19  C   UNL     1       0.002  -0.004   0.002  0.00  0.00    +0.230 C 
ENDBRANCH  17  19
ENDBRANCH  11  17
ENDBRANCH   1  14
BRANCH   5  20
ATOM     20  N   UNL     1       4.491  -4.270   2.606  0.00  0.00    -0.279 N 
ATOM     21  C   UNL     1       5.795  -4.581   2.755  0.00  0.00    +0.221 C 
ATOM     22  O   UNL     1       6.193  -5.038   3.805  0.00  0.00    -0.275 OA
ATOM     23  H   UNL     1       4.173  -3.904   1.766  0.00  0.00    +0.155 HD
BRANCH  21  24
ATOM     24  C   UNL     1       6.756  -4.359   1.616  0.00  0.00    +0.075 C 
ATOM     25  C   UNL     1       6.315  -5.186   0.407  0.00  0.00    +0.013 C 
ATOM     26  C   UNL     1       7.292  -4.961  -0.749  0.00  0.00    +0.001 C 
ATOM     27  C   UNL     1       8.696  -5.392  -0.321  0.00  0.00    +0.000 C 
ATOM     28  C   UNL     1       9.137  -4.564   0.888  0.00  0.00    +0.001 C 
ATOM     29  C   UNL     1       8.161  -4.790   2.044  0.00  0.00    +0.013 C 
ENDBRANCH  21  24
ENDBRANCH   5  20
TORSDOF 5
