REMARK  Name = ZINC23653461
REMARK  9 active torsions:
REMARK  status: ('A' for Active; 'I' for Inactive)
REMARK    1  A    between atoms: C_1  and  N_2
REMARK    2  A    between atoms: C_6  and  N_7
REMARK    3  A    between atoms: N_7  and  C_8
REMARK    4  A    between atoms: C_8  and  C_9
REMARK    5  A    between atoms: C_9  and  C_11
REMARK    6  A    between atoms: C_9  and  N_19
REMARK    7  A    between atoms: C_16  and  O_17
REMARK    8  A    between atoms: O_17  and  C_18
REMARK    9  A    between atoms: N_26  and  C_29
REMARK                            x       y       z     vdW  Elec       q    Type
REMARK                         _______ _______ _______ _____ _____    ______ ____
ROOT
ATOM      1  C   UNL     1      -4.803   1.439  -0.044  0.00  0.00    +0.090 C 
ENDROOT
BRANCH   1   2
ATOM      2  N   UNL     1      -4.761   0.792  -1.358  0.00  0.00    -0.350 N 
ATOM      3  H   UNL     1      -5.435   1.131  -2.159  0.00  0.00    +0.145 HD
BRANCH   2   9
ATOM      4  C   UNL     1      -1.698  -3.259  -4.766  0.00  0.00    +0.143 C 
ATOM      5  N   UNL     1      -2.706  -2.250  -4.428  0.00  0.00    -0.224 N 
ATOM      6  C   UNL     1      -2.756  -1.764  -3.171  0.00  0.00    +0.260 C 
ATOM      7  O   UNL     1      -1.977  -2.152  -2.320  0.00  0.00    -0.269 OA
ATOM      8  C   UNL     1      -3.782  -0.755  -2.854  0.00  0.00    +0.113 C 
ATOM      9  C   UNL     1      -3.897  -0.217  -1.586  0.00  0.00    +0.085 C 
ATOM     10  C   UNL     1      -4.677  -0.341  -3.950  0.00  0.00    +0.260 C 
ATOM     11  O   UNL     1      -5.546   0.490  -3.766  0.00  0.00    -0.269 OA
ATOM     12  N   UNL     1      -4.510  -0.914  -5.160  0.00  0.00    -0.224 N 
ATOM     13  C   UNL     1      -3.557  -1.831  -5.375  0.00  0.00    +0.317 C 
ATOM     14  O   UNL     1      -3.459  -2.309  -6.489  0.00  0.00    -0.252 OA
ATOM     15  C   UNL     1      -5.391  -0.524  -6.263  0.00  0.00    +0.143 C 
ENDBRANCH   2   9
ENDBRANCH   1   2
BRANCH   1  16
ATOM     16  C   UNL     1      -5.947   2.454  -0.011  0.00  0.00    -0.017 C 
BRANCH  16  17
ATOM     17  C   UNL     1      -7.264   1.731  -0.126  0.00  0.00    -0.018 A 
ATOM     18  C   UNL     1      -7.871   1.591  -1.359  0.00  0.00    +0.005 A 
ATOM     19  C   UNL     1      -9.077   0.923  -1.466  0.00  0.00    +0.000 A 
ATOM     20  C   UNL     1      -9.684   0.403  -0.338  0.00  0.00    +0.004 A 
ATOM     21  C   UNL     1      -9.084   0.545   0.898  0.00  0.00    +0.046 A 
ATOM     22  C   UNL     1      -7.871   1.210   1.007  0.00  0.00    +0.122 A 
BRANCH  22  23
ATOM     23  O   UNL     1      -7.279   1.350   2.222  0.00  0.00    -0.495 OA
ATOM     24  C   UNL     1      -7.961   0.789   3.346  0.00  0.00    +0.277 C 
ENDBRANCH  22  23
ENDBRANCH  16  17
BRANCH  16  25
ATOM     25  N   UNL     1      -5.803   3.391  -1.133  0.00  0.00    +0.385 N 
ATOM     26  C   UNL     1      -6.866   4.427  -1.101  0.00  0.00    -0.078 C 
ATOM     27  C   UNL     1      -6.276   5.567  -1.970  0.00  0.00    -0.020 C 
ATOM     28  C   UNL     1      -4.775   5.540  -1.603  0.00  0.00    -0.020 C 
ATOM     29  C   UNL     1      -4.521   4.124  -1.051  0.00  0.00    -0.078 C 
ATOM     30  H   UNL     1      -5.858   2.777  -2.045  0.00  0.00    -0.081 HD
ENDBRANCH  16  25
ENDBRANCH   1  16
TORSDOF 6
