REMARK  Name = ZINC21163483
REMARK  5 active torsions:
REMARK  status: ('A' for Active; 'I' for Inactive)
REMARK    1  A    between atoms: C_1  and  C_2
REMARK    2  A    between atoms: C_2  and  C_4
REMARK    3  A    between atoms: C_2  and  N_12
REMARK    4  A    between atoms: C_13  and  C_15
REMARK    5  A    between atoms: C_15  and  N_16
REMARK                            x       y       z     vdW  Elec       q    Type
REMARK                         _______ _______ _______ _____ _____    ______ ____
ROOT
ATOM      1  N   UNL     1       1.954  -2.565   1.558  0.00  0.00    -0.258 N 
ATOM      2  C   UNL     1       2.700  -2.242   2.683  0.00  0.00    +0.051 A 
ATOM      3  C   UNL     1       2.566  -3.051   3.811  0.00  0.00    +0.024 A 
ATOM      4  C   UNL     1       3.270  -2.769   4.964  0.00  0.00    +0.002 A 
ATOM      5  C   UNL     1       4.117  -1.678   5.010  0.00  0.00    +0.001 A 
ATOM      6  C   UNL     1       4.263  -0.873   3.897  0.00  0.00    +0.017 A 
ATOM      7  C   UNL     1       3.559  -1.153   2.731  0.00  0.00    +0.036 A 
ATOM      8  S   UNL     1       3.781  -0.108   1.333  0.00  0.00    -0.067 S 
ATOM      9  C   UNL     1       2.150   0.522   1.138  0.00  0.00    +0.114 A 
ATOM     10  C   UNL     1       1.081  -0.339   0.865  0.00  0.00    +0.069 A 
ATOM     11  C   UNL     1      -0.197   0.211   0.684  0.00  0.00    +0.017 A 
ATOM     12  C   UNL     1      -0.350   1.581   0.796  0.00  0.00    +0.020 A 
ATOM     13  C   UNL     1       0.752   2.366   1.083  0.00  0.00    +0.112 A 
ATOM     14  N   UNL     1       1.945   1.831   1.243  0.00  0.00    -0.248 NA
ATOM     15  C   UNL     1       1.251  -1.788   0.774  0.00  0.00    +0.254 C 
ATOM     16  O   UNL     1       0.668  -2.337  -0.140  0.00  0.00    -0.270 OA
ENDROOT
BRANCH   1  17
ATOM     17  C   UNL     1       1.952  -3.984   1.195  0.00  0.00    +0.209 C 
BRANCH  17  19
ATOM     18  N   UNL     1       0.610  -5.999   1.701  0.00  0.00    -0.303 N 
ATOM     19  C   UNL     1       0.809  -4.679   1.888  0.00  0.00    +0.231 C 
ATOM     20  O   UNL     1       0.068  -4.051   2.614  0.00  0.00    -0.274 OA
ATOM     21  H   UNL     1       1.282  -6.569   1.043  0.00  0.00    +0.149 HD
BRANCH  18  23
ATOM     22  C   UNL     1      -1.776  -6.513   1.544  0.00  0.00    +0.038 C 
ATOM     23  C   UNL     1      -0.502  -6.674   2.375  0.00  0.00    +0.156 C 
BRANCH  23  24
ATOM     24  C   UNL     1      -0.182  -8.139   2.526  0.00  0.00    +0.236 C 
ATOM     25  O   UNL     1       0.575  -8.678   1.747  0.00  0.00    -0.274 OA
ATOM     26  N   UNL     1      -0.738  -8.850   3.527  0.00  0.00    -0.300 N 
ATOM     27  C   UNL     1      -1.735  -8.239   4.416  0.00  0.00    +0.108 C 
ATOM     28  C   UNL     1      -2.990  -9.126   4.426  0.00  0.00    +0.019 C 
ATOM     29  C   UNL     1      -2.595 -10.553   4.812  0.00  0.00    +0.003 C 
ATOM     30  C   UNL     1      -1.619 -11.113   3.775  0.00  0.00    +0.019 C 
ATOM     31  C   UNL     1      -0.353 -10.250   3.755  0.00  0.00    +0.108 C 
ENDBRANCH  23  24
ENDBRANCH  18  23
ENDBRANCH  17  19
ENDBRANCH   1  17
TORSDOF 4
