REMARK  Name = ZINC39608147
REMARK  8 active torsions:
REMARK  status: ('A' for Active; 'I' for Inactive)
REMARK    1  A    between atoms: C_1  and  C_2
REMARK    2  A    between atoms: C_7  and  C_8
REMARK    3  A    between atoms: C_12  and  C_21
REMARK    4  A    between atoms: N_23  and  C_24
REMARK    5  A    between atoms: C_24  and  C_26
REMARK    6  A    between atoms: C_24  and  C_27
REMARK    7  A    between atoms: C_27  and  C_28
REMARK    8  A    between atoms: C_27  and  C_29
REMARK                            x       y       z     vdW  Elec       q    Type
REMARK                         _______ _______ _______ _____ _____    ______ ____
ROOT
ATOM      1  C   UNL     1       0.101  -0.271   2.480  0.00  0.00    +0.247 C 
ATOM      2  O   UNL     1      -0.044   0.935   2.527  0.00  0.00    -0.270 OA
ATOM      3  N   UNL     1       0.312  -0.969   3.614  0.00  0.00    -0.296 N 
ATOM      4  C   UNL     1       0.620  -2.412   3.748  0.00  0.00    +0.121 C 
ATOM      5  C   UNL     1       1.670  -2.484   4.879  0.00  0.00    +0.100 C 
ATOM      6  C   UNL     1       1.446  -1.206   5.704  0.00  0.00    -0.004 C 
ATOM      7  C   UNL     1       0.294  -0.465   5.008  0.00  0.00    +0.115 C 
ATOM      8  C   UNL     1       1.058  -1.562   7.136  0.00  0.00    -0.010 C 
ATOM      9  C   UNL     1       0.897  -0.275   7.951  0.00  0.00    -0.082 C 
ATOM     10  N   UNL     1       2.159   0.476   7.937  0.00  0.00    +0.379 N 
ATOM     11  C   UNL     1       2.477   0.894   6.566  0.00  0.00    -0.082 C 
ATOM     12  C   UNL     1       2.704  -0.343   5.692  0.00  0.00    -0.010 C 
ATOM     13  H   UNL     1       2.069   1.292   8.524  0.00  0.00    -0.086 HD
ATOM     14  H   UNL     1       2.901  -0.110   8.289  0.00  0.00    -0.086 HD
ENDROOT
BRANCH   1  21
ATOM     15  C   UNL     1       1.392   0.896   0.170  0.00  0.00    +0.044 C 
ATOM     16  C   UNL     1       0.664  -0.419   0.058  0.00  0.00    -0.038 A 
ATOM     17  C   UNL     1       0.614  -1.080  -1.152  0.00  0.00    +0.007 A 
ATOM     18  C   UNL     1      -0.053  -2.287  -1.257  0.00  0.00    +0.038 A 
ATOM     19  C   UNL     1      -0.675  -2.841  -0.149  0.00  0.00    +0.124 A 
ATOM     20  C   UNL     1      -0.632  -2.188   1.068  0.00  0.00    +0.051 A 
ATOM     21  C   UNL     1       0.045  -0.973   1.180  0.00  0.00    +0.043 A 
ATOM     22  F   UNL     1      -1.325  -4.020  -0.260  0.00  0.00    -0.205 F 
ENDBRANCH   1  21
BRANCH   5  23
ATOM     23  C   UNL     1       3.062  -2.502   4.302  0.00  0.00    +0.218 C 
ATOM     24  O   UNL     1       3.281  -1.981   3.229  0.00  0.00    -0.275 OA
ATOM     25  N   UNL     1       4.064  -3.098   4.979  0.00  0.00    -0.312 N 
ATOM     26  H   UNL     1       3.889  -3.514   5.838  0.00  0.00    +0.149 HD
BRANCH  25  27
ATOM     27  C   UNL     1       5.418  -3.115   4.419  0.00  0.00    +0.072 C 
ATOM     28  C   UNL     1       5.557  -4.300   3.461  0.00  0.00    +0.028 C 
BRANCH  27  29
ATOM     29  C   UNL     1       6.437  -3.252   5.551  0.00  0.00    +0.003 C 
ATOM     30  C   UNL     1       7.850  -3.271   4.966  0.00  0.00    +0.009 C 
ATOM     31  C   UNL     1       6.297  -2.068   6.510  0.00  0.00    +0.009 C 
ENDBRANCH  27  29
ENDBRANCH  25  27
ENDBRANCH   5  23
TORSDOF 4
