REMARK  Name = ZINC36585788
REMARK  18 active torsions:
REMARK  status: ('A' for Active; 'I' for Inactive)
REMARK    1  A    between atoms: C_1  and  C_2
REMARK    2  A    between atoms: C_2  and  C_3
REMARK    3  A    between atoms: C_2  and  C_4
REMARK    4  A    between atoms: C_2  and  C_5
REMARK    5  A    between atoms: C_5  and  C_6
REMARK    6  A    between atoms: C_6  and  C_7
REMARK    7  A    between atoms: C_6  and  C_8
REMARK    8  A    between atoms: C_6  and  N_9
REMARK    9  A    between atoms: C_10  and  C_12
REMARK   10  A    between atoms: C_12  and  C_14
REMARK   11  A    between atoms: C_12  and  N_21
REMARK   12  A    between atoms: C_18  and  O_20
REMARK   13  A    between atoms: N_21  and  C_34
REMARK   14  A    between atoms: C_22  and  C_24
REMARK   15  A    between atoms: C_26  and  N_31
REMARK   16  A    between atoms: C_34  and  C_35
REMARK   17  A    between atoms: C_34  and  C_36
REMARK   18  A    between atoms: C_34  and  C_37
REMARK                            x       y       z     vdW  Elec       q    Type
REMARK                         _______ _______ _______ _____ _____    ______ ____
ROOT
ATOM      1  C   UNL     1       6.099   1.368  -2.831  0.00  0.00    +0.193 C 
ENDROOT
BRANCH   1   2
ATOM      2  C   UNL     1       5.410   2.577  -3.408  0.00  0.00    -0.015 A 
ATOM      3  C   UNL     1       6.154   3.572  -4.017  0.00  0.00    +0.006 A 
ATOM      4  C   UNL     1       5.524   4.683  -4.546  0.00  0.00    +0.004 A 
ATOM      5  C   UNL     1       4.150   4.803  -4.468  0.00  0.00    +0.045 A 
ATOM      6  C   UNL     1       3.402   3.807  -3.858  0.00  0.00    +0.117 A 
ATOM      7  C   UNL     1       4.035   2.690  -3.333  0.00  0.00    +0.051 A 
BRANCH   6   8
ATOM      8  O   UNL     1       2.050   3.922  -3.780  0.00  0.00    -0.507 OA
ATOM      9  H   UNL     1       1.579   3.541  -4.533  0.00  0.00    +0.292 HD
ENDBRANCH   6   8
ENDBRANCH   1   2
BRANCH   1  11
ATOM     10  N   UNL     1       5.481   1.821  -0.479  0.00  0.00    -0.308 N 
ATOM     11  C   UNL     1       6.455   1.631  -1.391  0.00  0.00    +0.239 C 
ATOM     12  O   UNL     1       7.619   1.673  -1.051  0.00  0.00    -0.273 OA
ATOM     13  H   UNL     1       4.550   1.788  -0.751  0.00  0.00    +0.149 HD
BRANCH  10  14
ATOM     14  C   UNL     1       5.827   2.077   0.921  0.00  0.00    +0.030 C 
ATOM     15  C   UNL     1       6.867   3.197   0.992  0.00  0.00    +0.031 C 
ATOM     16  C   UNL     1       6.403   0.805   1.545  0.00  0.00    +0.031 C 
BRANCH  14  17
ATOM     17  C   UNL     1       4.571   2.498   1.688  0.00  0.00    +0.031 C 
BRANCH  17  19
ATOM     18  C   UNL     1       3.070   2.844  -0.279  0.00  0.00    +0.010 C 
ATOM     19  C   UNL     1       3.800   3.538   0.873  0.00  0.00    -0.036 C 
ATOM     20  C   UNL     1       4.777   4.571   0.308  0.00  0.00    +0.010 C 
ATOM     21  C   UNL     1       2.781   4.238   1.773  0.00  0.00    +0.010 C 
ENDBRANCH  17  19
ENDBRANCH  14  17
ENDBRANCH  10  14
ENDBRANCH   1  11
BRANCH   1  22
ATOM     22  N   UNL     1       7.320   1.092  -3.593  0.00  0.00    -0.277 N 
ATOM     23  C   UNL     1       8.411   1.864  -3.421  0.00  0.00    +0.252 C 
ATOM     24  O   UNL     1       8.447   2.671  -2.512  0.00  0.00    -0.270 OA
BRANCH  23  25
ATOM     25  C   UNL     1       9.560   1.731  -4.337  0.00  0.00    +0.086 A 
ATOM     26  C   UNL     1       9.650   0.634  -5.197  0.00  0.00    +0.049 A 
ATOM     27  C   UNL     1      10.726   0.516  -6.049  0.00  0.00    +0.127 A 
ATOM     28  C   UNL     1      11.721   1.480  -6.057  0.00  0.00    +0.036 A 
ATOM     29  C   UNL     1      11.645   2.569  -5.212  0.00  0.00    +0.054 A 
ATOM     30  C   UNL     1      10.566   2.707  -4.351  0.00  0.00    +0.191 A 
ATOM     31  O   UNL     1      10.486   3.780  -3.524  0.00  0.00    -0.287 OA
BRANCH  27  32
ATOM     32  N   UNL     1      10.820  -0.647  -6.960  0.00  0.00    +0.056 N 
ATOM     33  O   UNL     1      10.003  -1.535  -6.893  0.00  0.00    -0.126 OA
ATOM     34  O   UNL     1      11.714  -0.708  -7.772  0.00  0.00    -0.126 OA
ENDBRANCH  27  32
ENDBRANCH  23  25
BRANCH  22  35
ATOM     35  C   UNL     1       7.354  -0.024  -4.542  0.00  0.00    +0.030 C 
ATOM     36  C   UNL     1       5.997  -0.731  -4.547  0.00  0.00    +0.031 C 
ATOM     37  C   UNL     1       7.658   0.508  -5.944  0.00  0.00    +0.031 C 
ATOM     38  C   UNL     1       8.444  -1.014  -4.125  0.00  0.00    +0.031 C 
ENDBRANCH  22  35
ENDBRANCH   1  22
TORSDOF 10
