REMARK  Name = ZINC03838326
REMARK  8 active torsions:
REMARK  status: ('A' for Active; 'I' for Inactive)
REMARK    1  A    between atoms: C_1  and  O_2
REMARK    2  A    between atoms: O_2  and  C_3
REMARK    3  A    between atoms: C_17  and  C_18
REMARK    4  A    between atoms: C_17  and  N_69
REMARK    5  A    between atoms: C_18  and  C_19
REMARK    6  A    between atoms: C_19  and  C_20
REMARK    7  A    between atoms: C_20  and  N_21
REMARK    8  A    between atoms: C_31  and  C_33
REMARK                            x       y       z     vdW  Elec       q    Type
REMARK                         _______ _______ _______ _____ _____    ______ ____
ROOT
ATOM      1  N   UNL     1      -0.713   7.989   0.051  0.00  0.00    -0.260 N 
ATOM      2  C   UNL     1      -1.736   7.106   0.057  0.00  0.00    +0.271 A 
ATOM      3  O   UNL     1      -2.889   7.497   0.069  0.00  0.00    -0.266 OA
ATOM      4  C   UNL     1      -1.449   5.727   0.047  0.00  0.00    +0.104 A 
ATOM      5  C   UNL     1      -0.147   5.262   0.032  0.00  0.00    +0.091 A 
ATOM      6  C   UNL     1       0.025   3.804   0.023  0.00  0.00    +0.121 A 
ATOM      7  C   UNL     1      -1.165   3.044   0.030  0.00  0.00    +0.129 A 
ATOM      8  S   UNL     1      -2.453   4.266   0.049  0.00  0.00    -0.060 S 
ATOM      9  N   UNL     1      -1.161   1.727   0.017  0.00  0.00    -0.244 NA
ATOM     10  C   UNL     1      -0.013   1.076   0.008  0.00  0.00    +0.140 A 
ATOM     11  C   UNL     1       1.187   1.799   0.000  0.00  0.00    +0.090 A 
ATOM     12  N   UNL     1       1.186   3.118   0.008  0.00  0.00    -0.241 NA
ATOM     13  N   UNL     1       0.860   6.239   0.028  0.00  0.00    -0.305 N 
ATOM     14  H   UNL     1       1.819   5.957   0.018  0.00  0.00    +0.170 HD
ATOM     15  C   UNL     1       0.556   7.544   0.037  0.00  0.00    +0.330 A 
ATOM     16  O   UNL     1       1.461   8.356   0.033  0.00  0.00    -0.246 OA
ENDROOT
BRANCH  11  17
ATOM     17  C   UNL     1       2.478   1.070  -0.016  0.00  0.00    +0.002 A 
ATOM     18  C   UNL     1       3.679   1.772   0.076  0.00  0.00    +0.010 A 
ATOM     19  C   UNL     1       4.877   1.088   0.066  0.00  0.00    +0.001 A 
ATOM     20  C   UNL     1       4.889  -0.291  -0.046  0.00  0.00    +0.000 A 
ATOM     21  C   UNL     1       3.700  -0.992  -0.143  0.00  0.00    +0.001 A 
ATOM     22  C   UNL     1       2.496  -0.319  -0.129  0.00  0.00    +0.010 A 
ENDBRANCH  11  17
BRANCH   1  23
ATOM     23  C   UNL     1      -0.986   9.428   0.061  0.00  0.00    +0.130 C 
BRANCH  23  24
ATOM     24  C   UNL     1      -1.094   9.936  -1.378  0.00  0.00    +0.020 C 
BRANCH  24  25
ATOM     25  C   UNL     1      -1.379  11.439  -1.369  0.00  0.00    -0.017 C 
BRANCH  25  26
ATOM     26  C   UNL     1      -1.488  11.947  -2.808  0.00  0.00    -0.079 C 
BRANCH  26  39
ATOM     27  C   UNL     1      -2.248  16.037  -6.462  0.00  0.00    +0.127 A 
ATOM     28  C   UNL     1      -2.588  16.293  -7.780  0.00  0.00    +0.046 A 
ATOM     29  C   UNL     1      -3.794  15.845  -8.283  0.00  0.00    +0.007 A 
ATOM     30  C   UNL     1      -4.659  15.141  -7.469  0.00  0.00    +0.046 A 
ATOM     31  C   UNL     1      -4.321  14.882  -6.146  0.00  0.00    +0.127 A 
ATOM     32  C   UNL     1      -3.115  15.329  -5.635  0.00  0.00    +0.037 A 
ATOM     33  C   UNL     1      -2.706  15.074  -4.216  0.00  0.00    +0.014 C 
ATOM     34  C   UNL     1      -1.637  13.962  -4.157  0.00  0.00    -0.070 C 
ATOM     35  C   UNL     1      -3.119  13.667  -2.294  0.00  0.00    -0.072 C 
ATOM     36  C   UNL     1      -3.858  14.476  -3.384  0.00  0.00    +0.016 C 
ATOM     37  C   UNL     1      -4.652  13.493  -4.248  0.00  0.00    +0.231 C 
ATOM     38  O   UNL     1      -5.194  14.184  -5.372  0.00  0.00    -0.491 OA
ATOM     39  N   UNL     1      -1.757  13.409  -2.795  0.00  0.00    +0.380 N 
ATOM     40  H   UNL     1      -1.075  13.870  -2.180  0.00  0.00    -0.082 HD
BRANCH  27  42
ATOM     41  C   UNL     1      -0.216  17.202  -6.872  0.00  0.00    +0.277 C 
ATOM     42  O   UNL     1      -1.060  16.481  -5.972  0.00  0.00    -0.495 OA
ENDBRANCH  27  42
ENDBRANCH  26  39
ENDBRANCH  25  26
ENDBRANCH  24  25
ENDBRANCH  23  24
ENDBRANCH   1  23
TORSDOF 7
