REMARK  Name = ZINC15314432
REMARK  5 active torsions:
REMARK  status: ('A' for Active; 'I' for Inactive)
REMARK    1  A    between atoms: C_1  and  C_2
REMARK    2  A    between atoms: C_2  and  C_4
REMARK    3  A    between atoms: C_2  and  N_14
REMARK    4  A    between atoms: C_15  and  C_17
REMARK    5  A    between atoms: C_17  and  C_18
REMARK                            x       y       z     vdW  Elec       q    Type
REMARK                         _______ _______ _______ _____ _____    ______ ____
ROOT
ATOM      1  N   UNL     1       1.356   2.033   0.000  0.00  0.00    -0.312 N 
ATOM      2  C   UNL     1       2.012   2.177  -1.168  0.00  0.00    +0.219 C 
ATOM      3  O   UNL     1       1.465   1.887  -2.211  0.00  0.00    -0.275 OA
ATOM      4  H   UNL     1       1.793   2.265   0.834  0.00  0.00    +0.149 HD
ENDROOT
BRANCH   1   6
ATOM      5  C   UNL     1       0.002  -0.004   0.002  0.00  0.00    +0.028 C 
ATOM      6  C   UNL     1      -0.019   1.526   0.010  0.00  0.00    +0.076 C 
BRANCH   6   7
ATOM      7  C   UNL     1      -0.735   2.019   1.269  0.00  0.00    -0.010 C 
ATOM      8  C   UNL     1      -0.756   3.549   1.278  0.00  0.00    +0.012 C 
ATOM      9  C   UNL     1      -1.472   4.042   2.536  0.00  0.00    -0.010 C 
ATOM     10  C   UNL     1      -2.907   3.513   2.547  0.00  0.00    +0.007 C 
ATOM     11  C   UNL     1      -2.886   1.983   2.539  0.00  0.00    -0.010 C 
ATOM     12  C   UNL     1      -2.170   1.490   1.280  0.00  0.00    +0.012 C 
ATOM     13  C   UNL     1      -2.146   1.476   3.778  0.00  0.00    +0.007 C 
ATOM     14  C   UNL     1      -0.711   2.006   3.768  0.00  0.00    -0.010 C 
ATOM     15  C   UNL     1      -0.732   3.536   3.776  0.00  0.00    +0.007 C 
ATOM     16  C   UNL     1       0.005   1.512   2.509  0.00  0.00    +0.012 C 
ENDBRANCH   6   7
ENDBRANCH   1   6
BRANCH   2  17
ATOM     17  C   UNL     1       3.426   2.699  -1.179  0.00  0.00    +0.152 C 
BRANCH  17  18
ATOM     18  C   UNL     1       3.926   2.764  -2.599  0.00  0.00    +0.069 A 
ATOM     19  C   UNL     1       4.423   3.853  -3.208  0.00  0.00    +0.117 A 
ATOM     20  N   UNL     1       4.772   3.491  -4.506  0.00  0.00    -0.300 N 
ATOM     21  C   UNL     1       5.314   4.081  -5.628  0.00  0.00    +0.100 A 
ATOM     22  C   UNL     1       5.502   3.378  -6.744  0.00  0.00    +0.067 A 
ATOM     23  S   UNL     1       4.904   1.764  -6.269  0.00  0.00    -0.058 S 
ATOM     24  C   UNL     1       4.444   2.164  -4.599  0.00  0.00    +0.178 A 
ATOM     25  N   UNL     1       3.947   1.745  -3.472  0.00  0.00    -0.226 NA
ENDBRANCH  17  18
ENDBRANCH   2  17
TORSDOF 4
