REMARK  Name = ZINC03205652
REMARK  9 active torsions:
REMARK  status: ('A' for Active; 'I' for Inactive)
REMARK    1  A    between atoms: C_1  and  C_2
REMARK    2  A    between atoms: C_2  and  N_3
REMARK    3  A    between atoms: N_3  and  C_4
REMARK    4  A    between atoms: N_3  and  P_6
REMARK    5  A    between atoms: C_4  and  C_5
REMARK    6  A    between atoms: C_9  and  N_64
REMARK    7  A    between atoms: C_11  and  C_22
REMARK    8  A    between atoms: C_11  and  C_23
REMARK    9  A    between atoms: N_15  and  C_16
REMARK                            x       y       z     vdW  Elec       q    Type
REMARK                         _______ _______ _______ _____ _____    ______ ____
ROOT
ATOM      1  P   UNL     1      -2.149   2.249   3.790  0.00  0.00    +0.124 P 
ATOM      2  S   UNL     1      -0.354   2.578   3.412  0.00  0.00    -0.024 S 
ATOM      3  C   UNL     1      -2.556   0.488   3.607  0.00  0.00    +0.052 C 
ATOM      4  C   UNL     1      -2.628  -0.321   2.568  0.00  0.00    +0.004 C 
ATOM      5  C   UNL     1      -3.144  -1.723   2.823  0.00  0.00    +0.060 C 
ATOM      6  C   UNL     1      -2.728  -2.223   4.201  0.00  0.00    -0.010 C 
ATOM      7  C   UNL     1      -2.997  -1.222   5.295  0.00  0.00    +0.005 C 
ATOM      8  C   UNL     1      -2.874   0.091   5.005  0.00  0.00    +0.054 C 
ATOM      9  N   UNL     1      -2.919   1.172   5.851  0.00  0.00    -0.259 N 
ATOM     10  N   UNL     1      -2.473   2.423   5.412  0.00  0.00    -0.209 N 
ATOM     11  C   UNL     1      -1.231  -2.543   4.184  0.00  0.00    +0.015 C 
ATOM     12  C   UNL     1      -3.501  -3.507   4.509  0.00  0.00    +0.015 C 
ATOM     13  H   UNL     1      -3.260   1.068   6.753  0.00  0.00    +0.171 HD
ENDROOT
BRANCH   4  19
ATOM     14  C   UNL     1      -0.849   0.392   0.999  0.00  0.00    +0.085 C 
ATOM     15  C   UNL     1      -0.424  -0.421  -0.228  0.00  0.00    +0.017 C 
ATOM     16  C   UNL     1      -1.391  -0.141  -1.381  0.00  0.00    +0.003 C 
ATOM     17  C   UNL     1      -2.803  -0.574  -0.980  0.00  0.00    +0.017 C 
ATOM     18  C   UNL     1      -3.255   0.238   0.238  0.00  0.00    +0.085 C 
ATOM     19  N   UNL     1      -2.307   0.435   1.399  0.00  0.00    -0.396 NA
ATOM     20  H   UNL     1      -2.462   1.406   1.692  0.00  0.00    +0.126 HD
ENDBRANCH   4  19
BRANCH  10  21
ATOM     21  C   UNL     1      -2.329   3.581   6.179  0.00  0.00    +0.054 A 
ATOM     22  C   UNL     1      -1.980   4.780   5.571  0.00  0.00    +0.025 A 
ATOM     23  C   UNL     1      -1.842   5.925   6.331  0.00  0.00    +0.002 A 
ATOM     24  C   UNL     1      -2.042   5.876   7.699  0.00  0.00    +0.000 A 
ATOM     25  C   UNL     1      -2.384   4.683   8.309  0.00  0.00    +0.002 A 
ATOM     26  C   UNL     1      -2.528   3.536   7.553  0.00  0.00    +0.025 A 
ENDBRANCH  10  21
BRANCH   1  27
ATOM     27  N   UNL     1      -3.160   3.215   2.853  0.00  0.00    -0.259 NA
BRANCH  27  29
ATOM     28  C   UNL     1      -1.648   4.343   1.291  0.00  0.00    +0.021 C 
ATOM     29  C   UNL     1      -2.707   3.251   1.456  0.00  0.00    +0.087 C 
ENDBRANCH  27  29
BRANCH  27  30
ATOM     30  C   UNL     1      -4.554   2.761   2.942  0.00  0.00    +0.087 C 
ATOM     31  C   UNL     1      -5.135   3.164   4.299  0.00  0.00    +0.021 C 
ENDBRANCH  27  30
ENDBRANCH   1  27
TORSDOF 5
