REMARK  Name = ZINC09881641
REMARK  9 active torsions:
REMARK  status: ('A' for Active; 'I' for Inactive)
REMARK    1  A    between atoms: C_1  and  C_2
REMARK    2  A    between atoms: C_8  and  N_10
REMARK    3  A    between atoms: C_11  and  C_13
REMARK    4  A    between atoms: C_13  and  C_15
REMARK    5  A    between atoms: C_13  and  S_16
REMARK    6  A    between atoms: S_16  and  C_17
REMARK    7  A    between atoms: C_20  and  C_29
REMARK    8  A    between atoms: N_21  and  C_22
REMARK    9  A    between atoms: C_29  and  N_66
REMARK                            x       y       z     vdW  Elec       q    Type
REMARK                         _______ _______ _______ _____ _____    ______ ____
ROOT
ATOM      1  C   UNL     1       1.739   1.909  -7.208  0.00  0.00    +0.197 A 
ATOM      2  N   UNL     1       2.092   0.645  -7.232  0.00  0.00    -0.122 NA
ATOM      3  N   UNL     1       2.775   0.402  -8.294  0.00  0.00    -0.135 NA
ATOM      4  C   UNL     1       2.898   1.486  -9.006  0.00  0.00    +0.122 A 
ATOM      5  N   UNL     1       2.238   2.486  -8.343  0.00  0.00    -0.276 N 
ENDROOT
BRANCH   5   6
ATOM      6  C   UNL     1       2.104   3.824  -8.743  0.00  0.00    +0.050 A 
ATOM      7  C   UNL     1       1.395   4.138  -9.894  0.00  0.00    +0.029 A 
ATOM      8  C   UNL     1       1.259   5.456 -10.284  0.00  0.00    +0.040 A 
ATOM      9  C   UNL     1       1.841   6.464  -9.533  0.00  0.00    +0.124 A 
ATOM     10  C   UNL     1       2.554   6.152  -8.388  0.00  0.00    +0.040 A 
ATOM     11  C   UNL     1       2.687   4.836  -7.992  0.00  0.00    +0.029 A 
ATOM     12  F   UNL     1       1.712   7.752  -9.918  0.00  0.00    -0.205 F 
ENDBRANCH   5   6
BRANCH   1  13
ATOM     13  S   UNL     1       0.794   2.709  -5.954  0.00  0.00    -0.073 S 
BRANCH  13  14
ATOM     14  C   UNL     1       0.515   1.316  -4.833  0.00  0.00    +0.137 C 
ATOM     15  C   UNL     1      -0.348   0.264  -5.532  0.00  0.00    +0.029 C 
BRANCH  14  17
ATOM     16  N   UNL     1      -0.067   1.120  -2.437  0.00  0.00    -0.311 N 
ATOM     17  C   UNL     1      -0.190   1.802  -3.593  0.00  0.00    +0.226 C 
ATOM     18  O   UNL     1      -0.868   2.806  -3.636  0.00  0.00    -0.275 OA
ATOM     19  H   UNL     1       0.476   0.317  -2.403  0.00  0.00    +0.149 HD
BRANCH  16  26
ATOM     20  C   UNL     1       1.423   1.615  -0.003  0.00  0.00    +0.009 C 
ATOM     21  C   UNL     1      -0.013   1.086   0.008  0.00  0.00    +0.006 C 
ATOM     22  C   UNL     1      -0.729   1.579   1.267  0.00  0.00    +0.005 C 
ATOM     23  C   UNL     1      -2.164   1.050   1.278  0.00  0.00    +0.000 C 
ATOM     24  C   UNL     1      -2.904   1.556   0.038  0.00  0.00    +0.002 C 
ATOM     25  C   UNL     1      -2.188   1.063  -1.221  0.00  0.00    +0.022 C 
ATOM     26  C   UNL     1      -0.753   1.593  -1.232  0.00  0.00    +0.076 C 
ENDBRANCH  16  26
ENDBRANCH  14  17
ENDBRANCH  13  14
ENDBRANCH   1  13
BRANCH   4  27
ATOM     27  C   UNL     1       3.627   1.614 -10.319  0.00  0.00    -0.001 C 
BRANCH  27  33
ATOM     28  C   UNL     1       2.249  -0.056 -11.402  0.00  0.00    -0.078 C 
ATOM     29  C   UNL     1       1.176  -0.265 -12.473  0.00  0.00    -0.019 C 
ATOM     30  C   UNL     1       1.758   0.083 -13.846  0.00  0.00    -0.004 C 
ATOM     31  C   UNL     1       2.261   1.528 -13.827  0.00  0.00    -0.019 C 
ATOM     32  C   UNL     1       3.303   1.686 -12.717  0.00  0.00    -0.078 C 
ATOM     33  N   UNL     1       2.674   1.360 -11.419  0.00  0.00    +0.384 N 
ATOM     34  H   UNL     1       1.849   1.957 -11.289  0.00  0.00    -0.081 HD
ENDBRANCH  27  33
ENDBRANCH   4  27
TORSDOF 7
