REMARK  Name = ZINC48332274
REMARK  7 active torsions:
REMARK  status: ('A' for Active; 'I' for Inactive)
REMARK    1  A    between atoms: C_4  and  N_7
REMARK    2  A    between atoms: C_10  and  C_12
REMARK    3  A    between atoms: C_12  and  N_13
REMARK    4  A    between atoms: C_14  and  C_16
REMARK    5  A    between atoms: N_21  and  C_23
REMARK    6  A    between atoms: C_23  and  C_24
REMARK    7  A    between atoms: N_27  and  C_29
REMARK                            x       y       z     vdW  Elec       q    Type
REMARK                         _______ _______ _______ _____ _____    ______ ____
ROOT
ATOM      1  C   UNL     1       8.429  -2.504  -4.310  0.00  0.00    +0.101 C 
ATOM      2  C   UNL     1       8.103  -4.010  -4.181  0.00  0.00    +0.110 C 
ATOM      3  C   UNL     1       9.030  -4.677  -5.173  0.00  0.00    +0.217 C 
ATOM      4  O   UNL     1       8.906  -5.811  -5.586  0.00  0.00    -0.276 OA
ATOM      5  N   UNL     1      10.011  -3.830  -5.531  0.00  0.00    -0.295 N 
ATOM      6  C   UNL     1       9.878  -2.539  -4.844  0.00  0.00    +0.121 C 
ENDROOT
BRANCH   1   8
ATOM      7  N   UNL     1       7.193  -1.745  -2.306  0.00  0.00    -0.309 N 
ATOM      8  C   UNL     1       8.365  -1.821  -2.969  0.00  0.00    +0.218 C 
ATOM      9  O   UNL     1       9.367  -1.340  -2.485  0.00  0.00    -0.275 OA
ATOM     10  H   UNL     1       6.391  -2.130  -2.693  0.00  0.00    +0.149 HD
BRANCH   7  11
ATOM     11  C   UNL     1       7.131  -1.081  -1.002  0.00  0.00    +0.161 C 
BRANCH  11  15
ATOM     12  N   UNL     1       3.624  -0.652  -0.037  0.00  0.00    -0.236 N 
ATOM     13  C   UNL     1       3.888  -1.830   0.578  0.00  0.00    +0.048 A 
ATOM     14  C   UNL     1       5.175  -2.149   0.320  0.00  0.00    -0.002 A 
ATOM     15  C   UNL     1       5.719  -1.133  -0.479  0.00  0.00    +0.084 A 
ATOM     16  N   UNL     1       4.788  -0.240  -0.697  0.00  0.00    -0.169 NA
ATOM     17  C   UNL     1       5.532  -3.462   0.983  0.00  0.00    +0.039 C 
ATOM     18  C   UNL     1       4.426  -3.693   2.035  0.00  0.00    +0.011 C 
ATOM     19  C   UNL     1       3.245  -2.894   1.440  0.00  0.00    +0.056 C 
BRANCH  12  23
ATOM     20  C   UNL     1      -0.017   1.379   0.010  0.00  0.00    +0.000 A 
ATOM     21  C   UNL     1       1.170   2.089   0.002  0.00  0.00    +0.002 A 
ATOM     22  C   UNL     1       2.377   1.419  -0.013  0.00  0.00    +0.028 A 
ATOM     23  C   UNL     1       2.399   0.031  -0.021  0.00  0.00    +0.066 A 
ATOM     24  C   UNL     1       1.207  -0.680  -0.013  0.00  0.00    +0.028 A 
ATOM     25  C   UNL     1       0.002  -0.004   0.002  0.00  0.00    +0.002 A 
ENDBRANCH  12  23
ENDBRANCH  11  15
ENDBRANCH   7  11
ENDBRANCH   1   8
BRANCH   5  26
ATOM     26  C   UNL     1      11.075  -4.153  -6.485  0.00  0.00    +0.165 C 
BRANCH  26  27
ATOM     27  C   UNL     1      10.633  -3.779  -7.876  0.00  0.00    +0.084 A 
ATOM     28  C   UNL     1       9.947  -4.612  -8.772  0.00  0.00    -0.002 A 
ATOM     29  C   UNL     1       9.732  -3.912  -9.908  0.00  0.00    +0.048 A 
ATOM     30  N   UNL     1      10.265  -2.678  -9.738  0.00  0.00    -0.236 N 
ATOM     31  N   UNL     1      10.818  -2.620  -8.453  0.00  0.00    -0.169 NA
ATOM     32  C   UNL     1       8.993  -4.762 -10.917  0.00  0.00    +0.056 C 
ATOM     33  C   UNL     1       9.159  -6.213 -10.415  0.00  0.00    +0.011 C 
ATOM     34  C   UNL     1       9.372  -6.006  -8.900  0.00  0.00    +0.039 C 
BRANCH  30  35
ATOM     35  C   UNL     1      10.258  -1.639 -10.680  0.00  0.00    +0.066 A 
ATOM     36  C   UNL     1      10.368  -1.928 -12.034  0.00  0.00    +0.028 A 
ATOM     37  C   UNL     1      10.361  -0.903 -12.960  0.00  0.00    +0.002 A 
ATOM     38  C   UNL     1      10.245   0.409 -12.540  0.00  0.00    +0.000 A 
ATOM     39  C   UNL     1      10.135   0.700 -11.192  0.00  0.00    +0.002 A 
ATOM     40  C   UNL     1      10.135  -0.321 -10.262  0.00  0.00    +0.028 A 
ENDBRANCH  30  35
ENDBRANCH  26  27
ENDBRANCH   5  26
TORSDOF 7
