REMARK  Name = ZINC13471190
REMARK  6 active torsions:
REMARK  status: ('A' for Active; 'I' for Inactive)
REMARK    1  A    between atoms: C_1  and  C_2
REMARK    2  A    between atoms: C_2  and  C_3
REMARK    3  A    between atoms: C_6  and  N_9
REMARK    4  A    between atoms: N_11  and  C_12
REMARK    5  A    between atoms: N_21  and  C_22
REMARK    6  A    between atoms: C_22  and  C_23
REMARK                            x       y       z     vdW  Elec       q    Type
REMARK                         _______ _______ _______ _____ _____    ______ ____
ROOT
ATOM      1  C   UNL     1      -8.182  -2.739  -2.283  0.00  0.00    +0.078 C 
ATOM      2  C   UNL     1      -8.042  -4.188  -2.759  0.00  0.00    +0.009 C 
ATOM      3  C   UNL     1      -8.705  -5.117  -1.729  0.00  0.00    -0.066 C 
ATOM      4  C   UNL     1      -8.194  -4.710  -0.328  0.00  0.00    -0.017 C 
ATOM      5  C   UNL     1      -9.176  -3.620   0.150  0.00  0.00    -0.017 C 
ATOM      6  C   UNL     1     -10.191  -3.467  -1.006  0.00  0.00    -0.066 C 
ATOM      7  C   UNL     1      -9.655  -2.427  -2.003  0.00  0.00    +0.009 C 
ATOM      8  N   UNL     1     -10.156  -4.792  -1.713  0.00  0.00    +0.388 N 
ATOM      9  H   UNL     1     -10.514  -4.716  -2.653  0.00  0.00    -0.080 HD
ENDROOT
BRANCH   1  12
ATOM     10  N   UNL     1      -5.690  -1.432   0.135  0.00  0.00    -0.295 N 
ATOM     11  C   UNL     1      -6.417  -1.607  -1.011  0.00  0.00    +0.143 C 
ATOM     12  N   UNL     1      -7.403  -2.552  -1.056  0.00  0.00    -0.364 N 
ATOM     13  S   UNL     1      -6.102  -0.671  -2.345  0.00  0.00    -0.016 SA
ATOM     14  H   UNL     1      -5.597  -2.162   0.766  0.00  0.00    +0.154 HD
ATOM     15  H   UNL     1      -7.587  -3.099  -0.277  0.00  0.00    +0.162 HD
BRANCH  10  19
ATOM     16  C   UNL     1      -3.873   2.236   0.909  0.00  0.00    -0.048 A 
ATOM     17  C   UNL     1      -5.092   2.194   0.257  0.00  0.00    +0.005 A 
ATOM     18  C   UNL     1      -5.697   0.979  -0.001  0.00  0.00    +0.023 A 
ATOM     19  C   UNL     1      -5.079  -0.200   0.394  0.00  0.00    +0.033 A 
ATOM     20  C   UNL     1      -3.855  -0.154   1.049  0.00  0.00    +0.023 A 
ATOM     21  C   UNL     1      -3.253   1.063   1.299  0.00  0.00    +0.005 A 
BRANCH  16  23
ATOM     22  C   UNL     1      -2.317   3.945   0.011  0.00  0.00    +0.009 C 
ATOM     23  C   UNL     1      -3.215   3.563   1.189  0.00  0.00    +0.032 C 
ENDBRANCH  16  23
ENDBRANCH  10  19
ENDBRANCH   1  12
BRANCH   8  24
ATOM     24  C   UNL     1     -10.904  -5.803  -0.953  0.00  0.00    -0.002 C 
BRANCH  24  25
ATOM     25  C   UNL     1     -12.380  -5.518  -1.056  0.00  0.00    +0.089 A 
ATOM     26  C   UNL     1     -13.211  -6.000  -1.998  0.00  0.00    +0.042 A 
ATOM     27  C   UNL     1     -14.496  -5.482  -1.715  0.00  0.00    +0.041 A 
ATOM     28  C   UNL     1     -14.373  -4.714  -0.618  0.00  0.00    +0.195 A 
ATOM     29  O   UNL     1     -13.091  -4.745  -0.219  0.00  0.00    -0.470 OA
ENDBRANCH  24  25
ENDBRANCH   8  24
TORSDOF 5
