REMARK  Name = ZINC14165429
REMARK  4 active torsions:
REMARK  status: ('A' for Active; 'I' for Inactive)
REMARK    1  A    between atoms: C_4  and  N_24
REMARK    2  A    between atoms: C_5  and  N_7
REMARK    3  A    between atoms: C_8  and  C_10
REMARK    4  A    between atoms: C_10  and  C_11
REMARK                            x       y       z     vdW  Elec       q    Type
REMARK                         _______ _______ _______ _____ _____    ______ ____
ROOT
ATOM      1  C   UNL     1      -4.973   3.129   0.021  0.00  0.00    +0.089 C 
ENDROOT
BRANCH   1   2
ATOM      2  C   UNL     1      -5.958   1.965   0.150  0.00  0.00    +0.025 C 
ATOM      3  C   UNL     1      -7.355   2.467  -0.080  0.00  0.00    +0.200 C 
ATOM      4  O   UNL     1      -7.551   3.242  -0.992  0.00  0.00    -0.278 OA
ATOM      5  N   UNL     1      -8.392   2.095   0.681  0.00  0.00    -0.315 N 
ATOM      6  C   UNL     1      -8.244   1.203   1.824  0.00  0.00    +0.059 C 
ATOM      7  C   UNL     1      -9.437   0.261   1.938  0.00  0.00    +0.020 C 
ATOM      8  C   UNL     1      -9.485  -0.671   0.726  0.00  0.00    +0.002 C 
ATOM      9  C   UNL     1      -8.189  -1.484   0.666  0.00  0.00    -0.001 C 
ATOM     10  C   UNL     1      -7.004  -0.531   0.513  0.00  0.00    -0.014 C 
ATOM     11  C   UNL     1      -6.939   0.415   1.715  0.00  0.00    -0.050 C 
ATOM     12  H   UNL     1      -9.275   2.433   0.464  0.00  0.00    +0.149 HD
ATOM     13  N   UNL     1      -5.843   1.380   1.495  0.00  0.00    +0.390 N 
ATOM     14  H   UNL     1      -5.899   2.127   2.198  0.00  0.00    -0.084 HD
ATOM     15  H   UNL     1      -4.941   0.897   1.581  0.00  0.00    -0.084 HD
ENDBRANCH   1   2
BRANCH   1  17
ATOM     16  N   UNL     1      -2.522   3.459   0.033  0.00  0.00    -0.284 N 
ATOM     17  C   UNL     1      -3.563   2.607   0.121  0.00  0.00    +0.216 C 
ATOM     18  O   UNL     1      -3.365   1.422   0.280  0.00  0.00    -0.276 OA
ATOM     19  H   UNL     1      -2.680   4.415  -0.014  0.00  0.00    +0.155 HD
BRANCH  16  24
ATOM     20  C   UNL     1       0.453   1.458   0.852  0.00  0.00    +0.002 A 
ATOM     21  C   UNL     1       1.375   1.986  -0.034  0.00  0.00    +0.002 A 
ATOM     22  C   UNL     1       1.006   3.001  -0.897  0.00  0.00    +0.034 A 
ATOM     23  C   UNL     1      -0.285   3.492  -0.877  0.00  0.00    +0.147 A 
ATOM     24  C   UNL     1      -1.213   2.964   0.011  0.00  0.00    +0.064 A 
ATOM     25  C   UNL     1      -0.841   1.941   0.873  0.00  0.00    +0.025 A 
BRANCH  23  26
ATOM     26  N   UNL     1      -0.679   4.579  -1.802  0.00  0.00    +0.058 N 
ATOM     27  O   UNL     1       0.143   5.062  -2.559  0.00  0.00    -0.126 OA
ATOM     28  O   UNL     1      -1.825   4.991  -1.804  0.00  0.00    -0.126 OA
ENDBRANCH  23  26
ENDBRANCH  16  24
ENDBRANCH   1  17
TORSDOF 4
