REMARK  Name = ZINC30346915
REMARK  6 active torsions:
REMARK  status: ('A' for Active; 'I' for Inactive)
REMARK    1  A    between atoms: C_6  and  C_7
REMARK    2  A    between atoms: C_13  and  C_15
REMARK    3  A    between atoms: C_15  and  S_16
REMARK    4  A    between atoms: S_16  and  C_17
REMARK    5  A    between atoms: N_21  and  C_22
REMARK    6  A    between atoms: C_22  and  C_23
REMARK                            x       y       z     vdW  Elec       q    Type
REMARK                         _______ _______ _______ _____ _____    ______ ____
ROOT
ATOM      1  C   UNL     1      -8.595  -1.343   4.333  0.00  0.00    +0.106 C 
ATOM      2  C   UNL     1      -9.655  -1.024   5.409  0.00  0.00    +0.029 C 
ATOM      3  C   UNL     1      -8.799  -0.518   6.600  0.00  0.00    +0.021 C 
ATOM      4  C   UNL     1      -7.660   0.234   5.871  0.00  0.00    +0.108 C 
ATOM      5  N   UNL     1      -7.392  -0.565   4.661  0.00  0.00    -0.294 N 
ATOM      6  C   UNL     1      -6.234  -0.582   3.972  0.00  0.00    +0.226 C 
ATOM      7  O   UNL     1      -6.123  -1.284   2.990  0.00  0.00    -0.275 OA
ENDROOT
BRANCH   1  13
ATOM      8  C   UNL     1      -9.076   0.381   2.585  0.00  0.00    +0.009 A 
ATOM      9  C   UNL     1      -9.543   0.750   1.337  0.00  0.00    +0.050 A 
ATOM     10  C   UNL     1     -10.056  -0.208   0.477  0.00  0.00    +0.162 A 
ATOM     11  C   UNL     1     -10.092  -1.542   0.869  0.00  0.00    +0.162 A 
ATOM     12  C   UNL     1      -9.618  -1.905   2.120  0.00  0.00    +0.055 A 
ATOM     13  C   UNL     1      -9.109  -0.945   2.974  0.00  0.00    -0.023 A 
ATOM     14  O   UNL     1     -10.584  -2.499   0.036  0.00  0.00    -0.485 OA
ATOM     15  C   UNL     1     -11.391  -2.049  -1.058  0.00  0.00    +0.270 C 
ATOM     16  C   UNL     1     -10.680  -0.862  -1.723  0.00  0.00    +0.270 C 
ATOM     17  O   UNL     1     -10.522   0.171  -0.744  0.00  0.00    -0.485 OA
ENDBRANCH   1  13
BRANCH   6  18
ATOM     18  C   UNL     1      -5.076   0.271   4.423  0.00  0.00    +0.173 C 
BRANCH  18  19
ATOM     19  S   UNL     1      -3.676   0.029   3.302  0.00  0.00    -0.075 S 
BRANCH  19  20
ATOM     20  C   UNL     1      -2.500   1.112   4.043  0.00  0.00    +0.210 A 
ATOM     21  N   UNL     1      -2.685   1.851   5.116  0.00  0.00    -0.102 NA
ATOM     22  N   UNL     1      -1.625   2.523   5.387  0.00  0.00    -0.022 NA
ATOM     23  N   UNL     1      -0.699   2.266   4.529  0.00  0.00    -0.043 NA
ATOM     24  N   UNL     1      -1.235   1.341   3.616  0.00  0.00    -0.218 N 
BRANCH  24  25
ATOM     25  C   UNL     1      -0.568   0.746   2.455  0.00  0.00    +0.179 C 
BRANCH  25  26
ATOM     26  C   UNL     1      -0.810   1.621   1.224  0.00  0.00    +0.140 C 
ATOM     27  C   UNL     1      -0.013   1.086   0.008  0.00  0.00    +0.035 C 
ATOM     28  C   UNL     1      -0.833   1.634  -1.185  0.00  0.00    +0.031 C 
ATOM     29  C   UNL     1      -2.223   1.924  -0.587  0.00  0.00    +0.160 C 
ATOM     30  O   UNL     1      -2.186   1.524   0.793  0.00  0.00    -0.375 OA
ENDBRANCH  25  26
ENDBRANCH  24  25
ENDBRANCH  19  20
ENDBRANCH  18  19
ENDBRANCH   6  18
TORSDOF 6
