REMARK  Name = ZINC10818750
REMARK  12 active torsions:
REMARK  status: ('A' for Active; 'I' for Inactive)
REMARK    1  A    between atoms: C_1  and  C_2
REMARK    2  A    between atoms: C_2  and  N_60
REMARK    3  A    between atoms: C_3  and  C_4
REMARK    4  A    between atoms: C_3  and  N_60
REMARK    5  A    between atoms: C_5  and  C_6
REMARK    6  A    between atoms: C_5  and  N_60
REMARK    7  A    between atoms: C_6  and  N_7
REMARK    8  A    between atoms: C_13  and  S_17
REMARK    9  A    between atoms: S_17  and  C_20
REMARK   10  A    between atoms: C_21  and  C_23
REMARK   11  A    between atoms: C_26  and  S_29
REMARK   12  A    between atoms: S_29  and  C_32
REMARK                            x       y       z     vdW  Elec       q    Type
REMARK                         _______ _______ _______ _____ _____    ______ ____
ROOT
ATOM      1  N   UNL     1      -0.055  -0.644  -0.707  0.00  0.00    -0.248 N 
ATOM      2  C   UNL     1      -0.598  -1.754  -0.083  0.00  0.00    +0.168 A 
ATOM      3  N   UNL     1      -0.329  -3.023  -0.281  0.00  0.00    -0.224 NA
ATOM      4  C   UNL     1      -0.941  -4.011   0.407  0.00  0.00    +0.080 A 
ATOM      5  C   UNL     1      -0.745  -5.407   0.292  0.00  0.00    +0.031 A 
ATOM      6  C   UNL     1      -1.455  -6.280   1.073  0.00  0.00    +0.029 A 
ATOM      7  C   UNL     1      -2.387  -5.832   1.999  0.00  0.00    +0.089 A 
ATOM      8  C   UNL     1      -2.604  -4.474   2.138  0.00  0.00    +0.044 A 
ATOM      9  C   UNL     1      -1.898  -3.591   1.360  0.00  0.00    +0.043 A 
ATOM     10  S   UNL     1      -1.838  -1.823   1.202  0.00  0.00    -0.052 S 
ATOM     11  C   UNL     1      -0.466   0.592  -0.361  0.00  0.00    +0.252 C 
ATOM     12  O   UNL     1      -1.344   0.731   0.468  0.00  0.00    -0.270 OA
ENDROOT
BRANCH  11  13
ATOM     13  C   UNL     1       0.145   1.779  -0.995  0.00  0.00    +0.037 A 
ATOM     14  C   UNL     1       1.495   1.766  -1.352  0.00  0.00    +0.015 A 
ATOM     15  C   UNL     1       2.059   2.875  -1.948  0.00  0.00    +0.027 A 
ATOM     16  C   UNL     1       1.292   4.003  -2.182  0.00  0.00    +0.088 A 
ATOM     17  C   UNL     1      -0.044   4.025  -1.825  0.00  0.00    +0.027 A 
ATOM     18  C   UNL     1      -0.622   2.921  -1.234  0.00  0.00    +0.015 A 
BRANCH  16  19
ATOM     19  S   UNL     1       2.022   5.418  -2.937  0.00  0.00    -0.006 S 
ATOM     20  O   UNL     1       3.105   4.904  -3.700  0.00  0.00    -0.170 OA
ATOM     21  O   UNL     1       0.941   6.086  -3.574  0.00  0.00    -0.170 OA
ATOM     22  C   UNL     1       2.647   6.414  -1.556  0.00  0.00    +0.200 C 
ENDBRANCH  16  19
ENDBRANCH  11  13
BRANCH   7  23
ATOM     23  S   UNL     1      -3.283  -6.983   2.988  0.00  0.00    -0.006 S 
ATOM     24  O   UNL     1      -2.443  -8.127   3.063  0.00  0.00    -0.170 OA
ATOM     25  O   UNL     1      -3.629  -6.260   4.162  0.00  0.00    -0.170 OA
ATOM     26  C   UNL     1      -4.773  -7.363   2.026  0.00  0.00    +0.200 C 
ENDBRANCH   7  23
BRANCH   1  27
ATOM     27  C   UNL     1       0.967  -0.812  -1.744  0.00  0.00    +0.097 C 
BRANCH  27  28
ATOM     28  C   UNL     1       2.207  -1.469  -1.135  0.00  0.00    -0.059 C 
BRANCH  28  29
ATOM     29  N   UNL     1       3.160  -1.780  -2.221  0.00  0.00    +0.380 N 
ATOM     30  H   UNL     1       2.638  -2.136  -3.030  0.00  0.00    -0.082 HD
BRANCH  29  32
ATOM     31  C   UNL     1       4.744  -0.041  -1.462  0.00  0.00    -0.017 C 
ATOM     32  C   UNL     1       3.888  -0.557  -2.620  0.00  0.00    -0.082 C 
ENDBRANCH  29  32
BRANCH  29  33
ATOM     33  C   UNL     1       4.116  -2.814  -1.774  0.00  0.00    -0.082 C 
ATOM     34  C   UNL     1       5.008  -3.207  -2.953  0.00  0.00    -0.017 C 
ENDBRANCH  29  33
ENDBRANCH  28  29
ENDBRANCH  27  28
ENDBRANCH   1  27
TORSDOF 8
