REMARK  Name = ZINC09501164
REMARK  7 active torsions:
REMARK  status: ('A' for Active; 'I' for Inactive)
REMARK    1  A    between atoms: C_4  and  C_7
REMARK    2  A    between atoms: C_7  and  S_8
REMARK    3  A    between atoms: S_8  and  N_11
REMARK    4  A    between atoms: C_16  and  C_17
REMARK    5  A    between atoms: C_16  and  N_60
REMARK    6  A    between atoms: C_20  and  C_30
REMARK    7  A    between atoms: C_23  and  C_25
REMARK                            x       y       z     vdW  Elec       q    Type
REMARK                         _______ _______ _______ _____ _____    ______ ____
ROOT
ATOM      1  C   UNL     1       8.781  -3.543   0.560  0.00  0.00    +0.021 C 
ENDROOT
BRANCH   1   7
ATOM      2  N   UNL     1       5.663  -1.799  -1.643  0.00  0.00    -0.184 NA
ATOM      3  C   UNL     1       6.937  -1.065  -1.598  0.00  0.00    +0.090 C 
ATOM      4  C   UNL     1       7.743  -1.573  -0.392  0.00  0.00    -0.061 C 
ATOM      5  C   UNL     1       6.559  -3.690  -0.392  0.00  0.00    -0.061 C 
ATOM      6  C   UNL     1       5.704  -3.268  -1.592  0.00  0.00    +0.090 C 
ATOM      7  N   UNL     1       7.884  -3.041  -0.502  0.00  0.00    +0.387 N 
ATOM      8  H   UNL     1       8.291  -3.269  -1.417  0.00  0.00    -0.081 HD
BRANCH   2   9
ATOM      9  S   UNL     1       4.221  -0.993  -1.756  0.00  0.00    +0.036 S 
ATOM     10  O   UNL     1       3.339  -1.913  -2.383  0.00  0.00    -0.158 OA
ATOM     11  O   UNL     1       4.544   0.241  -2.383  0.00  0.00    -0.158 OA
BRANCH   9  12
ATOM     12  C   UNL     1       3.711  -0.707  -0.039  0.00  0.00    +0.220 C 
BRANCH  12  16
ATOM     13  C   UNL     1      -0.017   1.378   0.010  0.00  0.00    +0.000 A 
ATOM     14  C   UNL     1       1.171   2.086   0.002  0.00  0.00    +0.000 A 
ATOM     15  C   UNL     1       2.377   1.411  -0.014  0.00  0.00    +0.005 A 
ATOM     16  C   UNL     1       2.396   0.029  -0.022  0.00  0.00    -0.025 A 
ATOM     17  C   UNL     1       1.208  -0.679  -0.014  0.00  0.00    +0.005 A 
ATOM     18  C   UNL     1       0.002  -0.004   0.002  0.00  0.00    +0.000 A 
ENDBRANCH  12  16
ENDBRANCH   9  12
ENDBRANCH   2   9
ENDBRANCH   1   7
BRANCH   1  19
ATOM     19  C   UNL     1      10.176  -3.038   0.296  0.00  0.00    +0.219 C 
ATOM     20  O   UNL     1      10.391  -2.324  -0.661  0.00  0.00    -0.276 OA
ATOM     21  N   UNL     1      11.184  -3.379   1.123  0.00  0.00    -0.184 N 
ATOM     22  C   UNL     1      12.588  -2.962   0.978  0.00  0.00    +0.172 C 
ATOM     23  C   UNL     1      13.289  -3.626   2.179  0.00  0.00    +0.090 C 
ATOM     24  C   UNL     1      12.178  -4.372   2.884  0.00  0.00    +0.075 C 
ATOM     25  N   UNL     1      11.068  -4.189   2.251  0.00  0.00    -0.180 NA
BRANCH  24  26
ATOM     26  C   UNL     1      12.338  -5.178   4.098  0.00  0.00    +0.035 A 
ATOM     27  C   UNL     1      11.383  -5.890   4.804  0.00  0.00    +0.017 A 
ATOM     28  C   UNL     1      11.780  -6.578   5.928  0.00  0.00    +0.008 A 
ATOM     29  C   UNL     1      13.084  -6.538   6.306  0.00  0.00    +0.046 A 
ATOM     30  S   UNL     1      13.814  -5.505   5.047  0.00  0.00    -0.095 S 
ENDBRANCH  24  26
BRANCH  22  31
ATOM     31  C   UNL     1      12.706  -1.462   1.061  0.00  0.00    +0.128 A 
ATOM     32  C   UNL     1      13.530  -0.696   0.324  0.00  0.00    +0.046 A 
ATOM     33  C   UNL     1      13.315   0.642   0.726  0.00  0.00    +0.041 A 
ATOM     34  C   UNL     1      12.372   0.614   1.685  0.00  0.00    +0.195 A 
ATOM     35  O   UNL     1      12.003  -0.662   1.880  0.00  0.00    -0.466 OA
ENDBRANCH  22  31
ENDBRANCH   1  19
TORSDOF 7
