REMARK  Name = ZINC20834080
REMARK  11 active torsions:
REMARK  status: ('A' for Active; 'I' for Inactive)
REMARK    1  A    between atoms: C_1  and  C_2
REMARK    2  A    between atoms: C_2  and  C_31
REMARK    3  A    between atoms: C_4  and  N_10
REMARK    4  A    between atoms: C_6  and  C_8
REMARK    5  A    between atoms: C_6  and  C_9
REMARK    6  A    between atoms: C_11  and  C_13
REMARK    7  A    between atoms: C_13  and  S_14
REMARK    8  A    between atoms: S_14  and  C_15
REMARK    9  A    between atoms: N_20  and  N_21
REMARK   10  A    between atoms: C_22  and  C_23
REMARK   11  A    between atoms: C_24  and  C_25
REMARK                            x       y       z     vdW  Elec       q    Type
REMARK                         _______ _______ _______ _____ _____    ______ ____
ROOT
ATOM      1  S   UNL     1      -0.296   7.783  -4.048  0.00  0.00    -0.075 S 
ENDROOT
BRANCH   1   2
ATOM      2  C   UNL     1      -0.237   9.526  -3.796  0.00  0.00    +0.211 A 
ATOM      3  N   UNL     1      -0.465  10.492  -4.740  0.00  0.00    -0.186 NA
ATOM      4  C   UNL     1      -0.309  11.689  -4.088  0.00  0.00    +0.232 A 
ATOM      5  N   UNL     1      -0.010  11.414  -2.843  0.00  0.00    -0.245 N 
ATOM      6  N   UNL     1       0.027  10.141  -2.669  0.00  0.00    -0.144 NA
ATOM      7  N   UNL     1      -0.444  12.953  -4.643  0.00  0.00    -0.205 N 
ATOM      8  H   UNL     1      -0.699  13.062  -5.707  0.00  0.00    +0.177 HD
ATOM      9  H   UNL     1       0.166  12.229  -2.126  0.00  0.00    +0.192 HD
BRANCH   7  10
ATOM     10  N   UNL     1      -0.254  14.090  -3.848  0.00  0.00    -0.188 NA
ATOM     11  C   UNL     1      -0.380  15.278  -4.370  0.00  0.00    +0.130 C 
BRANCH  11  12
ATOM     12  C   UNL     1      -0.188  16.429  -3.565  0.00  0.00    +0.022 C 
ATOM     13  C   UNL     1      -0.319  17.659  -4.105  0.00  0.00    +0.009 C 
BRANCH  13  14
ATOM     14  C   UNL     1      -0.120  18.854  -3.270  0.00  0.00    -0.025 A 
ATOM     15  C   UNL     1       0.200  18.720  -1.915  0.00  0.00    +0.008 A 
ATOM     16  C   UNL     1       0.391  19.844  -1.141  0.00  0.00    +0.001 A 
ATOM     17  C   UNL     1       0.255  21.104  -1.698  0.00  0.00    +0.000 A 
ATOM     18  C   UNL     1      -0.066  21.245  -3.037  0.00  0.00    +0.001 A 
ATOM     19  C   UNL     1      -0.255  20.131  -3.826  0.00  0.00    +0.008 A 
ENDBRANCH  13  14
ENDBRANCH  11  12
ENDBRANCH   7  10
ENDBRANCH   1   2
BRANCH   1  20
ATOM     20  C   UNL     1       0.105   7.210  -2.379  0.00  0.00    +0.173 C 
BRANCH  20  22
ATOM     21  N   UNL     1       0.389   5.051  -1.207  0.00  0.00    -0.312 N 
ATOM     22  C   UNL     1       0.113   5.703  -2.353  0.00  0.00    +0.224 C 
ATOM     23  O   UNL     1      -0.129   5.078  -3.364  0.00  0.00    -0.275 OA
ATOM     24  H   UNL     1       0.608   5.617  -0.290  0.00  0.00    +0.149 HD
BRANCH  21  28
ATOM     25  C   UNL     1      -0.944   0.975  -2.269  0.00  0.00    -0.010 C 
ATOM     26  C   UNL     1      -1.042   1.551  -0.852  0.00  0.00    -0.072 C 
ATOM     27  C   UNL     1      -1.022   3.076  -0.918  0.00  0.00    +0.009 C 
ATOM     28  C   UNL     1       0.396   3.583  -1.181  0.00  0.00    +0.070 C 
ATOM     29  C   UNL     1       1.298   3.104  -0.042  0.00  0.00    +0.009 C 
ATOM     30  C   UNL     1       1.320   1.577  -0.002  0.00  0.00    -0.072 C 
ATOM     31  N   UNL     1      -0.012   1.005   0.008  0.00  0.00    +0.386 N 
ATOM     32  C   UNL     1       2.035   1.156   1.301  0.00  0.00    -0.010 C 
ATOM     33  C   UNL     1       2.151   1.041  -1.172  0.00  0.00    -0.010 C 
ATOM     34  C   UNL     1      -2.415   1.129  -0.282  0.00  0.00    -0.010 C 
ATOM     35  H   UNL     1      -0.328   1.088   1.058  0.00  0.00    -0.084 HD
ATOM     36  H   UNL     1       0.152  -0.053  -0.244  0.00  0.00    -0.084 HD
ENDBRANCH  21  28
ENDBRANCH  20  22
ENDBRANCH   1  20
TORSDOF 7
