REMARK  Name = ZINC35491217
REMARK  13 active torsions:
REMARK  status: ('A' for Active; 'I' for Inactive)
REMARK    1  A    between atoms: C_1  and  C_2
REMARK    2  A    between atoms: C_2  and  C_3
REMARK    3  A    between atoms: C_3  and  C_5
REMARK    4  A    between atoms: C_3  and  C_6
REMARK    5  A    between atoms: C_6  and  C_8
REMARK    6  A    between atoms: C_6  and  N_20
REMARK    7  A    between atoms: C_10  and  C_13
REMARK    8  A    between atoms: C_21  and  C_23
REMARK    9  A    between atoms: C_23  and  C_24
REMARK   10  A    between atoms: C_24  and  C_25
REMARK   11  A    between atoms: C_25  and  C_26
REMARK   12  A    between atoms: C_26  and  C_27
REMARK   13  A    between atoms: C_27  and  N_28
REMARK                            x       y       z     vdW  Elec       q    Type
REMARK                         _______ _______ _______ _____ _____    ______ ____
ROOT
ATOM      1  C   UNL     1       0.630  -2.023  -1.329  0.00  0.00    +0.164 C 
ENDROOT
BRANCH   1   2
ATOM      2  C   UNL     1      -0.809  -2.436  -1.501  0.00  0.00    +0.248 A 
ATOM      3  N   UNL     1      -1.349  -2.871  -2.603  0.00  0.00    -0.190 NA
ATOM      4  C   UNL     1      -2.650  -3.148  -2.401  0.00  0.00    +0.202 A 
ATOM      5  N   UNL     1      -2.944  -2.886  -1.151  0.00  0.00    -0.056 NA
ATOM      6  O   UNL     1      -1.746  -2.423  -0.545  0.00  0.00    -0.336 OA
BRANCH   4   7
ATOM      7  C   UNL     1      -3.594  -3.663  -3.423  0.00  0.00    +0.023 A 
ATOM      8  C   UNL     1      -3.154  -3.907  -4.722  0.00  0.00    +0.013 A 
ATOM      9  C   UNL     1      -4.036  -4.386  -5.669  0.00  0.00    +0.016 A 
ATOM     10  C   UNL     1      -5.356  -4.625  -5.330  0.00  0.00    +0.018 A 
ATOM     11  C   UNL     1      -5.799  -4.384  -4.040  0.00  0.00    +0.016 A 
ATOM     12  C   UNL     1      -4.923  -3.911  -3.085  0.00  0.00    +0.013 A 
ATOM     13 BR   UNL     1      -6.560  -5.281  -6.632  0.00  0.00    -0.050 Br
ENDBRANCH   4   7
ENDBRANCH   1   2
BRANCH   1  14
ATOM     14  N   UNL     1       1.159  -2.602  -0.091  0.00  0.00    -0.304 N 
ATOM     15  C   UNL     1       2.484  -2.813   0.042  0.00  0.00    +0.214 C 
ATOM     16  O   UNL     1       3.238  -2.525  -0.864  0.00  0.00    -0.276 OA
ATOM     17  H   UNL     1       0.556  -2.832   0.633  0.00  0.00    +0.149 HD
BRANCH  15  18
ATOM     18  C   UNL     1       3.028  -3.408   1.315  0.00  0.00    +0.096 C 
BRANCH  18  19
ATOM     19  C   UNL     1       4.548  -3.542   1.206  0.00  0.00    +0.009 C 
BRANCH  19  20
ATOM     20  C   UNL     1       5.101  -4.146   2.499  0.00  0.00    -0.001 C 
BRANCH  20  21
ATOM     21  C   UNL     1       6.621  -4.280   2.390  0.00  0.00    -0.020 C 
BRANCH  21  22
ATOM     22  C   UNL     1       7.173  -4.885   3.683  0.00  0.00    -0.086 C 
BRANCH  22  23
ATOM     23  N   UNL     1       8.633  -5.013   3.578  0.00  0.00    +0.378 N 
ATOM     24  H   UNL     1       8.863  -5.614   2.801  0.00  0.00    -0.090 HD
ATOM     25  H   UNL     1       9.041  -4.102   3.431  0.00  0.00    -0.090 HD
ATOM     26  H   UNL     1       8.997  -5.412   4.431  0.00  0.00    -0.090 HD
ENDBRANCH  22  23
ENDBRANCH  21  22
ENDBRANCH  20  21
ENDBRANCH  19  20
ENDBRANCH  18  19
ENDBRANCH  15  18
ENDBRANCH   1  14
BRANCH   1  27
ATOM     27  C   UNL     1       0.718  -0.497  -1.257  0.00  0.00    +0.015 C 
ATOM     28  C   UNL     1       2.187  -0.073  -1.207  0.00  0.00    +0.010 C 
BRANCH  27  30
ATOM     29  C   UNL     1      -0.019   1.526   0.010  0.00  0.00    +0.004 C 
ATOM     30  C   UNL     1       0.002  -0.004   0.002  0.00  0.00    +0.002 C 
ENDBRANCH  27  30
ENDBRANCH   1  27
TORSDOF 11
