REMARK  Name = ZINC65421719
REMARK  6 active torsions:
REMARK  status: ('A' for Active; 'I' for Inactive)
REMARK    1  A    between atoms: C_7  and  C_14
REMARK    2  A    between atoms: N_9  and  C_10
REMARK    3  A    between atoms: C_10  and  C_11
REMARK    4  A    between atoms: C_14  and  N_15
REMARK    5  A    between atoms: C_18  and  C_24
REMARK    6  A    between atoms: C_20  and  O_23
REMARK                            x       y       z     vdW  Elec       q    Type
REMARK                         _______ _______ _______ _____ _____    ______ ____
ROOT
ATOM      1  C   UNL     1       0.666  -3.275  -0.021  0.00  0.00    -0.041 C 
ENDROOT
BRANCH   1   8
ATOM      2  C   UNL     1      -0.017   1.362   0.009  0.00  0.00    +0.001 A 
ATOM      3  C   UNL     1       1.170   2.083   0.002  0.00  0.00    +0.002 A 
ATOM      4  C   UNL     1       2.386   1.436  -0.013  0.00  0.00    +0.026 A 
ATOM      5  C   UNL     1       2.428   0.046  -0.021  0.00  0.00    +0.050 A 
ATOM      6  C   UNL     1       1.223  -0.681  -0.013  0.00  0.00    +0.001 A 
ATOM      7  C   UNL     1       0.002  -0.004   0.002  0.00  0.00    +0.010 A 
ATOM      8  C   UNL     1       1.604  -2.095  -0.025  0.00  0.00    -0.039 A 
ATOM      9  C   UNL     1       2.945  -2.141  -0.038  0.00  0.00    +0.089 A 
ATOM     10  N   UNL     1       3.455  -0.871  -0.036  0.00  0.00    -0.338 N 
BRANCH  10  11
ATOM     11  C   UNL     1       4.881  -0.537  -0.048  0.00  0.00    +0.217 C 
BRANCH  11  12
ATOM     12  C   UNL     1       5.356  -0.310   1.364  0.00  0.00    +0.230 C 
ATOM     13  O   UNL     1       4.579  -0.417   2.289  0.00  0.00    -0.274 OA
ATOM     14  N   UNL     1       6.644   0.012   1.599  0.00  0.00    -0.328 N 
ATOM     15  H   UNL     1       7.265   0.097   0.859  0.00  0.00    +0.145 HD
ATOM     16  H   UNL     1       6.949   0.158   2.508  0.00  0.00    +0.145 HD
ENDBRANCH  11  12
ENDBRANCH  10  11
ENDBRANCH   1   8
BRANCH   1  17
ATOM     17  N   UNL     1       0.160  -3.502  -1.381  0.00  0.00    +0.384 N 
ATOM     18  C   UNL     1      -0.652  -2.352  -1.797  0.00  0.00    -0.078 C 
ATOM     19  C   UNL     1      -1.116  -2.546  -3.243  0.00  0.00    -0.008 C 
ATOM     20  C   UNL     1      -1.953  -3.825  -3.337  0.00  0.00    +0.044 C 
ATOM     21  C   UNL     1      -1.121  -5.007  -2.830  0.00  0.00    +0.105 C 
ATOM     22  C   UNL     1      -0.657  -4.722  -1.400  0.00  0.00    -0.046 C 
ATOM     23  H   UNL     1       0.937  -3.610  -2.015  0.00  0.00    -0.081 HD
BRANCH  20  24
ATOM     24  C   UNL     1      -2.349  -4.064  -4.771  0.00  0.00    -0.042 A 
ATOM     25  C   UNL     1      -1.375  -4.237  -5.737  0.00  0.00    +0.007 A 
ATOM     26  C   UNL     1      -1.737  -4.456  -7.053  0.00  0.00    +0.038 A 
ATOM     27  C   UNL     1      -3.076  -4.502  -7.403  0.00  0.00    +0.123 A 
ATOM     28  C   UNL     1      -4.050  -4.329  -6.435  0.00  0.00    +0.038 A 
ATOM     29  C   UNL     1      -3.686  -4.115  -5.119  0.00  0.00    +0.007 A 
ATOM     30  F   UNL     1      -3.431  -4.716  -8.689  0.00  0.00    -0.205 F 
ENDBRANCH  20  24
BRANCH  21  31
ATOM     31  O   UNL     1      -1.918  -6.193  -2.847  0.00  0.00    -0.393 OA
ATOM     32  H   UNL     1      -1.453  -6.983  -2.538  0.00  0.00    +0.210 HD
ENDBRANCH  21  31
ENDBRANCH   1  17
TORSDOF 6
