REMARK  Name = ZINC16545250
REMARK  7 active torsions:
REMARK  status: ('A' for Active; 'I' for Inactive)
REMARK    1  A    between atoms: C_8  and  C_10
REMARK    2  A    between atoms: C_10  and  C_30
REMARK    3  A    between atoms: C_11  and  N_12
REMARK    4  A    between atoms: N_12  and  C_13
REMARK    5  A    between atoms: C_16  and  S_19
REMARK    6  A    between atoms: S_19  and  N_22
REMARK    7  A    between atoms: N_22  and  C_23
REMARK                            x       y       z     vdW  Elec       q    Type
REMARK                         _______ _______ _______ _____ _____    ______ ____
ROOT
ATOM      1  C   UNL     1       6.406  -1.713   0.645  0.00  0.00    +0.031 A 
ATOM      2  C   UNL     1       5.771  -2.878   1.056  0.00  0.00    +0.025 A 
ATOM      3  C   UNL     1       4.505  -3.174   0.590  0.00  0.00    +0.030 A 
ATOM      4  C   UNL     1       3.869  -2.311  -0.284  0.00  0.00    +0.109 A 
ATOM      5  C   UNL     1       4.501  -1.154  -0.701  0.00  0.00    +0.030 A 
ATOM      6  C   UNL     1       5.765  -0.849  -0.235  0.00  0.00    +0.025 A 
ENDROOT
BRANCH   4   7
ATOM      7  S   UNL     1       2.254  -2.692  -0.876  0.00  0.00    +0.072 S 
ATOM      8  O   UNL     1       2.060  -4.083  -0.659  0.00  0.00    -0.150 OA
ATOM      9  O   UNL     1       2.142  -2.099  -2.162  0.00  0.00    -0.150 OA
BRANCH   7  10
ATOM     10  N   UNL     1       1.176  -1.905   0.104  0.00  0.00    -0.216 N 
ATOM     11  H   UNL     1       0.581  -1.236  -0.269  0.00  0.00    +0.174 HD
BRANCH  10  12
ATOM     12  C   UNL     1       1.123  -2.205   1.468  0.00  0.00    +0.048 A 
ATOM     13  C   UNL     1       1.078  -1.180   2.404  0.00  0.00    +0.025 A 
ATOM     14  C   UNL     1       1.027  -1.479   3.752  0.00  0.00    +0.017 A 
ATOM     15  C   UNL     1       1.020  -2.798   4.169  0.00  0.00    +0.018 A 
ATOM     16  C   UNL     1       1.065  -3.821   3.239  0.00  0.00    +0.017 A 
ATOM     17  C   UNL     1       1.117  -3.528   1.890  0.00  0.00    +0.025 A 
ATOM     18 BR   UNL     1       0.950  -3.203   6.015  0.00  0.00    -0.050 Br
ENDBRANCH  10  12
ENDBRANCH   7  10
ENDBRANCH   4   7
BRANCH   1  19
ATOM     19  N   UNL     1       7.687  -1.410   1.114  0.00  0.00    -0.320 N 
ATOM     20  H   UNL     1       8.134  -2.014   1.728  0.00  0.00    +0.152 HD
BRANCH  19  22
ATOM     21  C   UNL     1       9.529   0.079   1.252  0.00  0.00    +0.090 C 
ATOM     22  C   UNL     1       8.306  -0.272   0.711  0.00  0.00    +0.088 C 
BRANCH  21  30
ATOM     23  C   UNL     1      12.833  -3.179   5.009  0.00  0.00    +0.002 A 
ATOM     24  C   UNL     1      11.877  -4.152   4.756  0.00  0.00    +0.004 A 
ATOM     25  C   UNL     1      10.826  -3.894   3.900  0.00  0.00    +0.048 A 
ATOM     26  C   UNL     1      10.722  -2.656   3.286  0.00  0.00    +0.156 A 
ATOM     27  C   UNL     1      11.686  -1.668   3.540  0.00  0.00    +0.110 A 
ATOM     28  C   UNL     1      12.745  -1.943   4.409  0.00  0.00    +0.031 A 
ATOM     29  N   UNL     1      11.329  -0.578   2.812  0.00  0.00    -0.209 NA
ATOM     30  C   UNL     1      10.230  -0.853   2.153  0.00  0.00    +0.233 A 
ATOM     31  O   UNL     1       9.832  -2.111   2.426  0.00  0.00    -0.435 OA
ENDBRANCH  21  30
BRANCH  21  32
ATOM     32  C   UNL     1      10.107   1.331   0.940  0.00  0.00    +0.265 C 
ATOM     33  O   UNL     1      11.181   1.639   1.415  0.00  0.00    -0.295 OA
ENDBRANCH  21  32
ENDBRANCH  19  22
ENDBRANCH   1  19
TORSDOF 7
