REMARK  Name = ZINC08805932
REMARK  7 active torsions:
REMARK  status: ('A' for Active; 'I' for Inactive)
REMARK    1  A    between atoms: C_1  and  C_2
REMARK    2  A    between atoms: C_2  and  C_4
REMARK    3  A    between atoms: C_2  and  O_11
REMARK    4  A    between atoms: N_9  and  C_10
REMARK    5  A    between atoms: O_11  and  C_12
REMARK    6  A    between atoms: C_12  and  C_14
REMARK    7  A    between atoms: C_17  and  N_20
REMARK                            x       y       z     vdW  Elec       q    Type
REMARK                         _______ _______ _______ _____ _____    ______ ____
ROOT
ATOM      1  C   UNL     1       2.770  -1.133  -2.279  0.00  0.00    +0.059 A 
ATOM      2  C   UNL     1       2.276  -0.911  -3.568  0.00  0.00    +0.017 A 
ATOM      3  C   UNL     1       2.988  -1.350  -4.661  0.00  0.00    +0.025 A 
ATOM      4  C   UNL     1       4.192  -2.024  -4.485  0.00  0.00    +0.045 A 
ATOM      5  C   UNL     1       4.684  -2.252  -3.204  0.00  0.00    +0.025 A 
ATOM      6  C   UNL     1       3.980  -1.811  -2.106  0.00  0.00    +0.017 A 
ENDROOT
BRANCH   4   7
ATOM      7  N   UNL     1       4.908  -2.473  -5.597  0.00  0.00    -0.202 N 
ATOM      8  C   UNL     1       5.820  -1.653  -6.154  0.00  0.00    +0.258 C 
ATOM      9  O   UNL     1       6.004  -0.546  -5.687  0.00  0.00    -0.269 OA
ATOM     10  C   UNL     1       6.596  -2.091  -7.323  0.00  0.00    +0.046 A 
ATOM     11  C   UNL     1       7.549  -1.283  -7.925  0.00  0.00    +0.014 A 
ATOM     12  C   UNL     1       8.255  -1.741  -9.031  0.00  0.00    +0.001 A 
ATOM     13  C   UNL     1       8.039  -2.983  -9.554  0.00  0.00    +0.008 A 
ATOM     14  C   UNL     1       7.083  -3.834  -8.973  0.00  0.00    -0.016 A 
ATOM     15  C   UNL     1       6.359  -3.381  -7.850  0.00  0.00    +0.006 A 
ATOM     16  C   UNL     1       5.391  -4.214  -7.243  0.00  0.00    +0.046 A 
ATOM     17  C   UNL     1       5.166  -5.478  -7.768  0.00  0.00    +0.014 A 
ATOM     18  C   UNL     1       5.886  -5.913  -8.875  0.00  0.00    +0.001 A 
ATOM     19  C   UNL     1       6.824  -5.122  -9.473  0.00  0.00    +0.008 A 
ATOM     20  C   UNL     1       4.658  -3.707  -6.074  0.00  0.00    +0.258 C 
ATOM     21  O   UNL     1       3.820  -4.405  -5.537  0.00  0.00    -0.269 OA
ENDBRANCH   4   7
BRANCH   1  22
ATOM     22  C   UNL     1       2.014  -0.659  -1.105  0.00  0.00    +0.340 C 
ATOM     23  O   UNL     1       2.442  -0.857   0.014  0.00  0.00    -0.245 OA
BRANCH  22  24
ATOM     24  O   UNL     1       0.848  -0.005  -1.274  0.00  0.00    -0.449 OA
BRANCH  24  26
ATOM     25  C   UNL     1       0.625   1.841   0.298  0.00  0.00    +0.062 C 
ATOM     26  C   UNL     1       0.157   0.432  -0.074  0.00  0.00    +0.259 C 
BRANCH  26  27
ATOM     27  C   UNL     1      -1.328   0.447  -0.326  0.00  0.00    +0.261 C 
ATOM     28  O   UNL     1      -1.758   0.208  -1.434  0.00  0.00    -0.271 OA
ATOM     29  N   UNL     1      -2.180   0.725   0.681  0.00  0.00    -0.237 N 
ATOM     30  C   UNL     1      -3.509   0.737   0.456  0.00  0.00    +0.306 C 
ATOM     31  O   UNL     1      -3.939   0.498  -0.655  0.00  0.00    -0.252 OA
ATOM     32  N   UNL     1      -4.360   1.015   1.463  0.00  0.00    -0.302 N 
ATOM     33  C   UNL     1      -5.805   1.029   1.218  0.00  0.00    +0.129 C 
ATOM     34  H   UNL     1      -1.790   0.941   1.687  0.00  0.00    +0.159 HD
ATOM     35  H   UNL     1      -3.971   1.231   2.468  0.00  0.00    +0.150 HD
ENDBRANCH  26  27
ENDBRANCH  24  26
ENDBRANCH  22  24
ENDBRANCH   1  22
TORSDOF 5
