REMARK  Name = ZINC38576960
REMARK  8 active torsions:
REMARK  status: ('A' for Active; 'I' for Inactive)
REMARK    1  A    between atoms: C_1  and  C_2
REMARK    2  A    between atoms: C_4  and  C_34
REMARK    3  A    between atoms: C_5  and  O_33
REMARK    4  A    between atoms: C_6  and  C_8
REMARK    5  A    between atoms: C_11  and  C_13
REMARK    6  A    between atoms: N_15  and  C_16
REMARK    7  A    between atoms: C_18  and  C_29
REMARK    8  A    between atoms: N_31  and  C_32
REMARK                            x       y       z     vdW  Elec       q    Type
REMARK                         _______ _______ _______ _____ _____    ______ ____
ROOT
ATOM      1  C   UNL     1       1.255  -4.202   6.249  0.00  0.00    +0.261 C 
ATOM      2  O   UNL     1       1.607  -3.229   6.890  0.00  0.00    -0.269 OA
ATOM      3  N   UNL     1       0.646  -5.232   6.868  0.00  0.00    -0.298 N 
ATOM      4  H   UNL     1       0.305  -5.977   6.348  0.00  0.00    +0.150 HD
ENDROOT
BRANCH   3   5
ATOM      5  C   UNL     1       0.498  -5.228   8.325  0.00  0.00    +0.144 C 
ATOM      6  C   UNL     1      -0.741  -6.040   8.752  0.00  0.00    +0.109 C 
ATOM      7  C   UNL     1      -1.935  -5.185   9.098  0.00  0.00    +0.016 C 
ATOM      8  C   UNL     1      -3.253  -5.721   8.640  0.00  0.00    +0.005 C 
ATOM      9  C   UNL     1      -3.849  -5.018   7.436  0.00  0.00    +0.000 C 
ATOM     10  C   UNL     1      -3.769  -3.502   7.597  0.00  0.00    +0.001 C 
ATOM     11  C   UNL     1      -2.301  -3.098   7.734  0.00  0.00    +0.014 C 
ATOM     12  C   UNL     1      -1.735  -3.683   9.007  0.00  0.00    +0.052 C 
ATOM     13  S   UNL     1       0.112  -3.537   8.937  0.00  0.00    -0.134 S 
BRANCH   6  14
ATOM     14  C   UNL     1      -1.124  -6.963   7.624  0.00  0.00    +0.219 C 
ATOM     15  O   UNL     1      -1.609  -6.510   6.608  0.00  0.00    -0.275 OA
ATOM     16  N   UNL     1      -0.927  -8.290   7.743  0.00  0.00    -0.318 N 
ATOM     17  C   UNL     1      -1.299  -9.188   6.646  0.00  0.00    +0.128 C 
ATOM     18  H   UNL     1      -0.539  -8.652   8.555  0.00  0.00    +0.148 HD
ENDBRANCH   6  14
ENDBRANCH   3   5
BRANCH   1  22
ATOM     19  C   UNL     1       2.098  -3.843   2.565  0.00  0.00    +0.080 C 
ATOM     20  N   UNL     1       1.504  -4.998   2.764  0.00  0.00    -0.153 NA
ATOM     21  N   UNL     1       1.178  -5.216   3.978  0.00  0.00    -0.148 NA
ATOM     22  C   UNL     1       1.494  -4.252   4.804  0.00  0.00    +0.131 C 
ATOM     23  C   UNL     1       2.167  -3.198   3.940  0.00  0.00    +0.120 C 
BRANCH  19  29
ATOM     24  C   UNL     1       4.338  -0.187   0.030  0.00  0.00    +0.044 C 
ATOM     25  C   UNL     1       3.671  -1.538   0.067  0.00  0.00    -0.049 A 
ATOM     26  C   UNL     1       3.525  -2.267  -1.103  0.00  0.00    +0.010 A 
ATOM     27  C   UNL     1       2.916  -3.507  -1.085  0.00  0.00    -0.008 A 
ATOM     28  C   UNL     1       2.445  -4.034   0.107  0.00  0.00    +0.129 A 
ATOM     29  C   UNL     1       2.591  -3.299   1.298  0.00  0.00    +0.040 A 
ATOM     30  C   UNL     1       3.216  -2.044   1.263  0.00  0.00    +0.016 A 
ATOM     31  C   UNL     1       2.764  -4.288  -2.365  0.00  0.00    +0.047 C 
BRANCH  28  32
ATOM     32  O   UNL     1       1.847  -5.250   0.126  0.00  0.00    -0.506 OA
ATOM     33  H   UNL     1       2.456  -5.987   0.271  0.00  0.00    +0.292 HD
ENDBRANCH  28  32
ENDBRANCH  19  29
ENDBRANCH   1  22
TORSDOF 5
