REMARK  Name = ZINC30004401
REMARK  12 active torsions:
REMARK  status: ('A' for Active; 'I' for Inactive)
REMARK    1  A    between atoms: C_1  and  C_2
REMARK    2  A    between atoms: C_7  and  C_8
REMARK    3  A    between atoms: C_8  and  C_9
REMARK    4  A    between atoms: C_8  and  C_10
REMARK    5  A    between atoms: C_11  and  C_16
REMARK    6  A    between atoms: C_16  and  N_17
REMARK    7  A    between atoms: N_17  and  C_18
REMARK    8  A    between atoms: N_17  and  C_19
REMARK    9  A    between atoms: C_19  and  C_21
REMARK   10  A    between atoms: C_19  and  C_22
REMARK   11  A    between atoms: C_25  and  S_28
REMARK   12  A    between atoms: S_28  and  C_31
REMARK                            x       y       z     vdW  Elec       q    Type
REMARK                         _______ _______ _______ _____ _____    ______ ____
ROOT
ATOM      1  C   UNL     1      -0.186   1.671  -0.160  0.00  0.00    -0.042 C 
ENDROOT
BRANCH   1   9
ATOM      2  C   UNL     1       4.564   2.287  -4.773  0.00  0.00    +0.044 C 
ATOM      3  C   UNL     1       3.706   2.201  -3.537  0.00  0.00    -0.044 A 
ATOM      4  C   UNL     1       4.277   2.387  -2.295  0.00  0.00    +0.050 A 
ATOM      5  C   UNL     1       3.489   2.307  -1.154  0.00  0.00    +0.140 A 
ATOM      6  C   UNL     1       2.115   2.038  -1.282  0.00  0.00    +0.019 A 
ATOM      7  C   UNL     1       1.556   1.853  -2.550  0.00  0.00    +0.016 A 
ATOM      8  C   UNL     1       2.350   1.935  -3.659  0.00  0.00    -0.041 A 
ATOM      9  C   UNL     1       1.291   1.957  -0.072  0.00  0.00    -0.047 A 
ATOM     10  C   UNL     1       1.893   2.152   1.128  0.00  0.00    +0.094 A 
ATOM     11  C   UNL     1       3.280   2.413   1.183  0.00  0.00    +0.337 A 
ATOM     12  O   UNL     1       3.809   2.581   2.266  0.00  0.00    -0.245 OA
ATOM     13  O   UNL     1       4.028   2.486   0.071  0.00  0.00    -0.422 OA
BRANCH   8  14
ATOM     14  C   UNL     1       1.748   1.736  -5.027  0.00  0.00    +0.013 C 
ATOM     15  C   UNL     1       1.258   0.292  -5.162  0.00  0.00    +0.012 C 
ATOM     16  C   UNL     1       0.569   2.693  -5.209  0.00  0.00    +0.012 C 
ENDBRANCH   8  14
ENDBRANCH   1   9
BRANCH   1  17
ATOM     17  N   UNL     1      -0.395   0.228  -0.344  0.00  0.00    +0.385 N 
ATOM     18  C   UNL     1       0.037  -0.522   0.843  0.00  0.00    -0.095 C 
ATOM     19  H   UNL     1       0.223  -0.097  -1.194  0.00  0.00    -0.081 HD
BRANCH  17  20
ATOM     20  C   UNL     1      -1.798  -0.063  -0.669  0.00  0.00    -0.041 C 
ATOM     21  C   UNL     1      -2.182   0.658  -1.963  0.00  0.00    -0.008 C 
BRANCH  20  22
ATOM     22  C   UNL     1      -1.974  -1.549  -0.851  0.00  0.00    -0.061 A 
ATOM     23  C   UNL     1      -1.007  -2.283  -1.512  0.00  0.00    +0.004 A 
ATOM     24  C   UNL     1      -1.166  -3.647  -1.675  0.00  0.00    +0.027 A 
ATOM     25  C   UNL     1      -2.296  -4.274  -1.185  0.00  0.00    +0.088 A 
ATOM     26  C   UNL     1      -3.265  -3.539  -0.528  0.00  0.00    +0.027 A 
ATOM     27  C   UNL     1      -3.104  -2.176  -0.361  0.00  0.00    +0.004 A 
BRANCH  25  28
ATOM     28  S   UNL     1      -2.502  -6.011  -1.398  0.00  0.00    -0.006 S 
ATOM     29  O   UNL     1      -1.181  -6.522  -1.508  0.00  0.00    -0.170 OA
ATOM     30  O   UNL     1      -3.346  -6.410  -0.327  0.00  0.00    -0.170 OA
ATOM     31  C   UNL     1      -3.374  -6.186  -2.979  0.00  0.00    +0.200 C 
ENDBRANCH  25  28
ENDBRANCH  20  22
ENDBRANCH  17  20
ENDBRANCH   1  17
TORSDOF 6
