REMARK  Name = ZINC21669666
REMARK  6 active torsions:
REMARK  status: ('A' for Active; 'I' for Inactive)
REMARK    1  A    between atoms: C_1  and  C_2
REMARK    2  A    between atoms: C_2  and  C_3
REMARK    3  A    between atoms: C_2  and  C_4
REMARK    4  A    between atoms: C_10  and  C_12
REMARK    5  A    between atoms: C_14  and  S_19
REMARK    6  A    between atoms: S_19  and  N_22
REMARK                            x       y       z     vdW  Elec       q    Type
REMARK                         _______ _______ _______ _____ _____    ______ ____
ROOT
ATOM      1  C   UNL     1      -2.563   1.417   3.130  0.00  0.00    +0.057 A 
ATOM      2  C   UNL     1      -1.843   1.034   1.997  0.00  0.00    +0.043 A 
ATOM      3  C   UNL     1      -0.927   1.900   1.439  0.00  0.00    +0.106 A 
ATOM      4  C   UNL     1      -0.715   3.147   2.003  0.00  0.00    +0.030 A 
ATOM      5  C   UNL     1      -1.428   3.537   3.122  0.00  0.00    +0.022 A 
ATOM      6  C   UNL     1      -2.349   2.679   3.691  0.00  0.00    +0.053 A 
ATOM      7 CL   UNL     1      -3.239   3.167   5.100  0.00  0.00    -0.083 Cl
ENDROOT
BRANCH   1  14
ATOM      8  C   UNL     1      -6.354  -3.490   4.571  0.00  0.00    +0.106 A 
ATOM      9  N   UNL     1      -6.250  -2.334   5.197  0.00  0.00    -0.144 NA
ATOM     10  N   UNL     1      -5.457  -1.432   4.815  0.00  0.00    -0.126 NA
ATOM     11  C   UNL     1      -4.676  -1.590   3.755  0.00  0.00    +0.188 A 
ATOM     12  S   UNL     1      -5.161  -3.240   3.259  0.00  0.00    -0.035 S 
ATOM     13  N   UNL     1      -3.751  -0.722   3.188  0.00  0.00    -0.259 N 
ATOM     14  C   UNL     1      -3.547   0.494   3.732  0.00  0.00    +0.251 C 
ATOM     15  O   UNL     1      -4.172   0.832   4.719  0.00  0.00    -0.270 OA
ATOM     16  H   UNL     1      -3.185  -1.027   2.296  0.00  0.00    +0.157 HD
BRANCH   8  18
ATOM     17  C   UNL     1      -6.911  -5.209   6.268  0.00  0.00    +0.014 C 
ATOM     18  C   UNL     1      -7.231  -4.678   4.869  0.00  0.00    +0.040 C 
ATOM     19  C   UNL     1      -8.700  -4.256   4.808  0.00  0.00    +0.014 C 
ENDBRANCH   8  18
ENDBRANCH   1  14
BRANCH   3  20
ATOM     20  S   UNL     1      -0.017   1.417   0.010  0.00  0.00    +0.061 S 
ATOM     21  O   UNL     1       0.002  -0.004   0.002  0.00  0.00    -0.153 OA
ATOM     22  O   UNL     1       1.172   2.195   0.003  0.00  0.00    -0.153 OA
BRANCH  20  23
ATOM     23  N   UNL     1      -0.897   1.885  -1.312  0.00  0.00    -0.177 NA
ATOM     24  C   UNL     1      -1.909   1.071  -2.000  0.00  0.00    +0.109 C 
ATOM     25  C   UNL     1      -2.444   1.906  -3.183  0.00  0.00    +0.018 C 
ATOM     26  C   UNL     1      -1.295   2.918  -3.438  0.00  0.00    +0.018 C 
ATOM     27  C   UNL     1      -0.792   3.186  -1.998  0.00  0.00    +0.109 C 
ENDBRANCH  20  23
ENDBRANCH   3  20
TORSDOF 4
