REMARK  Name = ZINC20992453
REMARK  9 active torsions:
REMARK  status: ('A' for Active; 'I' for Inactive)
REMARK    1  A    between atoms: C_1  and  C_2
REMARK    2  A    between atoms: C_7  and  C_8
REMARK    3  A    between atoms: C_11  and  S_14
REMARK    4  A    between atoms: N_12  and  C_13
REMARK    5  A    between atoms: S_14  and  C_15
REMARK    6  A    between atoms: C_15  and  C_17
REMARK    7  A    between atoms: C_15  and  C_18
REMARK    8  A    between atoms: N_20  and  C_21
REMARK    9  A    between atoms: C_23  and  N_28
REMARK                            x       y       z     vdW  Elec       q    Type
REMARK                         _______ _______ _______ _____ _____    ______ ____
ROOT
ATOM      1  C   UNL     1      -2.458   0.819   0.207  0.00  0.00    +0.137 C 
ATOM      2  C   UNL     1      -2.842   0.166  -1.123  0.00  0.00    +0.029 C 
ENDROOT
BRANCH   1   3
ATOM      3  C   UNL     1      -1.190   1.614   0.029  0.00  0.00    +0.230 C 
ATOM      4  O   UNL     1      -1.244   2.817  -0.116  0.00  0.00    -0.274 OA
ATOM      5  N   UNL     1       0.004   0.988   0.029  0.00  0.00    -0.283 N 
ATOM      6  H   UNL     1       0.049  -0.110   0.078  0.00  0.00    +0.155 HD
BRANCH   5   7
ATOM      7  C   UNL     1       1.186   1.735  -0.031  0.00  0.00    +0.054 A 
ATOM      8  C   UNL     1       1.179   3.079   0.319  0.00  0.00    +0.057 A 
ATOM      9  C   UNL     1       2.346   3.813   0.259  0.00  0.00    +0.128 A 
ATOM     10  C   UNL     1       3.523   3.212  -0.151  0.00  0.00    +0.034 A 
ATOM     11  C   UNL     1       3.534   1.875  -0.501  0.00  0.00    +0.024 A 
ATOM     12  C   UNL     1       2.370   1.132  -0.437  0.00  0.00    +0.062 A 
ATOM     13 CL   UNL     1       2.387  -0.549  -0.869  0.00  0.00    -0.082 Cl
BRANCH   9  14
ATOM     14  N   UNL     1       2.339   5.245   0.632  0.00  0.00    +0.056 N 
ATOM     15  O   UNL     1       1.304   5.775   0.994  0.00  0.00    -0.126 OA
ATOM     16  O   UNL     1       3.369   5.894   0.579  0.00  0.00    -0.126 OA
ENDBRANCH   9  14
ENDBRANCH   5   7
ENDBRANCH   1   3
BRANCH   1  17
ATOM     17  S   UNL     1      -3.789   1.920   0.745  0.00  0.00    -0.074 S 
BRANCH  17  21
ATOM     18  C   UNL     1      -6.975  -0.211   1.506  0.00  0.00    +0.165 A 
ATOM     19  N   UNL     1      -6.103  -1.119   1.133  0.00  0.00    -0.128 NA
ATOM     20  N   UNL     1      -4.983  -0.559   0.845  0.00  0.00    -0.122 NA
ATOM     21  C   UNL     1      -5.071   0.741   1.016  0.00  0.00    +0.192 A 
ATOM     22  N   UNL     1      -6.339   1.007   1.448  0.00  0.00    -0.305 N 
ATOM     23  C   UNL     1      -6.904   2.318   1.778  0.00  0.00    +0.153 C 
BRANCH  18  30
ATOM     24  C   UNL     1      -8.672  -1.898  -0.120  0.00  0.00    +0.044 C 
ATOM     25  C   UNL     1      -9.202  -1.265   1.140  0.00  0.00    -0.040 A 
ATOM     26  C   UNL     1     -10.506  -1.490   1.531  0.00  0.00    +0.004 A 
ATOM     27  C   UNL     1     -10.996  -0.906   2.685  0.00  0.00    +0.000 A 
ATOM     28  C   UNL     1     -10.182  -0.096   3.457  0.00  0.00    +0.001 A 
ATOM     29  C   UNL     1      -8.875   0.134   3.080  0.00  0.00    +0.012 A 
ATOM     30  C   UNL     1      -8.374  -0.453   1.917  0.00  0.00    +0.022 A 
ENDBRANCH  18  30
ENDBRANCH  17  21
ENDBRANCH   1  17
TORSDOF 6
