REMARK  Name = ZINC39684472
REMARK  10 active torsions:
REMARK  status: ('A' for Active; 'I' for Inactive)
REMARK    1  A    between atoms: C_1  and  C_2
REMARK    2  A    between atoms: C_3  and  C_15
REMARK    3  A    between atoms: C_4  and  C_7
REMARK    4  A    between atoms: C_19  and  C_28
REMARK    5  A    between atoms: N_30  and  C_31
REMARK    6  A    between atoms: C_31  and  C_33
REMARK    7  A    between atoms: C_31  and  C_34
REMARK    8  A    between atoms: C_34  and  C_35
REMARK    9  A    between atoms: C_34  and  C_36
REMARK   10  A    between atoms: C_34  and  C_37
REMARK                            x       y       z     vdW  Elec       q    Type
REMARK                         _______ _______ _______ _____ _____    ______ ____
ROOT
ATOM      1  C   UNL     1      -2.480  -0.399   0.235  0.00  0.00    +0.252 C 
ATOM      2  O   UNL     1      -3.185  -0.310  -0.752  0.00  0.00    -0.270 OA
ATOM      3  N   UNL     1      -2.984  -0.111   1.452  0.00  0.00    -0.296 N 
ATOM      4  C   UNL     1      -2.319  -0.254   2.768  0.00  0.00    +0.121 C 
ATOM      5  C   UNL     1      -2.761   0.993   3.567  0.00  0.00    +0.100 C 
ATOM      6  C   UNL     1      -4.083   1.429   2.912  0.00  0.00    -0.004 C 
ATOM      7  C   UNL     1      -4.328   0.427   1.774  0.00  0.00    +0.115 C 
ATOM      8  C   UNL     1      -5.221   1.368   3.926  0.00  0.00    -0.010 C 
ATOM      9  C   UNL     1      -6.512   1.862   3.267  0.00  0.00    -0.082 C 
ATOM     10  N   UNL     1      -6.326   3.239   2.793  0.00  0.00    +0.379 N 
ATOM     11  C   UNL     1      -5.293   3.274   1.750  0.00  0.00    -0.082 C 
ATOM     12  C   UNL     1      -3.950   2.840   2.345  0.00  0.00    -0.010 C 
ATOM     13  H   UNL     1      -7.196   3.583   2.415  0.00  0.00    -0.086 HD
ATOM     14  H   UNL     1      -6.043   3.824   3.565  0.00  0.00    -0.086 HD
ENDROOT
BRANCH   1  17
ATOM     15  C   UNL     1      -0.076   1.444  -0.532  0.00  0.00    +0.090 C 
ATOM     16  C   UNL     1      -0.016  -0.032  -0.232  0.00  0.00    +0.147 A 
ATOM     17  C   UNL     1      -1.076  -0.823   0.102  0.00  0.00    +0.106 A 
ATOM     18  C   UNL     1      -0.546  -2.180   0.303  0.00  0.00    +0.130 A 
ATOM     19  N   UNL     1       0.744  -2.120   0.086  0.00  0.00    -0.077 NA
ATOM     20  O   UNL     1       1.083  -0.790  -0.252  0.00  0.00    -0.359 OA
BRANCH  18  21
ATOM     21  C   UNL     1      -1.324  -3.385   0.679  0.00  0.00    +0.058 A 
ATOM     22  C   UNL     1      -2.478  -3.724  -0.030  0.00  0.00    +0.134 A 
ATOM     23  C   UNL     1      -3.198  -4.849   0.327  0.00  0.00    +0.039 A 
ATOM     24  C   UNL     1      -2.777  -5.637   1.383  0.00  0.00    +0.004 A 
ATOM     25  C   UNL     1      -1.635  -5.306   2.088  0.00  0.00    +0.021 A 
ATOM     26  C   UNL     1      -0.902  -4.187   1.739  0.00  0.00    +0.053 A 
ATOM     27 CL   UNL     1       0.535  -3.778   2.622  0.00  0.00    -0.083 Cl
ATOM     28  F   UNL     1      -2.890  -2.955  -1.061  0.00  0.00    -0.205 F 
ENDBRANCH  18  21
ENDBRANCH   1  17
BRANCH   5  29
ATOM     29  C   UNL     1      -1.729   2.084   3.450  0.00  0.00    +0.218 C 
ATOM     30  O   UNL     1      -1.115   2.230   2.415  0.00  0.00    -0.275 OA
ATOM     31  N   UNL     1      -1.490   2.899   4.497  0.00  0.00    -0.312 N 
ATOM     32  H   UNL     1      -1.981   2.783   5.325  0.00  0.00    +0.149 HD
BRANCH  31  33
ATOM     33  C   UNL     1      -0.486   3.961   4.384  0.00  0.00    +0.075 C 
ATOM     34  C   UNL     1      -1.124   5.200   3.753  0.00  0.00    +0.028 C 
BRANCH  33  35
ATOM     35  C   UNL     1       0.043   4.312   5.775  0.00  0.00    -0.020 C 
ATOM     36  C   UNL     1       0.681   3.073   6.406  0.00  0.00    +0.012 C 
ATOM     37  C   UNL     1       1.091   5.421   5.657  0.00  0.00    +0.012 C 
ATOM     38  C   UNL     1      -1.112   4.794   6.654  0.00  0.00    +0.012 C 
ENDBRANCH  33  35
ENDBRANCH  31  33
ENDBRANCH   5  29
TORSDOF 5
