REMARK  Name = ZINC45135988
REMARK  3 active torsions:
REMARK  status: ('A' for Active; 'I' for Inactive)
REMARK    1  A    between atoms: C_1  and  C_2
REMARK    2  A    between atoms: C_2  and  C_17
REMARK    3  A    between atoms: C_4  and  N_6
REMARK                            x       y       z     vdW  Elec       q    Type
REMARK                         _______ _______ _______ _____ _____    ______ ____
ROOT
ATOM      1  N   UNL     1       1.414  -1.955   0.881  0.00  0.00    -0.308 N 
ATOM      2  C   UNL     1       2.780  -2.164   0.986  0.00  0.00    +0.070 A 
ATOM      3  C   UNL     1       3.848  -1.366   1.368  0.00  0.00    +0.029 A 
ATOM      4  C   UNL     1       5.127  -1.883   1.365  0.00  0.00    +0.017 A 
ATOM      5  C   UNL     1       5.353  -3.197   0.982  0.00  0.00    +0.020 A 
ATOM      6  C   UNL     1       4.304  -4.004   0.599  0.00  0.00    +0.045 A 
ATOM      7  C   UNL     1       3.003  -3.495   0.598  0.00  0.00    +0.092 A 
ATOM      8  N   UNL     1       1.793  -4.027   0.281  0.00  0.00    -0.215 NA
ATOM      9  C   UNL     1       0.858  -3.126   0.452  0.00  0.00    +0.194 A 
ATOM     10  N   UNL     1      -0.488  -3.328   0.228  0.00  0.00    -0.329 N 
ATOM     11 BR   UNL     1       7.114  -3.886   0.984  0.00  0.00    -0.050 Br
ATOM     12  H   UNL     1      -1.109  -2.586   0.301  0.00  0.00    +0.145 HD
ATOM     13  H   UNL     1      -0.814  -4.212  -0.003  0.00  0.00    +0.145 HD
ENDROOT
BRANCH   1  17
ATOM     14  C   UNL     1      -1.108   0.233   2.820  0.00  0.00    +0.013 C 
ATOM     15  C   UNL     1       0.218  -0.503   2.619  0.00  0.00    -0.012 C 
ATOM     16  C   UNL     1       1.401   0.306   2.083  0.00  0.00    +0.034 C 
ATOM     17  C   UNL     1       0.700  -0.712   1.182  0.00  0.00    +0.097 C 
ATOM     18  C   UNL     1       0.520  -1.609   3.632  0.00  0.00    +0.013 C 
ENDBRANCH   1  17
TORSDOF 1
