REMARK  Name = ZINC33702461
REMARK  10 active torsions:
REMARK  status: ('A' for Active; 'I' for Inactive)
REMARK    1  A    between atoms: C_1  and  C_2
REMARK    2  A    between atoms: C_2  and  C_3
REMARK    3  A    between atoms: C_2  and  C_4
REMARK    4  A    between atoms: C_2  and  C_5
REMARK    5  A    between atoms: C_12  and  N_20
REMARK    6  A    between atoms: C_13  and  C_14
REMARK    7  A    between atoms: N_16  and  C_17
REMARK    8  A    between atoms: C_17  and  C_18
REMARK    9  A    between atoms: C_18  and  O_19
REMARK   10  A    between atoms: C_21  and  C_23
REMARK                            x       y       z     vdW  Elec       q    Type
REMARK                         _______ _______ _______ _____ _____    ______ ____
ROOT
ATOM      1  C   UNL     1       0.002  -0.004   0.002  0.00  0.00    -0.000 C 
ATOM      2  C   UNL     1       0.742  -0.514   1.242  0.00  0.00    +0.009 C 
ATOM      3  C   UNL     1       0.984  -2.020   1.120  0.00  0.00    +0.037 C 
ATOM      4  C   UNL     1      -0.340  -2.706   0.810  0.00  0.00    -0.023 A 
ATOM      5  C   UNL     1      -1.390  -2.006   0.327  0.00  0.00    -0.004 A 
ATOM      6  S   UNL     1      -2.678  -3.203   0.126  0.00  0.00    -0.077 S 
ATOM      7  C   UNL     1      -1.837  -4.615   0.674  0.00  0.00    +0.085 A 
ATOM      8  C   UNL     1      -0.579  -4.126   1.000  0.00  0.00    +0.069 A 
ATOM      9  C   UNL     1      -1.437  -0.538   0.030  0.00  0.00    +0.046 C 
ENDROOT
BRANCH   1  11
ATOM     10  C   UNL     1       1.417   2.055  -0.000  0.00  0.00    +0.011 C 
ATOM     11  C   UNL     1      -0.019   1.526   0.010  0.00  0.00    -0.035 C 
ATOM     12  C   UNL     1      -0.759   2.033  -1.229  0.00  0.00    +0.011 C 
ATOM     13  C   UNL     1      -0.735   2.019   1.269  0.00  0.00    +0.011 C 
ENDBRANCH   1  11
BRANCH   8  14
ATOM     14  C   UNL     1       0.470  -5.011   1.516  0.00  0.00    +0.247 C 
ATOM     15  O   UNL     1       0.578  -5.192   2.715  0.00  0.00    -0.270 OA
ATOM     16  N   UNL     1       1.314  -5.625   0.663  0.00  0.00    -0.309 N 
ATOM     17  H   UNL     1       1.216  -5.462  -0.420  0.00  0.00    +0.149 HD
BRANCH  16  18
ATOM     18  C   UNL     1       2.362  -6.509   1.179  0.00  0.00    +0.132 C 
BRANCH  18  19
ATOM     19  C   UNL     1       3.175  -7.072   0.011  0.00  0.00    +0.174 C 
BRANCH  19  20
ATOM     20  O   UNL     1       3.867  -6.008  -0.644  0.00  0.00    -0.393 OA
ATOM     21  H   UNL     1       4.507  -6.221  -1.513  0.00  0.00    +0.209 HD
ENDBRANCH  19  20
ENDBRANCH  18  19
ENDBRANCH  16  18
ENDBRANCH   8  14
BRANCH   7  22
ATOM     22  N   UNL     1      -2.305  -5.915   0.765  0.00  0.00    -0.275 N 
ATOM     23  C   UNL     1      -3.570  -6.203   0.399  0.00  0.00    +0.249 C 
ATOM     24  O   UNL     1      -4.300  -5.321  -0.011  0.00  0.00    -0.270 OA
ATOM     25  H   UNL     1      -1.645  -6.713   1.135  0.00  0.00    +0.156 HD
BRANCH  23  26
ATOM     26  C   UNL     1      -4.070  -7.590   0.495  0.00  0.00    +0.037 A 
ATOM     27  C   UNL     1      -3.232  -8.606   0.960  0.00  0.00    +0.014 A 
ATOM     28  C   UNL     1      -3.706  -9.898   1.054  0.00  0.00    +0.016 A 
ATOM     29  C   UNL     1      -5.006 -10.190   0.676  0.00  0.00    +0.018 A 
ATOM     30  C   UNL     1      -5.840  -9.188   0.209  0.00  0.00    +0.016 A 
ATOM     31  C   UNL     1      -5.380  -7.891   0.117  0.00  0.00    +0.014 A 
ATOM     32 BR   UNL     1      -5.646 -11.966   0.800  0.00  0.00    -0.050 Br
ENDBRANCH  23  26
ENDBRANCH   7  22
TORSDOF 7
