REMARK  Name = ZINC35523110
REMARK  9 active torsions:
REMARK  status: ('A' for Active; 'I' for Inactive)
REMARK    1  A    between atoms: C_1  and  C_2
REMARK    2  A    between atoms: C_5  and  C_8
REMARK    3  A    between atoms: N_17  and  C_18
REMARK    4  A    between atoms: C_18  and  C_19
REMARK    5  A    between atoms: N_21  and  C_22
REMARK    6  A    between atoms: C_22  and  C_23
REMARK    7  A    between atoms: C_23  and  C_24
REMARK    8  A    between atoms: C_24  and  C_25
REMARK    9  A    between atoms: C_24  and  C_31
REMARK                            x       y       z     vdW  Elec       q    Type
REMARK                         _______ _______ _______ _____ _____    ______ ____
ROOT
ATOM      1  C   UNL     1       3.681  -6.398   1.344  0.00  0.00    +0.196 C 
ATOM      2  O   UNL     1       3.095  -6.566   2.392  0.00  0.00    -0.278 OA
ATOM      3  N   UNL     1       4.967  -5.994   1.348  0.00  0.00    -0.317 N 
ATOM      4  H   UNL     1       5.436  -5.860   0.509  0.00  0.00    +0.149 HD
ENDROOT
BRANCH   1   5
ATOM      5  C   UNL     1       2.971  -6.640   0.037  0.00  0.00    +0.020 C 
BRANCH   5  14
ATOM      6  C   UNL     1       0.864  -7.190  -0.974  0.00  0.00    +0.011 C 
ATOM      7  C   UNL     1      -0.473  -7.830  -0.695  0.00  0.00    +0.009 A 
ATOM      8  C   UNL     1      -1.561  -7.860  -1.480  0.00  0.00    +0.021 A 
ATOM      9  C   UNL     1      -2.562  -8.571  -0.783  0.00  0.00    +0.019 A 
ATOM     10  C   UNL     1      -2.040  -8.948   0.404  0.00  0.00    +0.086 A 
ATOM     11  N   UNL     1      -0.761  -8.502   0.465  0.00  0.00    -0.353 N 
ATOM     12  C   UNL     1       0.211  -8.674   1.552  0.00  0.00    +0.103 C 
ATOM     13  C   UNL     1       1.606  -8.364   0.994  0.00  0.00    -0.055 C 
ATOM     14  N   UNL     1       1.591  -7.069   0.301  0.00  0.00    +0.395 N 
ATOM     15  H   UNL     1       1.135  -6.384   0.884  0.00  0.00    -0.080 HD
BRANCH   6  20
ATOM     16  C   UNL     1       0.071  -1.948  -3.273  0.00  0.00    +0.044 C 
ATOM     17  C   UNL     1       0.278  -3.315  -2.673  0.00  0.00    -0.050 A 
ATOM     18  C   UNL     1       0.594  -4.386  -3.488  0.00  0.00    +0.003 A 
ATOM     19  C   UNL     1       0.784  -5.640  -2.938  0.00  0.00    +0.002 A 
ATOM     20  C   UNL     1       0.658  -5.823  -1.574  0.00  0.00    -0.055 A 
ATOM     21  C   UNL     1       0.343  -4.751  -0.759  0.00  0.00    +0.002 A 
ATOM     22  C   UNL     1       0.158  -3.496  -1.308  0.00  0.00    +0.003 A 
ENDBRANCH   6  20
ENDBRANCH   5  14
ENDBRANCH   1   5
BRANCH   3  23
ATOM     23  C   UNL     1       5.657  -5.758   2.619  0.00  0.00    +0.105 C 
BRANCH  23  24
ATOM     24  C   UNL     1       7.094  -5.311   2.343  0.00  0.00    +0.031 C 
BRANCH  24  25
ATOM     25  C   UNL     1       7.814  -5.065   3.671  0.00  0.00    +0.050 C 
BRANCH  25  26
ATOM     26  C   UNL     1       9.262  -4.745   3.404  0.00  0.00    -0.040 A 
ATOM     27  C   UNL     1      10.258  -5.451   4.053  0.00  0.00    +0.004 A 
ATOM     28  C   UNL     1      11.586  -5.157   3.809  0.00  0.00    +0.000 A 
ATOM     29  C   UNL     1      11.919  -4.157   2.915  0.00  0.00    +0.000 A 
ATOM     30  C   UNL     1      10.924  -3.451   2.265  0.00  0.00    +0.000 A 
ATOM     31  C   UNL     1       9.596  -3.748   2.506  0.00  0.00    +0.004 A 
ENDBRANCH  25  26
BRANCH  25  32
ATOM     32  C   UNL     1       7.167  -3.908   4.386  0.00  0.00    -0.040 A 
ATOM     33  C   UNL     1       6.978  -2.707   3.728  0.00  0.00    +0.004 A 
ATOM     34  C   UNL     1       6.384  -1.645   4.385  0.00  0.00    +0.000 A 
ATOM     35  C   UNL     1       5.979  -1.784   5.699  0.00  0.00    +0.000 A 
ATOM     36  C   UNL     1       6.167  -2.986   6.357  0.00  0.00    +0.000 A 
ATOM     37  C   UNL     1       6.757  -4.049   5.699  0.00  0.00    +0.004 A 
ENDBRANCH  25  32
ENDBRANCH  24  25
ENDBRANCH  23  24
ENDBRANCH   3  23
TORSDOF 8
