REMARK  Name = ZINC14528938
REMARK  7 active torsions:
REMARK  status: ('A' for Active; 'I' for Inactive)
REMARK    1  A    between atoms: C_1  and  C_2
REMARK    2  A    between atoms: C_5  and  C_34
REMARK    3  A    between atoms: N_8  and  C_10
REMARK    4  A    between atoms: C_10  and  C_11
REMARK    5  A    between atoms: C_17  and  C_19
REMARK    6  A    between atoms: N_22  and  C_25
REMARK    7  A    between atoms: C_30  and  N_31
REMARK                            x       y       z     vdW  Elec       q    Type
REMARK                         _______ _______ _______ _____ _____    ______ ____
ROOT
ATOM      1  C   UNL     1       2.964  -2.074   2.273  0.00  0.00    +0.034 A 
ATOM      2  C   UNL     1       3.429  -0.937   2.848  0.00  0.00    +0.070 A 
ATOM      3  S   UNL     1       5.133  -0.969   2.315  0.00  0.00    -0.060 S 
ATOM      4  C   UNL     1       5.075  -2.400   1.433  0.00  0.00    +0.165 A 
ATOM      5  N   UNL     1       3.825  -2.787   1.572  0.00  0.00    -0.231 NA
ATOM      6  N   UNL     1       6.099  -3.025   0.732  0.00  0.00    -0.264 N 
ATOM      7  C   UNL     1       7.330  -2.477   0.706  0.00  0.00    +0.222 C 
ATOM      8  O   UNL     1       7.544  -1.438   1.295  0.00  0.00    -0.275 OA
ATOM      9  H   UNL     1       5.929  -3.856   0.261  0.00  0.00    +0.157 HD
ENDROOT
BRANCH   7  10
ATOM     10  C   UNL     1       8.441  -3.154  -0.054  0.00  0.00    +0.078 C 
ATOM     11  C   UNL     1       8.671  -4.555   0.518  0.00  0.00    +0.031 C 
ATOM     12  C   UNL     1       9.777  -5.253  -0.279  0.00  0.00    +0.106 C 
ATOM     13  N   UNL     1      10.972  -4.398  -0.279  0.00  0.00    -0.328 N 
ATOM     14  C   UNL     1      10.843  -3.004  -0.725  0.00  0.00    +0.106 C 
ATOM     15  C   UNL     1       9.725  -2.331   0.078  0.00  0.00    +0.031 C 
BRANCH  13  16
ATOM     16  C   UNL     1      12.206  -4.901   0.138  0.00  0.00    +0.060 A 
ATOM     17  C   UNL     1      12.618  -4.734   1.454  0.00  0.00    +0.025 A 
ATOM     18  C   UNL     1      13.839  -5.232   1.863  0.00  0.00    +0.002 A 
ATOM     19  C   UNL     1      14.652  -5.898   0.964  0.00  0.00    +0.002 A 
ATOM     20  C   UNL     1      14.246  -6.066  -0.347  0.00  0.00    +0.034 A 
ATOM     21  C   UNL     1      13.023  -5.575  -0.761  0.00  0.00    +0.147 A 
BRANCH  21  22
ATOM     22  N   UNL     1      12.586  -5.760  -2.163  0.00  0.00    +0.058 N 
ATOM     23  O   UNL     1      13.249  -6.431  -2.919  0.00  0.00    -0.126 OA
ATOM     24  O   UNL     1      11.566  -5.241  -2.552  0.00  0.00    -0.126 OA
ENDBRANCH  21  22
ENDBRANCH  13  16
ENDBRANCH   7  10
BRANCH   1  25
ATOM     25  C   UNL     1       1.529  -2.506   2.433  0.00  0.00    -0.022 C 
BRANCH  25  31
ATOM     26  C   UNL     1      -0.056   1.454   0.030  0.00  0.00    +0.005 C 
ATOM     27  C   UNL     1      -0.028  -0.076   0.034  0.00  0.00    -0.031 C 
ATOM     28  C   UNL     1      -1.462  -0.614   0.059  0.00  0.00    +0.003 C 
ATOM     29  C   UNL     1      -1.421  -2.143   0.142  0.00  0.00    -0.031 C 
ATOM     30  C   UNL     1      -0.623  -2.560   1.379  0.00  0.00    -0.075 C 
ATOM     31  N   UNL     1       0.745  -2.038   1.282  0.00  0.00    +0.384 N 
ATOM     32  C   UNL     1       0.720  -0.570   1.274  0.00  0.00    -0.075 C 
ATOM     33  C   UNL     1      -2.847  -2.687   0.245  0.00  0.00    +0.005 C 
ATOM     34  H   UNL     1       1.171  -2.370   0.430  0.00  0.00    -0.081 HD
ENDBRANCH  25  31
ENDBRANCH   1  25
TORSDOF 5
