REMARK  Name = ZINC19879043
REMARK  6 active torsions:
REMARK  status: ('A' for Active; 'I' for Inactive)
REMARK    1  A    between atoms: C_1  and  C_2
REMARK    2  A    between atoms: C_2  and  C_4
REMARK    3  A    between atoms: C_2  and  C_15
REMARK    4  A    between atoms: C_15  and  C_21
REMARK    5  A    between atoms: N_16  and  N_17
REMARK    6  A    between atoms: C_24  and  O_27
REMARK                            x       y       z     vdW  Elec       q    Type
REMARK                         _______ _______ _______ _____ _____    ______ ____
ROOT
ATOM      1  C   UNL     1       5.400  -1.726   1.179  0.00  0.00    +0.073 C 
ATOM      2  N   UNL     1       6.092  -1.951   0.105  0.00  0.00    -0.183 NA
ENDROOT
BRANCH   2   3
ATOM      3  N   UNL     1       7.039  -2.983   0.085  0.00  0.00    -0.191 N 
ATOM      4  C   UNL     1       7.672  -3.295  -1.063  0.00  0.00    +0.317 C 
ATOM      5  O   UNL     1       8.494  -4.191  -1.081  0.00  0.00    -0.251 OA
ATOM      6  N   UNL     1       7.395  -2.613  -2.192  0.00  0.00    -0.312 N 
ATOM      7  H   UNL     1       7.266  -3.540   1.006  0.00  0.00    +0.179 HD
ATOM      8  H   UNL     1       7.912  -2.867  -3.130  0.00  0.00    +0.147 HD
ATOM      9  H   UNL     1       6.652  -1.802  -2.177  0.00  0.00    +0.147 HD
ENDBRANCH   2   3
BRANCH   1  10
ATOM     10  C   UNL     1       5.487  -2.656   2.320  0.00  0.00    -0.002 A 
ATOM     11  C   UNL     1       5.630  -4.028   2.096  0.00  0.00    +0.013 A 
ATOM     12  C   UNL     1       5.715  -4.894   3.165  0.00  0.00    +0.046 A 
ATOM     13  C   UNL     1       5.648  -4.405   4.464  0.00  0.00    +0.117 A 
ATOM     14  C   UNL     1       5.500  -3.043   4.691  0.00  0.00    +0.046 A 
ATOM     15  C   UNL     1       5.419  -2.170   3.628  0.00  0.00    +0.013 A 
BRANCH  13  16
ATOM     16  O   UNL     1       5.726  -5.262   5.515  0.00  0.00    -0.507 OA
ATOM     17  H   UNL     1       5.673  -4.877   6.544  0.00  0.00    +0.292 HD
ENDBRANCH  13  16
ENDBRANCH   1  10
BRANCH   1  19
ATOM     18  C   UNL     1       3.048  -0.962   1.359  0.00  0.00    +0.018 C 
ATOM     19  C   UNL     1       4.508  -0.514   1.261  0.00  0.00    +0.082 C 
BRANCH  19  20
ATOM     20  C   UNL     1       4.696   0.342   0.007  0.00  0.00    +0.216 C 
ATOM     21  C   UNL     1       3.808   1.560   0.075  0.00  0.00    +0.007 A 
ATOM     22  C   UNL     1       2.446   1.732   0.154  0.00  0.00    +0.008 A 
ATOM     23  C   UNL     1       1.913   3.010   0.203  0.00  0.00    +0.000 A 
ATOM     24  C   UNL     1       2.746   4.114   0.173  0.00  0.00    +0.001 A 
ATOM     25  C   UNL     1       4.114   3.953   0.094  0.00  0.00    +0.015 A 
ATOM     26  C   UNL     1       4.659   2.668   0.044  0.00  0.00    +0.066 A 
ATOM     27  C   UNL     1       6.046   2.177  -0.041  0.00  0.00    +0.340 C 
ATOM     28  O   UNL     1       7.033   2.884  -0.085  0.00  0.00    -0.245 OA
ATOM     29  O   UNL     1       6.062   0.834  -0.062  0.00  0.00    -0.452 OA
ENDBRANCH  19  20
ENDBRANCH   1  19
TORSDOF 5
