REMARK  Name = ZINC38576539
REMARK  6 active torsions:
REMARK  status: ('A' for Active; 'I' for Inactive)
REMARK    1  A    between atoms: C_1  and  C_2
REMARK    2  A    between atoms: C_4  and  C_25
REMARK    3  A    between atoms: C_29  and  O_31
REMARK    4  A    between atoms: O_31  and  C_32
REMARK    5  A    between atoms: C_32  and  C_33
REMARK    6  A    between atoms: C_32  and  C_34
REMARK                            x       y       z     vdW  Elec       q    Type
REMARK                         _______ _______ _______ _____ _____    ______ ____
ROOT
ATOM      1  C   UNL     1      -0.330   1.192  -0.541  0.00  0.00    +0.062 C 
ATOM      2  C   UNL     1      -0.440  -0.311  -0.534  0.00  0.00    +0.023 C 
ATOM      3  C   UNL     1      -1.557  -0.967  -0.355  0.00  0.00    +0.005 C 
ATOM      4  C   UNL     1      -2.938  -0.397  -0.065  0.00  0.00    +0.108 C 
ATOM      5  S   UNL     1      -4.162  -1.595  -0.689  0.00  0.00    -0.139 S 
ATOM      6  C   UNL     1      -4.180  -2.920   0.536  0.00  0.00    +0.165 C 
ATOM      7  C   UNL     1      -2.913  -3.218   1.202  0.00  0.00    +0.225 C 
ATOM      8  O   UNL     1      -3.030  -3.697   2.309  0.00  0.00    -0.275 OA
ATOM      9  N   UNL     1      -1.669  -3.059   0.810  0.00  0.00    -0.291 N 
ATOM     10  C   UNL     1      -1.256  -2.443  -0.445  0.00  0.00    +0.210 C 
ATOM     11  N   UNL     1       0.204  -2.505  -0.606  0.00  0.00    -0.213 N 
ATOM     12  N   UNL     1       0.629  -1.171  -0.722  0.00  0.00    -0.265 N 
ATOM     13  C   UNL     1       0.974  -3.612  -0.641  0.00  0.00    +0.150 C 
ATOM     14  N   UNL     1       0.447  -4.818  -0.531  0.00  0.00    -0.221 NA
ATOM     15  C   UNL     1       1.161  -5.938  -0.495  0.00  0.00    +0.225 C 
ATOM     16  N   UNL     1       2.466  -5.942  -0.246  0.00  0.00    -0.218 NA
ATOM     17  C   UNL     1       3.036  -4.750  -0.101  0.00  0.00    +0.164 C 
ATOM     18  N   UNL     1       4.031  -4.297   0.601  0.00  0.00    -0.219 NA
ATOM     19  C   UNL     1       3.997  -2.961   0.688  0.00  0.00    +0.218 C 
ATOM     20  N   UNL     1       3.089  -2.419  -0.076  0.00  0.00    -0.253 NA
ATOM     21  C   UNL     1       2.466  -3.520  -0.814  0.00  0.00    +0.239 C 
ATOM     22  H   UNL     1      -0.970  -3.376   1.402  0.00  0.00    +0.151 HD
ATOM     23  H   UNL     1       1.540  -0.893  -0.904  0.00  0.00    +0.170 HD
ENDROOT
BRANCH   4  24
ATOM     24  C   UNL     1      -3.105   0.925  -0.770  0.00  0.00    -0.027 A 
ATOM     25  C   UNL     1      -3.012   0.989  -2.148  0.00  0.00    +0.005 A 
ATOM     26  C   UNL     1      -3.165   2.199  -2.798  0.00  0.00    +0.004 A 
ATOM     27  C   UNL     1      -3.411   3.348  -2.072  0.00  0.00    +0.045 A 
ATOM     28  C   UNL     1      -3.505   3.287  -0.689  0.00  0.00    +0.121 A 
ATOM     29  C   UNL     1      -3.357   2.070  -0.040  0.00  0.00    +0.050 A 
BRANCH  28  30
ATOM     30  O   UNL     1      -3.747   4.416   0.028  0.00  0.00    -0.489 OA
BRANCH  30  31
ATOM     31  C   UNL     1      -3.777   5.649  -0.694  0.00  0.00    +0.167 C 
ATOM     32  C   UNL     1      -5.173   5.862  -1.282  0.00  0.00    +0.051 C 
ATOM     33  C   UNL     1      -3.441   6.802   0.253  0.00  0.00    +0.051 C 
ENDBRANCH  30  31
ENDBRANCH  28  30
ENDBRANCH   4  24
TORSDOF 3
