REMARK  Name = ZINC31057153
REMARK  8 active torsions:
REMARK  status: ('A' for Active; 'I' for Inactive)
REMARK    1  A    between atoms: C_5  and  C_7
REMARK    2  A    between atoms: C_7  and  C_8
REMARK    3  A    between atoms: C_8  and  C_9
REMARK    4  A    between atoms: C_9  and  N_10
REMARK    5  A    between atoms: C_11  and  C_13
REMARK    6  A    between atoms: N_18  and  C_20
REMARK    7  A    between atoms: C_20  and  C_21
REMARK    8  A    between atoms: C_23  and  C_26
REMARK                            x       y       z     vdW  Elec       q    Type
REMARK                         _______ _______ _______ _____ _____    ______ ____
ROOT
ATOM      1  C   UNL     1       0.256   0.907   4.905  0.00  0.00    +0.058 C 
ATOM      2  C   UNL     1       0.275  -0.624   4.898  0.00  0.00    +0.009 C 
ATOM      3  C   UNL     1       0.963  -1.123   6.171  0.00  0.00    -0.018 C 
ATOM      4  C   UNL     1       0.226  -0.573   7.394  0.00  0.00    -0.078 C 
ATOM      5  N   UNL     1       0.236   0.895   7.354  0.00  0.00    +0.386 N 
ATOM      6  C   UNL     1      -0.461   1.399   6.164  0.00  0.00    -0.065 C 
ATOM      7  H   UNL     1       1.285   1.222   7.291  0.00  0.00    -0.081 HD
ENDROOT
BRANCH   1   9
ATOM      8  N   UNL     1      -0.020   1.094   2.454  0.00  0.00    -0.315 N 
ATOM      9  C   UNL     1      -0.473   1.407   3.684  0.00  0.00    +0.214 C 
ATOM     10  O   UNL     1      -1.468   2.090   3.808  0.00  0.00    -0.276 OA
ATOM     11  H   UNL     1       0.881   0.474   2.341  0.00  0.00    +0.149 HD
BRANCH   8  12
ATOM     12  C   UNL     1      -0.729   1.579   1.267  0.00  0.00    +0.104 C 
BRANCH  12  13
ATOM     13  C   UNL     1      -0.013   1.086   0.008  0.00  0.00    +0.023 C 
BRANCH  13  14
ATOM     14  C   UNL     1      -0.753   1.593  -1.232  0.00  0.00    +0.038 C 
BRANCH  14  19
ATOM     15  C   UNL     1       1.527   1.470  -4.239  0.00  0.00    +0.000 A 
ATOM     16  C   UNL     1       1.246   0.215  -4.747  0.00  0.00    +0.001 A 
ATOM     17  C   UNL     1       0.319  -0.594  -4.119  0.00  0.00    +0.020 A 
ATOM     18  C   UNL     1      -0.328  -0.149  -2.980  0.00  0.00    +0.044 A 
ATOM     19  C   UNL     1      -0.047   1.107  -2.471  0.00  0.00    -0.029 A 
ATOM     20  C   UNL     1       0.876   1.917  -3.104  0.00  0.00    +0.005 A 
ATOM     21 CL   UNL     1      -1.494  -1.165  -2.190  0.00  0.00    -0.083 Cl
ENDBRANCH  14  19
ENDBRANCH  13  14
ENDBRANCH  12  13
ENDBRANCH   8  12
ENDBRANCH   1   9
BRANCH   5  22
ATOM     22  C   UNL     1      -0.341   1.460   8.581  0.00  0.00    +0.022 C 
BRANCH  22  23
ATOM     23  C   UNL     1       0.543   1.121   9.754  0.00  0.00    +0.211 A 
ATOM     24  N   UNL     1       1.546   1.834  10.203  0.00  0.00    -0.192 NA
ATOM     25  C   UNL     1       2.036   1.146  11.261  0.00  0.00    +0.209 A 
ATOM     26  N   UNL     1       1.312   0.061  11.384  0.00  0.00    -0.056 NA
ATOM     27  O   UNL     1       0.453   0.035  10.528  0.00  0.00    -0.340 OA
BRANCH  25  28
ATOM     28  C   UNL     1       3.176   1.542  12.112  0.00  0.00    +0.060 A 
ATOM     29  C   UNL     1       3.715   0.891  13.190  0.00  0.00    +0.019 A 
ATOM     30  C   UNL     1       4.793   1.456  13.834  0.00  0.00    +0.008 A 
ATOM     31  C   UNL     1       5.281   2.643  13.390  0.00  0.00    +0.046 A 
ATOM     32  S   UNL     1       4.206   2.996  12.009  0.00  0.00    -0.093 S 
ENDBRANCH  25  28
ENDBRANCH  22  23
ENDBRANCH   5  22
TORSDOF 8
