REMARK  Name = ZINC54574658
REMARK  6 active torsions:
REMARK  status: ('A' for Active; 'I' for Inactive)
REMARK    1  A    between atoms: C_1  and  C_2
REMARK    2  A    between atoms: C_2  and  C_4
REMARK    3  A    between atoms: C_2  and  C_24
REMARK    4  A    between atoms: C_4  and  N_5
REMARK    5  A    between atoms: C_11  and  C_14
REMARK    6  A    between atoms: C_24  and  N_25
REMARK                            x       y       z     vdW  Elec       q    Type
REMARK                         _______ _______ _______ _____ _____    ______ ____
ROOT
ATOM      1  N   UNL     1       2.125  -0.092  -1.209  0.00  0.00    -0.299 N 
ATOM      2  C   UNL     1       2.955  -0.418  -2.220  0.00  0.00    +0.302 C 
ATOM      3  O   UNL     1       2.561  -1.125  -3.126  0.00  0.00    -0.253 OA
ATOM      4  N   UNL     1       4.223   0.041  -2.225  0.00  0.00    -0.282 N 
ATOM      5  C   UNL     1       5.120  -0.202  -3.368  0.00  0.00    +0.114 C 
ATOM      6  C   UNL     1       5.501   1.156  -3.965  0.00  0.00    +0.054 C 
ATOM      7  C   UNL     1       5.877   2.118  -2.878  0.00  0.00    -0.039 C 
ATOM      8  C   UNL     1       5.551   1.973  -1.615  0.00  0.00    -0.004 C 
ATOM      9  C   UNL     1       4.763   0.808  -1.094  0.00  0.00    +0.137 C 
ATOM     10  H   UNL     1       2.460   0.410  -0.449  0.00  0.00    +0.150 HD
ENDROOT
BRANCH   7  11
ATOM     11  C   UNL     1       6.667   3.307  -3.253  0.00  0.00    +0.005 A 
ATOM     12  C   UNL     1       7.988   3.338  -3.566  0.00  0.00    +0.093 A 
ATOM     13  N   UNL     1       8.361   4.619  -3.860  0.00  0.00    -0.345 N 
ATOM     14  H   UNL     1       9.258   4.890  -4.113  0.00  0.00    +0.167 HD
ATOM     15  C   UNL     1       7.285   5.468  -3.747  0.00  0.00    +0.139 A 
ATOM     16  C   UNL     1       6.177   4.690  -3.369  0.00  0.00    +0.026 A 
ATOM     17  C   UNL     1       4.938   5.301  -3.186  0.00  0.00    +0.013 A 
ATOM     18  C   UNL     1       4.849   6.666  -3.390  0.00  0.00    +0.020 A 
ATOM     19  C   UNL     1       5.981   7.372  -3.765  0.00  0.00    +0.113 A 
ATOM     20  N   UNL     1       7.143   6.775  -3.925  0.00  0.00    -0.237 NA
ENDBRANCH   7  11
BRANCH   1  21
ATOM     21  C   UNL     1       0.718  -0.497  -1.257  0.00  0.00    +0.110 C 
BRANCH  21  23
ATOM     22  C   UNL     1      -0.016   1.524   0.015  0.00  0.00    +0.011 C 
ATOM     23  C   UNL     1       0.003  -0.005   0.003  0.00  0.00    +0.024 C 
BRANCH  23  24
ATOM     24  C   UNL     1      -1.433  -0.533   0.013  0.00  0.00    +0.148 C 
BRANCH  24  25
ATOM     25  N   UNL     1      -2.081  -0.164   1.274  0.00  0.00    -0.271 N 
ATOM     26  C   UNL     1      -3.243   0.511   1.402  0.00  0.00    +0.108 A 
ATOM     27  C   UNL     1      -3.495   0.651   2.724  0.00  0.00    +0.041 A 
ATOM     28  C   UNL     1      -2.452   0.041   3.428  0.00  0.00    +0.134 A 
ATOM     29  N   UNL     1      -1.607  -0.453   2.560  0.00  0.00    -0.180 NA
ENDBRANCH  24  25
ENDBRANCH  23  24
ENDBRANCH  21  23
ENDBRANCH   1  21
TORSDOF 5
