REMARK  Name = ZINC39630996
REMARK  13 active torsions:
REMARK  status: ('A' for Active; 'I' for Inactive)
REMARK    1  A    between atoms: C_1  and  C_2
REMARK    2  A    between atoms: C_12  and  O_13
REMARK    3  A    between atoms: O_13  and  C_14
REMARK    4  A    between atoms: C_14  and  C_15
REMARK    5  A    between atoms: C_19  and  C_28
REMARK    6  A    between atoms: N_30  and  C_31
REMARK    7  A    between atoms: C_31  and  C_32
REMARK    8  A    between atoms: C_32  and  C_33
REMARK    9  A    between atoms: C_32  and  C_34
REMARK   10  A    between atoms: C_32  and  C_35
REMARK   11  A    between atoms: C_35  and  N_36
REMARK   12  A    between atoms: N_36  and  C_37
REMARK   13  A    between atoms: N_36  and  C_38
REMARK                            x       y       z     vdW  Elec       q    Type
REMARK                         _______ _______ _______ _____ _____    ______ ____
ROOT
ATOM      1  C   UNL     1       0.211  -6.585   3.254  0.00  0.00    +0.253 C 
ATOM      2  O   UNL     1       0.220  -6.917   2.088  0.00  0.00    -0.272 OA
ATOM      3  N   UNL     1       0.133  -7.521   4.221  0.00  0.00    -0.297 N 
ATOM      4  C   UNL     1       0.103  -7.311   5.687  0.00  0.00    +0.121 C 
ATOM      5  C   UNL     1      -0.917  -8.348   6.209  0.00  0.00    +0.100 C 
ATOM      6  C   UNL     1      -0.941  -9.449   5.136  0.00  0.00    -0.004 C 
ATOM      7  C   UNL     1       0.051  -8.992   4.056  0.00  0.00    +0.115 C 
ATOM      8  C   UNL     1      -0.496 -10.780   5.734  0.00  0.00    -0.010 C 
ATOM      9  C   UNL     1      -0.584 -11.871   4.663  0.00  0.00    -0.082 C 
ATOM     10  N   UNL     1      -1.964 -11.969   4.174  0.00  0.00    +0.379 N 
ATOM     11  C   UNL     1      -2.353 -10.715   3.517  0.00  0.00    -0.082 C 
ATOM     12  C   UNL     1      -2.340  -9.575   4.540  0.00  0.00    -0.010 C 
ATOM     13  H   UNL     1      -2.033 -12.728   3.513  0.00  0.00    -0.086 HD
ATOM     14  H   UNL     1      -2.583 -12.146   4.951  0.00  0.00    -0.086 HD
ENDROOT
BRANCH   5  15
ATOM     15  C   UNL     1      -2.279  -7.719   6.350  0.00  0.00    +0.218 C 
ATOM     16  O   UNL     1      -2.587  -6.777   5.651  0.00  0.00    -0.275 OA
ATOM     17  N   UNL     1      -3.155  -8.203   7.252  0.00  0.00    -0.315 N 
ATOM     18  H   UNL     1      -2.909  -8.956   7.811  0.00  0.00    +0.149 HD
BRANCH  17  19
ATOM     19  C   UNL     1      -4.479  -7.591   7.389  0.00  0.00    +0.108 C 
BRANCH  19  20
ATOM     20  C   UNL     1      -5.270  -8.325   8.474  0.00  0.00    -0.034 C 
ATOM     21  C   UNL     1      -5.425  -9.796   8.085  0.00  0.00    +0.010 C 
ATOM     22  C   UNL     1      -4.522  -8.225   9.805  0.00  0.00    +0.010 C 
BRANCH  20  23
ATOM     23  C   UNL     1      -6.653  -7.686   8.617  0.00  0.00    -0.072 C 
BRANCH  23  24
ATOM     24  N   UNL     1      -7.414  -8.393   9.656  0.00  0.00    +0.376 N 
ATOM     25  C   UNL     1      -7.120  -7.798  10.967  0.00  0.00    -0.097 C 
ATOM     26  C   UNL     1      -8.851  -8.275   9.376  0.00  0.00    -0.097 C 
ATOM     27  H   UNL     1      -7.151  -9.367   9.662  0.00  0.00    -0.083 HD
ENDBRANCH  23  24
ENDBRANCH  20  23
ENDBRANCH  19  20
ENDBRANCH  17  19
ENDBRANCH   5  15
BRANCH   1  28
ATOM     28  C   UNL     1       0.287  -5.125   3.623  0.00  0.00    +0.324 C 
BRANCH  28  29
ATOM     29  O   UNL     1       0.362  -4.337   2.433  0.00  0.00    -0.479 OA
BRANCH  29  41
ATOM     30  C   UNL     1       0.751   1.595   0.611  0.00  0.00    +0.045 C 
ATOM     31  C   UNL     1       0.667   0.097   0.470  0.00  0.00    -0.033 A 
ATOM     32  C   UNL     1       0.663  -0.488  -0.754  0.00  0.00    +0.096 A 
ATOM     33  C   UNL     1       0.584  -1.894  -0.860  0.00  0.00    +0.338 A 
ATOM     34  O   UNL     1       0.581  -2.407  -1.964  0.00  0.00    -0.245 OA
ATOM     35  O   UNL     1       0.512  -2.678   0.226  0.00  0.00    -0.418 OA
ATOM     36  C   UNL     1       0.512  -2.159   1.473  0.00  0.00    +0.181 A 
ATOM     37  C   UNL     1       0.594  -0.768   1.651  0.00  0.00    +0.024 A 
ATOM     38  C   UNL     1       0.600  -0.227   2.942  0.00  0.00    +0.012 A 
ATOM     39  C   UNL     1       0.530  -1.064   4.032  0.00  0.00    +0.004 A 
ATOM     40  C   UNL     1       0.454  -2.438   3.859  0.00  0.00    +0.049 A 
ATOM     41  C   UNL     1       0.437  -2.989   2.590  0.00  0.00    +0.164 A 
ENDBRANCH  29  41
ENDBRANCH  28  29
ENDBRANCH   1  28
TORSDOF 8
