REMARK  Name = ZINC60090402
REMARK  11 active torsions:
REMARK  status: ('A' for Active; 'I' for Inactive)
REMARK    1  A    between atoms: C_1  and  C_2
REMARK    2  A    between atoms: C_2  and  C_3
REMARK    3  A    between atoms: C_3  and  N_4
REMARK    4  A    between atoms: N_4  and  C_5
REMARK    5  A    between atoms: N_4  and  C_25
REMARK    6  A    between atoms: C_5  and  C_6
REMARK    7  A    between atoms: N_8  and  N_9
REMARK    8  A    between atoms: C_12  and  C_16
REMARK    9  A    between atoms: C_12  and  C_17
REMARK   10  A    between atoms: C_20  and  O_23
REMARK   11  A    between atoms: O_23  and  C_24
REMARK                            x       y       z     vdW  Elec       q    Type
REMARK                         _______ _______ _______ _____ _____    ______ ____
ROOT
ATOM      1  C   UNL     1      -1.443  -1.936  -0.382  0.00  0.00    +0.213 C 
ATOM      2  O   UNL     1      -0.992  -1.187   0.459  0.00  0.00    -0.276 OA
ATOM      3  N   UNL     1      -2.729  -2.332  -0.311  0.00  0.00    -0.225 N 
ATOM      4  H   UNL     1      -3.090  -2.931  -0.983  0.00  0.00    +0.173 HD
ENDROOT
BRANCH   3   5
ATOM      5  N   UNL     1      -3.546  -1.879   0.734  0.00  0.00    -0.137 N 
ATOM      6  C   UNL     1      -3.909  -2.631   1.791  0.00  0.00    +0.267 C 
ATOM      7  O   UNL     1      -3.604  -3.784   2.010  0.00  0.00    -0.271 OA
ATOM      8  C   UNL     1      -4.779  -1.736   2.651  0.00  0.00    +0.137 C 
ATOM      9  N   UNL     1      -4.807  -0.464   1.909  0.00  0.00    -0.280 N 
ATOM     10  C   UNL     1      -4.055  -0.644   0.808  0.00  0.00    +0.327 C 
ATOM     11  O   UNL     1      -3.863   0.217  -0.027  0.00  0.00    -0.251 OA
ATOM     12  C   UNL     1      -6.189  -2.316   2.778  0.00  0.00    +0.047 C 
ATOM     13  H   UNL     1      -5.274   0.347   2.166  0.00  0.00    +0.152 HD
BRANCH   8  14
ATOM     14  C   UNL     1      -4.160  -1.543   4.011  0.00  0.00    -0.015 A 
ATOM     15  C   UNL     1      -3.369  -2.538   4.558  0.00  0.00    +0.010 A 
ATOM     16  C   UNL     1      -2.801  -2.363   5.804  0.00  0.00    +0.046 A 
ATOM     17  C   UNL     1      -3.023  -1.189   6.508  0.00  0.00    +0.120 A 
ATOM     18  C   UNL     1      -3.815  -0.192   5.958  0.00  0.00    +0.046 A 
ATOM     19  C   UNL     1      -4.378  -0.369   4.709  0.00  0.00    +0.010 A 
BRANCH  17  20
ATOM     20  O   UNL     1      -2.465  -1.015   7.735  0.00  0.00    -0.495 OA
ATOM     21  C   UNL     1      -2.736   0.219   8.403  0.00  0.00    +0.277 C 
ENDBRANCH  17  20
ENDBRANCH   8  14
ENDBRANCH   3   5
BRANCH   1  22
ATOM     22  C   UNL     1      -0.566  -2.423  -1.505  0.00  0.00    +0.020 C 
BRANCH  22  23
ATOM     23  N   UNL     1       0.800  -1.916  -1.315  0.00  0.00    +0.388 N 
ATOM     24  H   UNL     1       1.392  -2.257  -2.058  0.00  0.00    -0.081 HD
BRANCH  23  25
ATOM     25  C   UNL     1       0.784  -0.447  -1.337  0.00  0.00    -0.063 C 
ATOM     26  C   UNL     1       0.342   0.044  -2.721  0.00  0.00    -0.010 C 
ATOM     27  C   UNL     1       0.104   1.551  -2.644  0.00  0.00    +0.034 C 
ATOM     28  C   UNL     1       1.294   2.244  -2.032  0.00  0.00    -0.044 A 
ATOM     29  C   UNL     1       1.415   3.614  -2.228  0.00  0.00    +0.004 A 
ATOM     30  C   UNL     1       2.479   4.307  -1.689  0.00  0.00    +0.000 A 
ATOM     31  C   UNL     1       3.432   3.634  -0.948  0.00  0.00    +0.000 A 
ATOM     32  C   UNL     1       3.315   2.273  -0.754  0.00  0.00    +0.004 A 
ATOM     33  C   UNL     1       2.246   1.573  -1.299  0.00  0.00    -0.046 A 
ATOM     34  C   UNL     1       2.188   0.086  -1.061  0.00  0.00    +0.020 C 
ENDBRANCH  23  25
BRANCH  23  35
ATOM     35  C   UNL     1       1.320  -2.381  -0.023  0.00  0.00    -0.078 C 
BRANCH  35  37
ATOM     36  C   UNL     1       2.124  -4.377   1.247  0.00  0.00    +0.002 C 
ATOM     37  C   UNL     1       1.455  -3.905  -0.046  0.00  0.00    -0.022 C 
ENDBRANCH  35  37
ENDBRANCH  23  35
ENDBRANCH  22  23
ENDBRANCH   1  22
TORSDOF 8
