REMARK  Name = ZINC12983455
REMARK  10 active torsions:
REMARK  status: ('A' for Active; 'I' for Inactive)
REMARK    1  A    between atoms: C_1  and  C_2
REMARK    2  A    between atoms: C_2  and  C_4
REMARK    3  A    between atoms: C_2  and  O_17
REMARK    4  A    between atoms: N_6  and  C_7
REMARK    5  A    between atoms: O_17  and  C_18
REMARK    6  A    between atoms: C_18  and  C_20
REMARK    7  A    between atoms: C_23  and  S_26
REMARK    8  A    between atoms: S_26  and  N_29
REMARK    9  A    between atoms: N_29  and  C_30
REMARK   10  A    between atoms: N_29  and  C_31
REMARK                            x       y       z     vdW  Elec       q    Type
REMARK                         _______ _______ _______ _____ _____    ______ ____
ROOT
ATOM      1  C   UNL     1       2.377  -4.779   1.397  0.00  0.00    +0.062 C 
ATOM      2  C   UNL     1       2.381  -4.262  -0.043  0.00  0.00    +0.259 C 
ENDROOT
BRANCH   2   3
ATOM      3  C   UNL     1       3.587  -4.802  -0.767  0.00  0.00    +0.254 C 
ATOM      4  O   UNL     1       4.452  -4.044  -1.153  0.00  0.00    -0.272 OA
ATOM      5  N   UNL     1       3.704  -6.126  -0.987  0.00  0.00    -0.307 N 
ATOM      6  H   UNL     1       3.012  -6.732  -0.679  0.00  0.00    +0.149 HD
BRANCH   5   7
ATOM      7  C   UNL     1       4.876  -6.651  -1.692  0.00  0.00    +0.035 C 
ATOM      8  C   UNL     1       6.143  -6.292  -0.912  0.00  0.00    +0.029 C 
ATOM      9  C   UNL     1       7.367  -6.840  -1.648  0.00  0.00    -0.008 C 
ATOM     10  C   UNL     1       7.254  -8.361  -1.764  0.00  0.00    +0.007 C 
ATOM     11  C   UNL     1       5.987  -8.720  -2.544  0.00  0.00    -0.008 C 
ATOM     12  C   UNL     1       4.763  -8.172  -1.808  0.00  0.00    +0.029 C 
ATOM     13  C   UNL     1       6.058  -8.105  -3.943  0.00  0.00    +0.007 C 
ATOM     14  C   UNL     1       6.172  -6.584  -3.827  0.00  0.00    -0.008 C 
ATOM     15  C   UNL     1       7.438  -6.225  -3.047  0.00  0.00    +0.007 C 
ATOM     16  C   UNL     1       4.947  -6.036  -3.091  0.00  0.00    +0.029 C 
ENDBRANCH   5   7
ENDBRANCH   2   3
BRANCH   2  17
ATOM     17  O   UNL     1       2.429  -2.811  -0.036  0.00  0.00    -0.449 OA
BRANCH  17  18
ATOM     18  C   UNL     1       1.250  -2.159  -0.021  0.00  0.00    +0.340 C 
ATOM     19  O   UNL     1       0.210  -2.787  -0.014  0.00  0.00    -0.245 OA
BRANCH  18  20
ATOM     20  C   UNL     1       1.222  -0.682  -0.013  0.00  0.00    +0.059 A 
ATOM     21  C   UNL     1       0.002  -0.004   0.002  0.00  0.00    +0.017 A 
ATOM     22  C   UNL     1      -0.017   1.375   0.010  0.00  0.00    +0.029 A 
ATOM     23  C   UNL     1       1.170   2.086   0.002  0.00  0.00    +0.105 A 
ATOM     24  C   UNL     1       2.383   1.421  -0.013  0.00  0.00    +0.029 A 
ATOM     25  C   UNL     1       2.416   0.042  -0.021  0.00  0.00    +0.017 A 
BRANCH  23  26
ATOM     26  S   UNL     1       1.137   3.848   0.012  0.00  0.00    +0.060 S 
ATOM     27  O   UNL     1       2.369   4.281  -0.548  0.00  0.00    -0.153 OA
ATOM     28  O   UNL     1      -0.121   4.234  -0.525  0.00  0.00    -0.153 OA
BRANCH  26  29
ATOM     29  N   UNL     1       1.143   4.329   1.596  0.00  0.00    -0.183 NA
ATOM     30  C   UNL     1       2.414   4.566   2.285  0.00  0.00    +0.131 C 
ATOM     31  C   UNL     1      -0.123   4.518   2.309  0.00  0.00    +0.131 C 
ENDBRANCH  26  29
ENDBRANCH  23  26
ENDBRANCH  18  20
ENDBRANCH  17  18
ENDBRANCH   2  17
TORSDOF 7
