REMARK  Name = ZINC39948844
REMARK  13 active torsions:
REMARK  status: ('A' for Active; 'I' for Inactive)
REMARK    1  A    between atoms: C_1  and  C_2
REMARK    2  A    between atoms: C_2  and  O_3
REMARK    3  A    between atoms: O_3  and  C_4
REMARK    4  A    between atoms: C_4  and  C_6
REMARK    5  A    between atoms: C_6  and  C_7
REMARK    6  A    between atoms: C_7  and  C_8
REMARK    7  A    between atoms: C_8  and  N_9
REMARK    8  A    between atoms: C_10  and  C_12
REMARK    9  A    between atoms: C_12  and  S_13
REMARK   10  A    between atoms: S_13  and  C_14
REMARK   11  A    between atoms: C_18  and  C_27
REMARK   12  A    between atoms: N_19  and  C_20
REMARK   13  A    between atoms: C_24  and  C_26
REMARK                            x       y       z     vdW  Elec       q    Type
REMARK                         _______ _______ _______ _____ _____    ______ ____
ROOT
ATOM      1  C   UNL     1       3.322 -10.285  -5.603  0.00  0.00    +0.241 C 
ATOM      2  N   UNL     1       3.938 -10.886  -4.408  0.00  0.00    -0.237 N 
ATOM      3  N   UNL     1       3.035 -11.845  -3.935  0.00  0.00    -0.169 NA
ATOM      4  C   UNL     1       1.965 -11.900  -4.684  0.00  0.00    +0.151 C 
ATOM      5  N   UNL     1       2.034 -10.985  -5.741  0.00  0.00    -0.254 N 
ATOM      6  H   UNL     1       4.800 -10.660  -4.024  0.00  0.00    +0.171 HD
ENDROOT
BRANCH   4   7
ATOM      7  C   UNL     1       0.885 -12.767  -4.457  0.00  0.00    +0.022 C 
ATOM      8  C   UNL     1       0.795 -13.768  -3.490  0.00  0.00    +0.006 A 
ATOM      9  C   UNL     1       1.688 -14.212  -2.492  0.00  0.00    +0.010 A 
ATOM     10  C   UNL     1       1.328 -15.231  -1.670  0.00  0.00    +0.001 A 
ATOM     11  C   UNL     1       0.086 -15.859  -1.786  0.00  0.00    +0.002 A 
ATOM     12  C   UNL     1      -0.821 -15.485  -2.722  0.00  0.00    +0.026 A 
ATOM     13  C   UNL     1      -0.515 -14.427  -3.616  0.00  0.00    +0.043 A 
ATOM     14  N   UNL     1      -1.212 -13.884  -4.595  0.00  0.00    -0.380 N 
ATOM     15  C   UNL     1      -0.428 -12.807  -5.208  0.00  0.00    +0.152 C 
ATOM     16  H   UNL     1      -2.104 -14.152  -4.865  0.00  0.00    +0.160 HD
ENDBRANCH   4   7
BRANCH   5  17
ATOM     17  C   UNL     1       1.072 -10.774  -6.732  0.00  0.00    +0.038 A 
ATOM     18  C   UNL     1       0.015  -9.902  -6.502  0.00  0.00    +0.023 A 
ATOM     19  C   UNL     1      -0.934  -9.696  -7.483  0.00  0.00    +0.002 A 
ATOM     20  C   UNL     1      -0.835 -10.357  -8.694  0.00  0.00    +0.003 A 
ATOM     21  C   UNL     1       0.215 -11.227  -8.926  0.00  0.00    -0.049 A 
ATOM     22  C   UNL     1       1.172 -11.433  -7.951  0.00  0.00    +0.027 A 
ATOM     23  C   UNL     1       0.320 -11.945 -10.246  0.00  0.00    +0.044 C 
ENDBRANCH   5  17
BRANCH   1  24
ATOM     24  S   UNL     1       3.056  -8.508  -5.355  0.00  0.00    -0.108 S 
BRANCH  24  25
ATOM     25  C   UNL     1       2.031  -8.422  -3.861  0.00  0.00    +0.168 C 
BRANCH  25  27
ATOM     26  N   UNL     1       0.982  -6.672  -2.463  0.00  0.00    -0.315 N 
ATOM     27  C   UNL     1       1.733  -6.981  -3.539  0.00  0.00    +0.223 C 
ATOM     28  O   UNL     1       2.168  -6.098  -4.247  0.00  0.00    -0.275 OA
ATOM     29  H   UNL     1       0.634  -7.378  -1.896  0.00  0.00    +0.149 HD
BRANCH  26  30
ATOM     30  C   UNL     1       0.692  -5.271  -2.150  0.00  0.00    +0.105 C 
BRANCH  30  31
ATOM     31  C   UNL     1      -0.172  -5.198  -0.889  0.00  0.00    +0.030 C 
BRANCH  31  32
ATOM     32  C   UNL     1      -0.475  -3.735  -0.562  0.00  0.00    +0.122 C 
BRANCH  32  33
ATOM     33  C   UNL     1      -1.326  -3.663   0.680  0.00  0.00    +0.307 C 
ATOM     34  O   UNL     1      -1.657  -4.679   1.245  0.00  0.00    -0.251 OA
BRANCH  33  35
ATOM     35  O   UNL     1      -1.718  -2.472   1.158  0.00  0.00    -0.465 OA
BRANCH  35  37
ATOM     36  C   UNL     1      -2.868  -1.040   2.729  0.00  0.00    +0.048 C 
ATOM     37  C   UNL     1      -2.523  -2.479   2.338  0.00  0.00    +0.229 C 
ENDBRANCH  35  37
ENDBRANCH  33  35
ENDBRANCH  32  33
ENDBRANCH  31  32
ENDBRANCH  30  31
ENDBRANCH  26  30
ENDBRANCH  25  27
ENDBRANCH  24  25
ENDBRANCH   1  24
TORSDOF 11
