REMARK  Name = ZINC41021955
REMARK  14 active torsions:
REMARK  status: ('A' for Active; 'I' for Inactive)
REMARK    1  A    between atoms: C_1  and  C_2
REMARK    2  A    between atoms: C_2  and  C_3
REMARK    3  A    between atoms: C_3  and  S_4
REMARK    4  A    between atoms: S_4  and  C_5
REMARK    5  A    between atoms: C_10  and  C_28
REMARK    6  A    between atoms: C_12  and  C_16
REMARK    7  A    between atoms: C_13  and  C_15
REMARK    8  A    between atoms: N_18  and  C_19
REMARK    9  A    between atoms: C_24  and  O_25
REMARK   10  A    between atoms: O_25  and  C_26
REMARK   11  A    between atoms: C_26  and  C_27
REMARK   12  A    between atoms: C_31  and  O_34
REMARK   13  A    between atoms: O_34  and  C_35
REMARK   14  A    between atoms: C_35  and  C_36
REMARK                            x       y       z     vdW  Elec       q    Type
REMARK                         _______ _______ _______ _____ _____    ______ ____
ROOT
ATOM      1  C   UNL     1       1.723  -2.785   2.637  0.00  0.00    +0.210 A 
ATOM      2  N   UNL     1       2.201  -1.903   3.526  0.00  0.00    -0.187 NA
ATOM      3  C   UNL     1       2.771  -2.542   4.511  0.00  0.00    +0.219 A 
ATOM      4  N   UNL     1       2.671  -3.872   4.264  0.00  0.00    -0.220 N 
ATOM      5  N   UNL     1       1.985  -4.004   3.058  0.00  0.00    -0.141 NA
ATOM      6  C   UNL     1       3.208  -4.901   5.151  0.00  0.00    +0.177 C 
ATOM      7  C   UNL     1       3.595  -4.278   6.465  0.00  0.00    +0.060 C 
ATOM      8  C   UNL     1       3.673  -2.953   6.653  0.00  0.00    +0.018 C 
ATOM      9  N   UNL     1       3.394  -2.054   5.652  0.00  0.00    -0.287 N 
ATOM     10  C   UNL     1       4.082  -2.431   8.006  0.00  0.00    +0.061 C 
ATOM     11  H   UNL     1       3.623  -1.116   5.738  0.00  0.00    +0.155 HD
ENDROOT
BRANCH   6  12
ATOM     12  C   UNL     1       4.422  -5.528   4.515  0.00  0.00    -0.018 A 
ATOM     13  C   UNL     1       5.522  -4.748   4.211  0.00  0.00    +0.009 A 
ATOM     14  C   UNL     1       6.636  -5.321   3.627  0.00  0.00    +0.046 A 
ATOM     15  C   UNL     1       6.650  -6.680   3.348  0.00  0.00    +0.121 A 
ATOM     16  C   UNL     1       5.545  -7.460   3.655  0.00  0.00    +0.046 A 
ATOM     17  C   UNL     1       4.435  -6.884   4.243  0.00  0.00    +0.009 A 
BRANCH  15  18
ATOM     18  O   UNL     1       7.744  -7.245   2.774  0.00  0.00    -0.492 OA
BRANCH  18  19
ATOM     19  C   UNL     1       7.688  -8.649   2.515  0.00  0.00    +0.225 C 
ATOM     20  C   UNL     1       9.001  -9.102   1.872  0.00  0.00    +0.048 C 
ENDBRANCH  18  19
ENDBRANCH  15  18
ENDBRANCH   6  12
BRANCH   7  21
ATOM     21  C   UNL     1       3.889  -5.131   7.555  0.00  0.00    +0.248 C 
ATOM     22  O   UNL     1       2.984  -5.626   8.203  0.00  0.00    -0.270 OA
ATOM     23  N   UNL     1       5.171  -5.396   7.876  0.00  0.00    -0.279 N 
ATOM     24  H   UNL     1       5.891  -4.941   7.413  0.00  0.00    +0.155 HD
BRANCH  23  25
ATOM     25  C   UNL     1       5.463  -6.330   8.879  0.00  0.00    +0.076 A 
ATOM     26  C   UNL     1       4.553  -7.333   9.182  0.00  0.00    +0.027 A 
ATOM     27  C   UNL     1       4.844  -8.253  10.171  0.00  0.00    +0.002 A 
ATOM     28  C   UNL     1       6.040  -8.177  10.861  0.00  0.00    +0.004 A 
ATOM     29  C   UNL     1       6.952  -7.181  10.564  0.00  0.00    +0.047 A 
ATOM     30  C   UNL     1       6.670  -6.258   9.570  0.00  0.00    +0.142 A 
BRANCH  30  31
ATOM     31  O   UNL     1       7.568  -5.281   9.274  0.00  0.00    -0.490 OA
BRANCH  31  32
ATOM     32  C   UNL     1       8.785  -5.268  10.023  0.00  0.00    +0.226 C 
ATOM     33  C   UNL     1       9.662  -4.107   9.552  0.00  0.00    +0.048 C 
ENDBRANCH  31  32
ENDBRANCH  30  31
ENDBRANCH  23  25
ENDBRANCH   7  21
BRANCH   1  34
ATOM     34  S   UNL     1       0.873  -2.378   1.148  0.00  0.00    -0.084 S 
BRANCH  34  35
ATOM     35  C   UNL     1       0.836  -0.565   1.145  0.00  0.00    +0.077 C 
BRANCH  35  37
ATOM     36  C   UNL     1       0.084   1.459  -0.113  0.00  0.00    +0.004 C 
ATOM     37  C   UNL     1       0.115  -0.071  -0.111  0.00  0.00    +0.008 C 
ENDBRANCH  35  37
ENDBRANCH  34  35
ENDBRANCH   1  34
TORSDOF 10
