REMARK  Name = ZINC27317971
REMARK  11 active torsions:
REMARK  status: ('A' for Active; 'I' for Inactive)
REMARK    1  A    between atoms: C_1  and  C_2
REMARK    2  A    between atoms: C_2  and  C_39
REMARK    3  A    between atoms: C_7  and  C_21
REMARK    4  A    between atoms: C_8  and  N_11
REMARK    5  A    between atoms: C_12  and  C_14
REMARK    6  A    between atoms: C_14  and  C_16
REMARK    7  A    between atoms: C_14  and  N_20
REMARK    8  A    between atoms: C_16  and  C_17
REMARK    9  A    between atoms: C_17  and  C_18
REMARK   10  A    between atoms: C_21  and  S_22
REMARK   11  A    between atoms: S_22  and  N_25
REMARK                            x       y       z     vdW  Elec       q    Type
REMARK                         _______ _______ _______ _____ _____    ______ ____
ROOT
ATOM      1  C   UNL     1      -4.673   1.893  -9.030  0.00  0.00    +0.012 C 
ATOM      2  C   UNL     1      -5.351   0.740  -8.286  0.00  0.00    -0.023 C 
ATOM      3  C   UNL     1      -6.831   0.523  -8.759  0.00  0.00    -0.003 C 
ATOM      4  C   UNL     1      -7.471   1.880  -8.335  0.00  0.00    +0.005 C 
ATOM      5  C   UNL     1      -6.722   2.282  -7.020  0.00  0.00    +0.011 C 
ATOM      6  C   UNL     1      -5.703   1.121  -6.805  0.00  0.00    +0.015 C 
ATOM      7  C   UNL     1      -6.582  -0.099  -6.395  0.00  0.00    +0.081 C 
ATOM      8  C   UNL     1      -7.330  -0.495  -7.689  0.00  0.00    +0.027 C 
ATOM      9  C   UNL     1      -4.528  -0.548  -8.367  0.00  0.00    +0.012 C 
ENDROOT
BRANCH   7  10
ATOM     10  N   UNL     1      -7.536   0.287  -5.352  0.00  0.00    -0.313 N 
ATOM     11  C   UNL     1      -8.235  -0.660  -4.694  0.00  0.00    +0.199 C 
ATOM     12  O   UNL     1      -8.074  -1.831  -4.966  0.00  0.00    -0.278 OA
ATOM     13  H   UNL     1      -7.682   1.349  -5.106  0.00  0.00    +0.149 HD
BRANCH  11  14
ATOM     14  C   UNL     1      -9.216  -0.263  -3.622  0.00  0.00    +0.014 C 
BRANCH  14  15
ATOM     15  N   UNL     1     -10.169  -1.359  -3.400  0.00  0.00    +0.386 N 
ATOM     16  H   UNL     1     -10.885  -1.070  -2.616  0.00  0.00    -0.089 HD
ATOM     17  H   UNL     1      -9.623  -2.260  -3.082  0.00  0.00    -0.089 HD
ATOM     18  H   UNL     1     -10.711  -1.569  -4.333  0.00  0.00    -0.089 HD
ENDBRANCH  14  15
BRANCH  14  19
ATOM     19  C   UNL     1      -8.462   0.028  -2.323  0.00  0.00    +0.008 C 
BRANCH  19  20
ATOM     20  C   UNL     1      -9.442   0.550  -1.270  0.00  0.00    +0.117 C 
BRANCH  20  21
ATOM     21  C   UNL     1      -8.716   0.831  -0.020  0.00  0.00    +0.062 C 
ATOM     22  N   UNL     1      -8.156   1.047   0.944  0.00  0.00    -0.197 NA
ENDBRANCH  20  21
ENDBRANCH  19  20
ENDBRANCH  14  19
ENDBRANCH  11  14
ENDBRANCH   7  10
BRANCH   6  23
ATOM     23  C   UNL     1      -4.519   1.432  -5.887  0.00  0.00    +0.194 C 
BRANCH  23  24
ATOM     24  S   UNL     1      -5.130   1.817  -4.223  0.00  0.00    +0.032 S 
ATOM     25  O   UNL     1      -5.692   0.656  -3.627  0.00  0.00    -0.158 OA
ATOM     26  O   UNL     1      -5.846   3.044  -4.236  0.00  0.00    -0.158 OA
BRANCH  24  27
ATOM     27  N   UNL     1      -3.769   2.132  -3.333  0.00  0.00    -0.181 NA
ATOM     28  C   UNL     1      -3.234   3.497  -3.243  0.00  0.00    +0.110 C 
ATOM     29  C   UNL     1      -3.089   3.873  -1.764  0.00  0.00    +0.028 C 
ATOM     30  C   UNL     1      -2.258   2.811  -1.051  0.00  0.00    -0.001 C 
ATOM     31  C   UNL     1      -0.849   2.744  -1.670  0.00  0.00    +0.016 C 
ATOM     32  C   UNL     1       0.034   2.426  -0.445  0.00  0.00    +0.036 C 
ATOM     33  C   UNL     1      -0.724   2.972   0.747  0.00  0.00    -0.044 A 
ATOM     34  C   UNL     1      -2.046   3.193   0.395  0.00  0.00    -0.038 A 
ATOM     35  C   UNL     1      -2.932   3.694   1.334  0.00  0.00    +0.004 A 
ATOM     36  C   UNL     1      -2.497   3.974   2.621  0.00  0.00    +0.000 A 
ATOM     37  C   UNL     1      -1.178   3.752   2.968  0.00  0.00    +0.000 A 
ATOM     38  C   UNL     1      -0.294   3.252   2.032  0.00  0.00    +0.004 A 
ATOM     39  C   UNL     1      -2.933   1.446  -1.145  0.00  0.00    +0.028 C 
ATOM     40  C   UNL     1      -3.076   1.051  -2.619  0.00  0.00    +0.110 C 
ENDBRANCH  24  27
ENDBRANCH  23  24
ENDBRANCH   6  23
TORSDOF 9
