REMARK  Name = ZINC64410700
REMARK  11 active torsions:
REMARK  status: ('A' for Active; 'I' for Inactive)
REMARK    1  A    between atoms: C_1  and  C_2
REMARK    2  A    between atoms: C_2  and  C_3
REMARK    3  A    between atoms: C_3  and  N_4
REMARK    4  A    between atoms: N_11  and  C_16
REMARK    5  A    between atoms: N_14  and  C_15
REMARK    6  A    between atoms: C_16  and  C_17
REMARK    7  A    between atoms: C_17  and  C_18
REMARK    8  A    between atoms: C_17  and  O_28
REMARK    9  A    between atoms: C_18  and  O_19
REMARK   10  A    between atoms: O_19  and  C_20
REMARK   11  A    between atoms: C_23  and  C_26
REMARK                            x       y       z     vdW  Elec       q    Type
REMARK                         _______ _______ _______ _____ _____    ______ ____
ROOT
ATOM      1  N   UNL     1       0.762  -1.976   1.234  0.00  0.00    -0.325 N 
ATOM      2  C   UNL     1      -0.112  -2.793   1.854  0.00  0.00    +0.202 A 
ATOM      3  N   UNL     1       0.214  -4.040   1.628  0.00  0.00    -0.218 NA
ATOM      4  C   UNL     1       1.304  -4.091   0.859  0.00  0.00    +0.168 A 
ATOM      5  C   UNL     1       1.676  -2.781   0.584  0.00  0.00    +0.151 A 
ATOM      6  C   UNL     1       2.808  -2.543  -0.225  0.00  0.00    +0.282 A 
ATOM      7  O   UNL     1       3.156  -1.403  -0.478  0.00  0.00    -0.265 OA
ATOM      8  N   UNL     1       3.500  -3.592  -0.716  0.00  0.00    -0.256 N 
ATOM      9  C   UNL     1       3.127  -4.855  -0.444  0.00  0.00    +0.333 A 
ATOM     10  O   UNL     1       3.775  -5.776  -0.903  0.00  0.00    -0.246 OA
ATOM     11  N   UNL     1       2.058  -5.126   0.329  0.00  0.00    -0.280 N 
ATOM     12  C   UNL     1       1.684  -6.516   0.599  0.00  0.00    +0.155 C 
ENDROOT
BRANCH   1  13
ATOM     13  C   UNL     1       0.742  -0.511   1.242  0.00  0.00    +0.123 C 
BRANCH  13  15
ATOM     14  C   UNL     1      -0.019   1.526   0.010  0.00  0.00    +0.005 C 
ATOM     15  C   UNL     1       0.002  -0.004   0.002  0.00  0.00    +0.018 C 
ENDBRANCH  13  15
ENDBRANCH   1  13
BRANCH   8  16
ATOM     16  C   UNL     1       4.675  -3.352  -1.556  0.00  0.00    +0.164 C 
BRANCH  16  17
ATOM     17  C   UNL     1       5.923  -3.264  -0.675  0.00  0.00    +0.172 C 
BRANCH  17  18
ATOM     18  O   UNL     1       6.156  -4.528  -0.052  0.00  0.00    -0.387 OA
ATOM     19  H   UNL     1       6.298  -5.254  -0.675  0.00  0.00    +0.210 HD
ENDBRANCH  17  18
BRANCH  17  20
ATOM     20  C   UNL     1       7.130  -2.889  -1.538  0.00  0.00    +0.262 C 
BRANCH  20  21
ATOM     21  O   UNL     1       8.271  -2.693  -0.700  0.00  0.00    -0.489 OA
BRANCH  21  22
ATOM     22  C   UNL     1       9.434  -2.353  -1.312  0.00  0.00    +0.121 A 
ATOM     23  C   UNL     1       9.473  -2.207  -2.693  0.00  0.00    +0.047 A 
ATOM     24  C   UNL     1      10.651  -1.862  -3.319  0.00  0.00    +0.022 A 
ATOM     25  C   UNL     1      11.808  -1.659  -2.562  0.00  0.00    +0.052 A 
ATOM     26  C   UNL     1      11.764  -1.808  -1.173  0.00  0.00    +0.022 A 
ATOM     27  C   UNL     1      10.581  -2.147  -0.555  0.00  0.00    +0.047 A 
BRANCH  25  28
ATOM     28  C   UNL     1      13.035  -1.301  -3.208  0.00  0.00    +0.099 C 
ATOM     29  N   UNL     1      14.008  -1.017  -3.720  0.00  0.00    -0.191 NA
ENDBRANCH  25  28
ENDBRANCH  21  22
ENDBRANCH  20  21
ENDBRANCH  17  20
ENDBRANCH  16  17
ENDBRANCH   8  16
TORSDOF 9
