REMARK  Name = ZINC63375732
REMARK  8 active torsions:
REMARK  status: ('A' for Active; 'I' for Inactive)
REMARK    1  A    between atoms: C_1  and  C_2
REMARK    2  A    between atoms: C_2  and  C_3
REMARK    3  A    between atoms: C_3  and  N_4
REMARK    4  A    between atoms: C_5  and  O_32
REMARK    5  A    between atoms: C_7  and  C_17
REMARK    6  A    between atoms: N_11  and  C_14
REMARK    7  A    between atoms: C_14  and  C_15
REMARK    8  A    between atoms: C_15  and  C_16
REMARK                            x       y       z     vdW  Elec       q    Type
REMARK                         _______ _______ _______ _____ _____    ______ ____
ROOT
ATOM      1  N   UNL     1       0.738  -1.962  -1.265  0.00  0.00    -0.259 N 
ATOM      2  C   UNL     1       1.854  -2.672  -0.637  0.00  0.00    +0.219 C 
ATOM      3  C   UNL     1       1.338  -3.952   0.025  0.00  0.00    +0.142 C 
ATOM      4  C   UNL     1       0.428  -4.675  -0.936  0.00  0.00    +0.232 C 
ATOM      5  O   UNL     1       0.397  -5.887  -0.947  0.00  0.00    -0.275 OA
ATOM      6  N   UNL     1      -0.350  -3.974  -1.781  0.00  0.00    -0.225 N 
ATOM      7  C   UNL     1      -0.270  -2.635  -1.843  0.00  0.00    +0.313 C 
ATOM      8  O   UNL     1      -1.129  -2.017  -2.441  0.00  0.00    -0.252 OA
ENDROOT
BRANCH   3   9
ATOM      9  C   UNL     1       0.563  -3.594   1.294  0.00  0.00    +0.096 C 
ATOM     10  C   UNL     1       0.140  -4.875   2.019  0.00  0.00    +0.124 C 
ATOM     11  C   UNL     1      -0.764  -4.437   3.165  0.00  0.00    -0.036 C 
ATOM     12  C   UNL     1      -0.253  -4.964   4.269  0.00  0.00    -0.001 A 
ATOM     13  C   UNL     1      -0.721  -4.968   5.664  0.00  0.00    +0.010 A 
ATOM     14  C   UNL     1       0.075  -5.605   6.563  0.00  0.00    +0.001 A 
ATOM     15  C   UNL     1       1.276  -6.232   6.217  0.00  0.00    +0.002 A 
ATOM     16  C   UNL     1       1.780  -6.283   4.959  0.00  0.00    +0.026 A 
ATOM     17  C   UNL     1       1.030  -5.652   3.925  0.00  0.00    +0.043 A 
ATOM     18  N   UNL     1       1.269  -5.574   2.630  0.00  0.00    -0.376 N 
ATOM     19  C   UNL     1      -1.924  -3.496   2.945  0.00  0.00    +0.048 C 
ATOM     20  C   UNL     1      -1.376  -2.328   2.104  0.00  0.00    +0.085 C 
ATOM     21  N   UNL     1      -0.650  -2.841   0.939  0.00  0.00    -0.310 NA
ATOM     22  H   UNL     1      -0.438  -2.099   0.289  0.00  0.00    +0.122 HD
ATOM     23  H   UNL     1       2.049  -5.911   2.161  0.00  0.00    +0.160 HD
ENDBRANCH   3   9
BRANCH   2  24
ATOM     24  O   UNL     1       2.824  -3.009  -1.631  0.00  0.00    -0.373 OA
ATOM     25  H   UNL     1       3.196  -2.244  -2.092  0.00  0.00    +0.212 HD
ENDBRANCH   2  24
BRANCH   1  26
ATOM     26  C   UNL     1       0.718  -0.497  -1.257  0.00  0.00    +0.111 C 
BRANCH  26  28
ATOM     27  C   UNL     1      -0.019   1.526   0.010  0.00  0.00    +0.005 C 
ATOM     28  C   UNL     1       0.002  -0.004   0.002  0.00  0.00    +0.016 C 
ENDBRANCH  26  28
ENDBRANCH   1  26
BRANCH   6  29
ATOM     29  C   UNL     1      -1.301  -4.682  -2.642  0.00  0.00    +0.118 C 
BRANCH  29  30
ATOM     30  C   UNL     1      -2.642  -4.816  -1.918  0.00  0.00    +0.016 C 
ATOM     31  C   UNL     1      -3.636  -5.555  -2.816  0.00  0.00    +0.005 C 
ENDBRANCH  29  30
ENDBRANCH   6  29
TORSDOF 6
