REMARK  Name = ZINC65305785
REMARK  7 active torsions:
REMARK  status: ('A' for Active; 'I' for Inactive)
REMARK    1  A    between atoms: C_1  and  C_2
REMARK    2  A    between atoms: C_2  and  C_3
REMARK    3  A    between atoms: C_2  and  C_4
REMARK    4  A    between atoms: C_4  and  C_6
REMARK    5  A    between atoms: C_4  and  N_18
REMARK    6  A    between atoms: N_8  and  C_9
REMARK    7  A    between atoms: C_19  and  C_21
REMARK                            x       y       z     vdW  Elec       q    Type
REMARK                         _______ _______ _______ _____ _____    ______ ____
ROOT
ATOM      1  C   UNL     1      -2.367  -0.004   0.819  0.00  0.00    +0.236 C 
ATOM      2  O   UNL     1      -3.384   0.542   0.445  0.00  0.00    -0.274 OA
ATOM      3  N   UNL     1      -2.082  -0.069   2.134  0.00  0.00    -0.277 N 
ATOM      4  H   UNL     1      -1.304  -0.562   2.438  0.00  0.00    +0.152 HD
ENDROOT
BRANCH   3   5
ATOM      5  C   UNL     1      -2.947   0.606   3.105  0.00  0.00    +0.269 C 
ATOM      6  N   UNL     1      -2.660   2.046   3.119  0.00  0.00    -0.348 N 
ATOM      7  C   UNL     1      -2.264   2.354   4.321  0.00  0.00    +0.061 A 
ATOM      8  C   UNL     1      -1.842   3.618   4.940  0.00  0.00    +0.027 A 
ATOM      9  C   UNL     1      -1.476   3.633   6.237  0.00  0.00    +0.002 A 
ATOM     10  C   UNL     1      -1.477   2.477   7.039  0.00  0.00    +0.002 A 
ATOM     11  C   UNL     1      -1.845   1.268   6.570  0.00  0.00    +0.027 A 
ATOM     12  C   UNL     1      -2.265   1.131   5.169  0.00  0.00    +0.061 A 
ATOM     13  N   UNL     1      -2.663   0.115   4.460  0.00  0.00    -0.348 N 
ATOM     14  H   UNL     1      -2.751   2.657   2.371  0.00  0.00    +0.163 HD
ATOM     15  H   UNL     1      -2.756  -0.800   4.769  0.00  0.00    +0.163 HD
ENDBRANCH   3   5
BRANCH   1  16
ATOM     16  C   UNL     1      -1.422  -0.608  -0.188  0.00  0.00    +0.162 C 
BRANCH  16  17
ATOM     17  N   UNL     1      -2.158  -0.941  -1.410  0.00  0.00    -0.300 N 
ATOM     18  C   UNL     1      -1.701  -1.909  -2.229  0.00  0.00    +0.245 C 
ATOM     19  O   UNL     1      -0.678  -2.505  -1.954  0.00  0.00    -0.270 OA
ATOM     20  H   UNL     1      -2.975  -0.465  -1.629  0.00  0.00    +0.150 HD
BRANCH  18  21
ATOM     21  C   UNL     1      -2.441  -2.243  -3.457  0.00  0.00    +0.044 A 
ATOM     22  C   UNL     1      -1.985  -3.276  -4.356  0.00  0.00    +0.020 A 
ATOM     23  C   UNL     1      -2.752  -3.486  -5.444  0.00  0.00    +0.046 A 
ATOM     24  S   UNL     1      -4.065  -2.300  -5.247  0.00  0.00    -0.104 S 
ATOM     25  C   UNL     1      -3.603  -1.589  -3.800  0.00  0.00    +0.058 A 
ENDBRANCH  18  21
ENDBRANCH  16  17
BRANCH  16  27
ATOM     26  C   UNL     1       0.720  -0.265  -1.427  0.00  0.00    +0.009 C 
ATOM     27  C   UNL     1      -0.316   0.397  -0.516  0.00  0.00    +0.012 C 
ATOM     28  C   UNL     1      -0.922   1.607  -1.229  0.00  0.00    +0.009 C 
ENDBRANCH  16  27
ENDBRANCH   1  16
TORSDOF 5
