REMARK  Name = ZINC51046215
REMARK  8 active torsions:
REMARK  status: ('A' for Active; 'I' for Inactive)
REMARK    1  A    between atoms: C_6  and  N_7
REMARK    2  A    between atoms: N_7  and  C_8
REMARK    3  A    between atoms: C_8  and  C_9
REMARK    4  A    between atoms: C_9  and  C_10
REMARK    5  A    between atoms: C_13  and  C_15
REMARK    6  A    between atoms: C_15  and  N_16
REMARK    7  A    between atoms: C_20  and  C_23
REMARK    8  A    between atoms: N_25  and  C_26
REMARK                            x       y       z     vdW  Elec       q    Type
REMARK                         _______ _______ _______ _____ _____    ______ ____
ROOT
ATOM      1  N   UNL     1      -1.200  -0.722   0.010  0.00  0.00    -0.272 N 
ATOM      2  C   UNL     1      -2.374  -0.069   0.127  0.00  0.00    +0.203 C 
ATOM      3  O   UNL     1      -2.395   1.144   0.134  0.00  0.00    -0.277 OA
ENDROOT
BRANCH   1   9
ATOM      4  C   UNL     1       0.428   0.657   1.143  0.00  0.00    +0.026 A 
ATOM      5  C   UNL     1       1.615   1.364   1.129  0.00  0.00    +0.040 A 
ATOM      6  C   UNL     1       2.378   1.415  -0.025  0.00  0.00    +0.124 A 
ATOM      7  C   UNL     1       1.955   0.757  -1.167  0.00  0.00    +0.040 A 
ATOM      8  C   UNL     1       0.769   0.049  -1.158  0.00  0.00    +0.026 A 
ATOM      9  C   UNL     1       0.002  -0.004  -0.002  0.00  0.00    +0.036 A 
ATOM     10  F   UNL     1       3.538   2.107  -0.036  0.00  0.00    -0.205 F 
ENDBRANCH   1   9
BRANCH   1  11
ATOM     11  C   UNL     1      -1.183  -2.182  -0.105  0.00  0.00    +0.123 C 
BRANCH  11  12
ATOM     12  C   UNL     1      -1.096  -2.802   1.291  0.00  0.00    +0.115 C 
BRANCH  12  13
ATOM     13  C   UNL     1      -1.078  -4.304   1.173  0.00  0.00    +0.212 C 
ATOM     14  O   UNL     1      -1.129  -4.828   0.080  0.00  0.00    -0.276 OA
ATOM     15  N   UNL     1      -1.004  -5.067   2.282  0.00  0.00    -0.329 N 
ATOM     16  H   UNL     1      -0.963  -4.649   3.156  0.00  0.00    +0.145 HD
ATOM     17  H   UNL     1      -0.993  -6.034   2.206  0.00  0.00    +0.145 HD
ENDBRANCH  12  13
ENDBRANCH  11  12
ENDBRANCH   1  11
BRANCH   2  18
ATOM     18  C   UNL     1      -3.659  -0.846   0.249  0.00  0.00    +0.019 C 
BRANCH  18  19
ATOM     19  N   UNL     1      -4.787   0.088   0.363  0.00  0.00    +0.386 N 
ATOM     20  C   UNL     1      -4.907   0.861  -0.879  0.00  0.00    -0.078 C 
ATOM     21  C   UNL     1      -6.029   1.892  -0.737  0.00  0.00    -0.018 C 
ATOM     22  C   UNL     1      -7.348   1.167  -0.455  0.00  0.00    +0.009 C 
ATOM     23  C   UNL     1      -7.188   0.306   0.801  0.00  0.00    +0.058 C 
ATOM     24  C   UNL     1      -6.023  -0.666   0.601  0.00  0.00    -0.065 C 
ATOM     25  H   UNL     1      -4.625   0.718   1.134  0.00  0.00    -0.081 HD
BRANCH  23  26
ATOM     26  C   UNL     1      -8.457  -0.471   1.044  0.00  0.00    +0.215 C 
ATOM     27  O   UNL     1      -8.432  -1.683   1.060  0.00  0.00    -0.276 OA
ATOM     28  N   UNL     1      -9.619   0.182   1.244  0.00  0.00    -0.312 N 
ATOM     29  H   UNL     1      -9.639   1.152   1.231  0.00  0.00    +0.149 HD
BRANCH  28  30
ATOM     30  C   UNL     1     -10.852  -0.573   1.480  0.00  0.00    +0.073 C 
ATOM     31  C   UNL     1     -12.114  -0.110   0.749  0.00  0.00    +0.024 C 
ATOM     32  C   UNL     1     -11.971   0.127   2.254  0.00  0.00    +0.024 C 
ENDBRANCH  28  30
ENDBRANCH  23  26
ENDBRANCH  18  19
ENDBRANCH   2  18
TORSDOF 8
