REMARK  Name = ZINC39684639
REMARK  10 active torsions:
REMARK  status: ('A' for Active; 'I' for Inactive)
REMARK    1  A    between atoms: C_1  and  C_2
REMARK    2  A    between atoms: C_2  and  C_4
REMARK    3  A    between atoms: C_2  and  N_8
REMARK    4  A    between atoms: C_4  and  C_5
REMARK    5  A    between atoms: C_4  and  C_6
REMARK    6  A    between atoms: C_4  and  C_7
REMARK    7  A    between atoms: C_9  and  C_11
REMARK    8  A    between atoms: C_22  and  C_24
REMARK    9  A    between atoms: C_27  and  O_30
REMARK   10  A    between atoms: O_30  and  C_31
REMARK                            x       y       z     vdW  Elec       q    Type
REMARK                         _______ _______ _______ _____ _____    ______ ____
ROOT
ATOM      1  C   UNL     1       2.430  -1.893  -1.823  0.00  0.00    +0.100 C 
ATOM      2  C   UNL     1       2.180  -3.294  -2.426  0.00  0.00    +0.121 C 
ATOM      3  N   UNL     1       3.492  -3.700  -2.983  0.00  0.00    -0.296 N 
ATOM      4  C   UNL     1       4.480  -3.221  -1.987  0.00  0.00    +0.115 C 
ATOM      5  C   UNL     1       3.940  -1.849  -1.536  0.00  0.00    -0.004 C 
ATOM      6  C   UNL     1       4.189  -1.650  -0.044  0.00  0.00    -0.010 C 
ATOM      7  C   UNL     1       5.696  -1.551   0.209  0.00  0.00    -0.082 C 
ATOM      8  N   UNL     1       6.249  -0.426  -0.555  0.00  0.00    +0.379 N 
ATOM      9  C   UNL     1       6.089  -0.671  -1.993  0.00  0.00    -0.082 C 
ATOM     10  C   UNL     1       4.598  -0.732  -2.340  0.00  0.00    -0.010 C 
ATOM     11  C   UNL     1       3.732  -4.357  -4.135  0.00  0.00    +0.248 C 
ATOM     12  O   UNL     1       2.824  -4.571  -4.914  0.00  0.00    -0.270 OA
ATOM     13  H   UNL     1       5.763   0.421  -0.303  0.00  0.00    -0.086 HD
ATOM     14  H   UNL     1       7.230  -0.325  -0.340  0.00  0.00    -0.086 HD
ENDROOT
BRANCH  11  15
ATOM     15  C   UNL     1       5.099  -4.818  -4.451  0.00  0.00    +0.055 A 
ATOM     16  C   UNL     1       6.056  -4.957  -3.435  0.00  0.00    +0.020 A 
ATOM     17  C   UNL     1       7.319  -5.391  -3.780  0.00  0.00    +0.068 A 
ATOM     18  C   UNL     1       7.601  -5.673  -5.113  0.00  0.00    +0.220 A 
ATOM     19  N   UNL     1       6.676  -5.530  -6.050  0.00  0.00    -0.220 NA
ATOM     20  C   UNL     1       5.456  -5.126  -5.764  0.00  0.00    +0.127 A 
BRANCH  18  21
ATOM     21  O   UNL     1       8.841  -6.098  -5.458  0.00  0.00    -0.438 OA
BRANCH  21  22
ATOM     22  C   UNL     1       9.056  -6.456  -6.751  0.00  0.00    +0.130 A 
ATOM     23  C   UNL     1       9.259  -5.482  -7.718  0.00  0.00    +0.046 A 
ATOM     24  C   UNL     1       9.477  -5.848  -9.031  0.00  0.00    +0.004 A 
ATOM     25  C   UNL     1       9.492  -7.185  -9.384  0.00  0.00    +0.000 A 
ATOM     26  C   UNL     1       9.290  -8.159  -8.423  0.00  0.00    +0.004 A 
ATOM     27  C   UNL     1       9.077  -7.797  -7.106  0.00  0.00    +0.046 A 
ENDBRANCH  21  22
ENDBRANCH  18  21
ENDBRANCH  11  15
BRANCH   1  29
ATOM     28  N   UNL     1       1.232  -0.499  -0.167  0.00  0.00    -0.312 N 
ATOM     29  C   UNL     1       1.648  -1.724  -0.546  0.00  0.00    +0.218 C 
ATOM     30  O   UNL     1       1.392  -2.691   0.141  0.00  0.00    -0.275 OA
ATOM     31  H   UNL     1       1.437   0.274  -0.717  0.00  0.00    +0.149 HD
BRANCH  28  33
ATOM     32  C   UNL     1       1.440  -0.211   2.252  0.00  0.00    +0.028 C 
ATOM     33  C   UNL     1       0.472  -0.335   1.074  0.00  0.00    +0.075 C 
BRANCH  33  34
ATOM     34  C   UNL     1      -0.386   0.928   0.983  0.00  0.00    -0.020 C 
ATOM     35  C   UNL     1       0.517   2.145   0.774  0.00  0.00    +0.012 C 
ATOM     36  C   UNL     1      -1.354   0.803  -0.195  0.00  0.00    +0.012 C 
ATOM     37  C   UNL     1      -1.180   1.099   2.280  0.00  0.00    +0.012 C 
ENDBRANCH  33  34
ENDBRANCH  28  33
ENDBRANCH   1  29
TORSDOF 6
