REMARK  Name = ZINC39470435
REMARK  11 active torsions:
REMARK  status: ('A' for Active; 'I' for Inactive)
REMARK    1  A    between atoms: C_1  and  C_2
REMARK    2  A    between atoms: C_2  and  C_3
REMARK    3  A    between atoms: C_3  and  C_4
REMARK    4  A    between atoms: C_6  and  S_10
REMARK    5  A    between atoms: S_10  and  C_11
REMARK    6  A    between atoms: C_11  and  C_12
REMARK    7  A    between atoms: C_15  and  N_32
REMARK    8  A    between atoms: N_17  and  C_25
REMARK    9  A    between atoms: N_20  and  C_23
REMARK   10  A    between atoms: C_23  and  C_24
REMARK   11  A    between atoms: C_25  and  C_26
REMARK                            x       y       z     vdW  Elec       q    Type
REMARK                         _______ _______ _______ _____ _____    ______ ____
ROOT
ATOM      1  C   UNL     1      -1.316  -5.837   4.497  0.00  0.00    +0.174 C 
ATOM      2  O   UNL     1      -2.381  -6.658   4.585  0.00  0.00    -0.291 OA
ATOM      3  C   UNL     1      -0.158  -6.172   5.094  0.00  0.00    +0.061 C 
ATOM      4  C   UNL     1      -0.071  -7.342   6.056  0.00  0.00    +0.057 C 
ATOM      5  N   UNL     1       1.250  -7.613   6.648  0.00  0.00    -0.291 N 
ATOM      6  C   UNL     1       2.288  -6.825   6.312  0.00  0.00    +0.310 C 
ATOM      7  O   UNL     1       3.373  -7.057   6.806  0.00  0.00    -0.252 OA
ATOM      8  N   UNL     1       2.181  -5.800   5.460  0.00  0.00    -0.222 N 
ATOM      9  C   UNL     1       1.041  -5.448   4.848  0.00  0.00    +0.253 C 
ATOM     10  O   UNL     1       1.031  -4.503   4.081  0.00  0.00    -0.270 OA
ENDROOT
BRANCH   4  11
ATOM     11  N   UNL     1      -1.019  -7.100   7.152  0.00  0.00    +0.393 N 
ATOM     12  H   UNL     1      -1.953  -7.025   6.779  0.00  0.00    -0.087 HD
ATOM     13  H   UNL     1      -0.979  -7.867   7.806  0.00  0.00    -0.087 HD
ATOM     14  H   UNL     1      -0.775  -6.243   7.624  0.00  0.00    -0.087 HD
ENDBRANCH   4  11
BRANCH   8  15
ATOM     15  C   UNL     1       3.386  -5.017   5.174  0.00  0.00    +0.115 C 
ATOM     16  C   UNL     1       4.117  -5.625   3.975  0.00  0.00    +0.025 C 
ENDBRANCH   8  15
BRANCH   1  17
ATOM     17  C   UNL     1      -1.422  -4.544   3.730  0.00  0.00    +0.156 C 
BRANCH  17  18
ATOM     18  S   UNL     1      -1.309  -4.885   1.952  0.00  0.00    -0.079 S 
BRANCH  18  21
ATOM     19  C   UNL     1      -1.667  -1.155   0.953  0.00  0.00    +0.152 A 
ATOM     20  N   UNL     1      -1.599  -2.151   1.836  0.00  0.00    -0.206 NA
ATOM     21  C   UNL     1      -1.448  -3.296   1.204  0.00  0.00    +0.185 A 
ATOM     22  H   UNL     1      -1.318  -3.680  -0.839  0.00  0.00    +0.191 HD
ATOM     23  N   UNL     1      -1.419  -3.035  -0.121  0.00  0.00    -0.254 N 
ATOM     24  N   UNL     1      -1.568  -1.645  -0.254  0.00  0.00    -0.157 NA
BRANCH  19  25
ATOM     25  C   UNL     1      -1.839   0.303   1.292  0.00  0.00    +0.078 C 
BRANCH  25  27
ATOM     26  C   UNL     1      -0.638   2.431   1.813  0.00  0.00    +0.004 C 
ATOM     27  C   UNL     1      -0.464   0.951   1.469  0.00  0.00    +0.004 C 
ENDBRANCH  25  27
ENDBRANCH  19  25
ENDBRANCH  18  21
ENDBRANCH  17  18
ENDBRANCH   1  17
BRANCH   5  28
ATOM     28  C   UNL     1       1.430  -8.722   7.588  0.00  0.00    +0.142 C 
BRANCH  28  29
ATOM     29  C   UNL     1       1.800  -9.970   6.828  0.00  0.00    -0.030 A 
ATOM     30  C   UNL     1       0.809 -10.818   6.368  0.00  0.00    +0.005 A 
ATOM     31  C   UNL     1       1.148 -11.962   5.671  0.00  0.00    +0.000 A 
ATOM     32  C   UNL     1       2.477 -12.258   5.433  0.00  0.00    +0.000 A 
ATOM     33  C   UNL     1       3.467 -11.410   5.891  0.00  0.00    +0.000 A 
ATOM     34  C   UNL     1       3.128 -10.263   6.585  0.00  0.00    +0.005 A 
ENDBRANCH  28  29
ENDBRANCH   5  28
TORSDOF 9
