REMARK  Name = ZINC25074770
REMARK  6 active torsions:
REMARK  status: ('A' for Active; 'I' for Inactive)
REMARK    1  A    between atoms: C_9  and  C_11
REMARK    2  A    between atoms: N_12  and  N_13
REMARK    3  A    between atoms: C_14  and  C_16
REMARK    4  A    between atoms: C_16  and  C_18
REMARK    5  A    between atoms: C_16  and  N_30
REMARK    6  A    between atoms: C_18  and  C_19
REMARK                            x       y       z     vdW  Elec       q    Type
REMARK                         _______ _______ _______ _____ _____    ______ ____
ROOT
ATOM      1  N   UNL     1       4.596  -0.606  -1.362  0.00  0.00    -0.208 N 
ATOM      2  C   UNL     1       4.428   0.730  -1.437  0.00  0.00    +0.218 C 
ATOM      3  O   UNL     1       5.395   1.459  -1.510  0.00  0.00    -0.276 OA
ATOM      4  H   UNL     1       3.719  -1.267  -1.296  0.00  0.00    +0.177 HD
ENDROOT
BRANCH   1   6
ATOM      5  C   UNL     1       6.047  -2.438  -1.296  0.00  0.00    +0.140 C 
ATOM      6  N   UNL     1       5.886  -1.151  -1.368  0.00  0.00    -0.188 NA
BRANCH   5  15
ATOM      7  C   UNL     1       8.858  -4.935  -1.231  0.00  0.00    +0.001 A 
ATOM      8  C   UNL     1       9.965  -4.143  -1.312  0.00  0.00    +0.010 A 
ATOM      9  C   UNL     1       9.828  -2.747  -1.391  0.00  0.00    +0.001 A 
ATOM     10  C   UNL     1      10.955  -1.907  -1.476  0.00  0.00    +0.011 A 
ATOM     11  C   UNL     1      10.748  -0.558  -1.551  0.00  0.00    +0.020 A 
ATOM     12  C   UNL     1       9.451  -0.053  -1.542  0.00  0.00    +0.111 A 
ATOM     13  N   UNL     1       8.405  -0.841  -1.464  0.00  0.00    -0.254 NA
ATOM     14  C   UNL     1       8.538  -2.165  -1.388  0.00  0.00    +0.080 A 
ATOM     15  C   UNL     1       7.402  -3.011  -1.302  0.00  0.00    +0.020 A 
ATOM     16  C   UNL     1       7.583  -4.385  -1.220  0.00  0.00    +0.011 A 
ENDBRANCH   5  15
ENDBRANCH   1   6
BRANCH   2  17
ATOM     17  C   UNL     1       3.040   1.317  -1.430  0.00  0.00    +0.015 C 
BRANCH  17  18
ATOM     18  N   UNL     1       3.080   2.675  -1.988  0.00  0.00    +0.386 N 
ATOM     19  H   UNL     1       2.067   3.103  -1.983  0.00  0.00    -0.089 HD
ATOM     20  H   UNL     1       3.457   2.636  -3.020  0.00  0.00    -0.089 HD
ATOM     21  H   UNL     1       3.747   3.302  -1.377  0.00  0.00    -0.089 HD
ENDBRANCH  17  18
BRANCH  17  22
ATOM     22  C   UNL     1       2.516   1.370   0.006  0.00  0.00    +0.002 C 
BRANCH  22  23
ATOM     23  C   UNL     1       1.085   1.841   0.002  0.00  0.00    +0.038 C 
ATOM     24  C   UNL     1      -0.013   1.076   0.008  0.00  0.00    +0.082 C 
ATOM     25  N   UNL     1      -1.191   1.851   0.017  0.00  0.00    -0.288 NA
ATOM     26  C   UNL     1      -0.780   3.084   0.687  0.00  0.00    +0.135 C 
ATOM     27  C   UNL     1       0.607   3.257  -0.012  0.00  0.00    +0.048 C 
ATOM     28  C   UNL     1       1.332   4.298   0.770  0.00  0.00    -0.020 C 
ATOM     29  C   UNL     1       0.597   5.387   1.076  0.00  0.00    -0.004 C 
ATOM     30  C   UNL     1      -0.805   5.476   0.620  0.00  0.00    -0.002 C 
ATOM     31  C   UNL     1      -1.522   4.350   0.425  0.00  0.00    -0.000 C 
ENDBRANCH  22  23
ENDBRANCH  17  22
ENDBRANCH   2  17
TORSDOF 6
