REMARK  Name = ZINC64084344
REMARK  5 active torsions:
REMARK  status: ('A' for Active; 'I' for Inactive)
REMARK    1  A    between atoms: C_1  and  N_2
REMARK    2  A    between atoms: C_4  and  C_7
REMARK    3  A    between atoms: C_10  and  C_13
REMARK    4  A    between atoms: N_15  and  C_16
REMARK    5  A    between atoms: C_16  and  C_17
REMARK                            x       y       z     vdW  Elec       q    Type
REMARK                         _______ _______ _______ _____ _____    ______ ____
ROOT
ATOM      1  C   UNL     1       0.072  -6.635  -4.042  0.00  0.00    +0.244 C 
ATOM      2  O   UNL     1       0.068  -6.505  -5.251  0.00  0.00    -0.270 OA
ATOM      3  N   UNL     1       0.086  -7.867  -3.497  0.00  0.00    -0.309 N 
ATOM      4  H   UNL     1       0.089  -7.970  -2.532  0.00  0.00    +0.149 HD
ENDROOT
BRANCH   1   8
ATOM      5  C   UNL     1       0.038  -3.202  -1.538  0.00  0.00    +0.023 A 
ATOM      6  C   UNL     1       0.035  -3.053  -2.924  0.00  0.00    +0.012 A 
ATOM      7  C   UNL     1       0.046  -4.164  -3.737  0.00  0.00    +0.014 A 
ATOM      8  C   UNL     1       0.061  -5.441  -3.172  0.00  0.00    +0.037 A 
ATOM      9  C   UNL     1       0.064  -5.589  -1.783  0.00  0.00    +0.014 A 
ATOM     10  C   UNL     1       0.058  -4.476  -0.972  0.00  0.00    +0.012 A 
BRANCH   5  14
ATOM     11  C   UNL     1      -0.018   1.461   0.010  0.00  0.00    +0.199 C 
ATOM     12  N   UNL     1       0.002  -0.004   0.002  0.00  0.00    -0.166 N 
ATOM     13  N   UNL     1       0.007  -0.744  -1.053  0.00  0.00    -0.131 NA
ATOM     14  C   UNL     1       0.026  -2.003  -0.663  0.00  0.00    +0.205 A 
ATOM     15  N   UNL     1       0.032  -1.990   0.677  0.00  0.00    -0.108 NA
ATOM     16  N   UNL     1       0.023  -0.754   1.048  0.00  0.00    -0.046 NA
ENDBRANCH   5  14
ENDBRANCH   1   8
BRANCH   3  17
ATOM     17  C   UNL     1       0.097  -9.051  -4.360  0.00  0.00    +0.133 C 
BRANCH  17  18
ATOM     18  C   UNL     1       0.112 -10.313  -3.495  0.00  0.00    +0.120 C 
ATOM     19  C   UNL     1      -0.059 -11.540  -4.362  0.00  0.00    +0.009 C 
ATOM     20  C   UNL     1      -1.196 -12.141  -3.940  0.00  0.00    -0.004 A 
ATOM     21  C   UNL     1      -1.897 -13.356  -4.371  0.00  0.00    +0.010 A 
ATOM     22  C   UNL     1      -3.041 -13.711  -3.742  0.00  0.00    +0.001 A 
ATOM     23  C   UNL     1      -3.572 -12.949  -2.692  0.00  0.00    +0.002 A 
ATOM     24  C   UNL     1      -2.985 -11.821  -2.240  0.00  0.00    +0.026 A 
ATOM     25  C   UNL     1      -1.777 -11.354  -2.829  0.00  0.00    +0.043 A 
ATOM     26  N   UNL     1      -1.028 -10.307  -2.572  0.00  0.00    -0.376 N 
ATOM     27  H   UNL     1      -1.200  -9.641  -1.888  0.00  0.00    +0.160 HD
ENDBRANCH  17  18
ENDBRANCH   3  17
TORSDOF 4
