REMARK  Name = ZINC09692620
REMARK  11 active torsions:
REMARK  status: ('A' for Active; 'I' for Inactive)
REMARK    1  A    between atoms: C_1  and  C_2
REMARK    2  A    between atoms: C_2  and  C_3
REMARK    3  A    between atoms: C_9  and  C_10
REMARK    4  A    between atoms: C_9  and  N_65
REMARK    5  A    between atoms: C_10  and  N_11
REMARK    6  A    between atoms: C_12  and  C_14
REMARK    7  A    between atoms: C_14  and  C_16
REMARK    8  A    between atoms: C_14  and  N_23
REMARK    9  A    between atoms: C_16  and  C_17
REMARK   10  A    between atoms: N_23  and  S_24
REMARK   11  A    between atoms: S_24  and  C_27
REMARK                            x       y       z     vdW  Elec       q    Type
REMARK                         _______ _______ _______ _____ _____    ______ ____
ROOT
ATOM      1  C   UNL     1      -7.884   4.410  -2.808  0.00  0.00    +0.166 C 
ENDROOT
BRANCH   1   3
ATOM      2  N   UNL     1      -5.811   3.422  -1.887  0.00  0.00    -0.316 N 
ATOM      3  C   UNL     1      -6.410   4.104  -2.883  0.00  0.00    +0.232 C 
ATOM      4  O   UNL     1      -5.763   4.471  -3.841  0.00  0.00    -0.274 OA
ATOM      5  H   UNL     1      -6.329   3.128  -1.121  0.00  0.00    +0.149 HD
BRANCH   2   6
ATOM      6  C   UNL     1      -4.379   3.125  -1.960  0.00  0.00    +0.086 C 
BRANCH   6   7
ATOM      7  C   UNL     1      -3.955   2.348  -0.712  0.00  0.00    -0.059 C 
BRANCH   7  13
ATOM      8  C   UNL     1      -2.039   1.457   0.470  0.00  0.00    -0.069 C 
ATOM      9  C   UNL     1      -0.518   1.295   0.411  0.00  0.00    -0.015 C 
ATOM     10  C   UNL     1      -0.151   0.396  -0.772  0.00  0.00    -0.003 C 
ATOM     11  C   UNL     1      -0.704   1.010  -2.061  0.00  0.00    -0.019 C 
ATOM     12  C   UNL     1      -2.219   1.181  -1.931  0.00  0.00    -0.078 C 
ATOM     13  N   UNL     1      -2.505   2.076  -0.789  0.00  0.00    +0.383 N 
ATOM     14  H   UNL     1      -2.006   2.963  -0.929  0.00  0.00    -0.081 HD
BRANCH   8  16
ATOM     15  C   UNL     1      -1.832   3.768   1.397  0.00  0.00    +0.002 C 
ATOM     16  C   UNL     1      -2.409   2.372   1.639  0.00  0.00    -0.019 C 
ENDBRANCH   8  16
ENDBRANCH   7  13
ENDBRANCH   6   7
ENDBRANCH   2   6
ENDBRANCH   1   3
BRANCH   1  17
ATOM     17  N   UNL     1      -8.290   5.154  -4.003  0.00  0.00    -0.178 NA
ATOM     18  H   UNL     1      -8.189   6.118  -4.031  0.00  0.00    +0.149 HD
BRANCH  17  19
ATOM     19  S   UNL     1      -8.921   4.348  -5.305  0.00  0.00    +0.061 S 
ATOM     20  O   UNL     1      -9.171   5.327  -6.305  0.00  0.00    -0.153 OA
ATOM     21  O   UNL     1      -8.082   3.224  -5.532  0.00  0.00    -0.153 OA
BRANCH  19  22
ATOM     22  C   UNL     1     -10.491   3.716  -4.816  0.00  0.00    +0.133 A 
ATOM     23  C   UNL     1     -11.625   4.254  -5.323  0.00  0.00    +0.031 A 
ATOM     24  C   UNL     1     -12.885   3.774  -4.963  0.00  0.00    +0.004 A 
ATOM     25  C   UNL     1     -13.030   2.757  -4.081  0.00  0.00    +0.031 A 
ATOM     26  C   UNL     1     -11.884   2.149  -3.504  0.00  0.00    +0.102 A 
ATOM     27  C   UNL     1     -10.566   2.647  -3.886  0.00  0.00    +0.126 A 
ATOM     28  N   UNL     1      -9.586   1.988  -3.272  0.00  0.00    -0.189 NA
ATOM     29  S   UNL     1     -10.280   0.915  -2.364  0.00  0.00    +0.117 S 
ATOM     30  N   UNL     1     -11.807   1.149  -2.628  0.00  0.00    -0.191 NA
ENDBRANCH  19  22
ENDBRANCH  17  19
ENDBRANCH   1  17
BRANCH   1  31
ATOM     31  C   UNL     1      -8.167   5.251  -1.562  0.00  0.00    +0.065 C 
BRANCH  31  32
ATOM     32  C   UNL     1      -9.654   5.444  -1.414  0.00  0.00    -0.045 A 
ATOM     33  C   UNL     1     -10.286   6.483  -2.072  0.00  0.00    +0.004 A 
ATOM     34  C   UNL     1     -11.650   6.657  -1.939  0.00  0.00    +0.000 A 
ATOM     35  C   UNL     1     -12.383   5.798  -1.141  0.00  0.00    +0.000 A 
ATOM     36  C   UNL     1     -11.750   4.762  -0.479  0.00  0.00    +0.000 A 
ATOM     37  C   UNL     1     -10.386   4.585  -0.615  0.00  0.00    +0.004 A 
ENDBRANCH  31  32
ENDBRANCH   1  31
TORSDOF 10
