REMARK  Name = ZINC08634801
REMARK  5 active torsions:
REMARK  status: ('A' for Active; 'I' for Inactive)
REMARK    1  A    between atoms: C_1  and  C_2
REMARK    2  A    between atoms: C_14  and  C_16
REMARK    3  A    between atoms: C_16  and  N_17
REMARK    4  A    between atoms: C_20  and  C_24
REMARK    5  A    between atoms: C_20  and  C_25
REMARK                            x       y       z     vdW  Elec       q    Type
REMARK                         _______ _______ _______ _____ _____    ______ ____
ROOT
ATOM      1  N   UNL     1      -3.981   1.010  -1.732  0.00  0.00    -0.215 N 
ATOM      2  C   UNL     1      -3.604   1.766  -0.681  0.00  0.00    +0.251 C 
ATOM      3  O   UNL     1      -4.046   2.849  -0.362  0.00  0.00    -0.272 OA
ATOM      4  C   UNL     1      -2.514   0.979   0.019  0.00  0.00    +0.135 C 
ATOM      5  N   UNL     1      -2.391  -0.242  -0.795  0.00  0.00    -0.281 N 
ATOM      6  C   UNL     1      -3.286  -0.132  -1.793  0.00  0.00    +0.310 C 
ATOM      7  O   UNL     1      -3.447  -0.975  -2.653  0.00  0.00    -0.252 OA
ATOM      8  C   UNL     1      -2.932   0.636   1.450  0.00  0.00    +0.047 C 
ATOM      9  H   UNL     1      -1.782  -0.982  -0.642  0.00  0.00    +0.152 HD
ENDROOT
BRANCH   4  10
ATOM     10  C   UNL     1      -1.219   1.751   0.017  0.00  0.00    -0.014 A 
ATOM     11  C   UNL     1      -0.013   1.076   0.008  0.00  0.00    +0.006 A 
ATOM     12  C   UNL     1       1.175   1.783   0.000  0.00  0.00    +0.001 A 
ATOM     13  C   UNL     1       1.157   3.165   0.008  0.00  0.00    +0.015 A 
ATOM     14  C   UNL     1      -0.050   3.841   0.022  0.00  0.00    +0.018 A 
ATOM     15  C   UNL     1      -1.238   3.132   0.030  0.00  0.00    +0.021 A 
ATOM     16 BR   UNL     1      -0.076   5.731   0.033  0.00  0.00    -0.050 Br
ENDBRANCH   4  10
BRANCH   1  17
ATOM     17  C   UNL     1      -5.020   1.394  -2.690  0.00  0.00    +0.214 C 
BRANCH  17  30
ATOM     18  C   UNL     1      -4.739   1.067  -9.052  0.00  0.00    +0.019 C 
ATOM     19  C   UNL     1      -5.288   1.745  -7.795  0.00  0.00    +0.050 C 
ATOM     20  C   UNL     1      -4.156   2.450  -7.067  0.00  0.00    +0.033 C 
ATOM     21  C   UNL     1      -4.579   3.372  -5.953  0.00  0.00    +0.115 C 
ATOM     22  N   UNL     1      -5.168   2.619  -4.834  0.00  0.00    -0.269 N 
ATOM     23  C   UNL     1      -6.547   2.385  -4.844  0.00  0.00    +0.050 A 
ATOM     24  C   UNL     1      -7.370   3.118  -3.987  0.00  0.00    +0.024 A 
ATOM     25  C   UNL     1      -8.739   2.933  -4.027  0.00  0.00    +0.002 A 
ATOM     26  C   UNL     1      -9.307   2.031  -4.907  0.00  0.00    +0.001 A 
ATOM     27  C   UNL     1      -8.496   1.283  -5.747  0.00  0.00    +0.016 A 
ATOM     28  C   UNL     1      -7.129   1.460  -5.694  0.00  0.00    +0.030 A 
ATOM     29  S   UNL     1      -6.043   0.493  -6.717  0.00  0.00    -0.120 S 
ATOM     30  C   UNL     1      -4.397   2.162  -3.827  0.00  0.00    +0.238 C 
ATOM     31  O   UNL     1      -3.202   2.370  -3.836  0.00  0.00    -0.274 OA
ENDBRANCH  17  30
ENDBRANCH   1  17
TORSDOF 3
