REMARK  Name = ZINC63996750
REMARK  9 active torsions:
REMARK  status: ('A' for Active; 'I' for Inactive)
REMARK    1  A    between atoms: C_1  and  O_2
REMARK    2  A    between atoms: O_2  and  C_3
REMARK    3  A    between atoms: C_3  and  C_4
REMARK    4  A    between atoms: C_4  and  N_5
REMARK    5  A    between atoms: N_5  and  C_6
REMARK    6  A    between atoms: C_14  and  C_16
REMARK    7  A    between atoms: C_16  and  N_17
REMARK    8  A    between atoms: C_20  and  C_25
REMARK    9  A    between atoms: C_25  and  C_26
REMARK                            x       y       z     vdW  Elec       q    Type
REMARK                         _______ _______ _______ _____ _____    ______ ____
ROOT
ATOM      1  N   UNL     1       0.374  -2.742  -3.790  0.00  0.00    -0.216 N 
ATOM      2  C   UNL     1      -0.411  -3.735  -4.253  0.00  0.00    +0.244 C 
ATOM      3  O   UNL     1      -0.473  -4.873  -3.840  0.00  0.00    -0.273 OA
ATOM      4  C   UNL     1      -1.200  -3.132  -5.398  0.00  0.00    +0.165 C 
ATOM      5  N   UNL     1      -0.724  -1.739  -5.452  0.00  0.00    -0.287 N 
ATOM      6  C   UNL     1       0.188  -1.606  -4.472  0.00  0.00    +0.310 C 
ATOM      7  O   UNL     1       0.780  -0.572  -4.236  0.00  0.00    -0.252 OA
ATOM      8  H   UNL     1      -1.014  -1.051  -6.071  0.00  0.00    +0.151 HD
ENDROOT
BRANCH   1   9
ATOM      9  C   UNL     1       1.310  -2.887  -2.672  0.00  0.00    +0.213 C 
BRANCH   9  11
ATOM     10  N   UNL     1       1.299  -2.525  -0.225  0.00  0.00    -0.293 N 
ATOM     11  C   UNL     1       0.607  -2.557  -1.381  0.00  0.00    +0.234 C 
ATOM     12  O   UNL     1      -0.583  -2.322  -1.382  0.00  0.00    -0.274 OA
BRANCH  10  13
ATOM     13  C   UNL     1       2.711  -2.916  -0.206  0.00  0.00    +0.099 C 
ATOM     14  C   UNL     1       3.548  -1.777   0.401  0.00  0.00    +0.046 C 
ATOM     15  C   UNL     1       4.971  -2.328   0.698  0.00  0.00    +0.168 C 
ATOM     16  S   UNL     1       4.556  -3.996   1.362  0.00  0.00    -0.029 S 
ATOM     17  O   UNL     1       5.428  -4.955   0.781  0.00  0.00    -0.174 OA
ATOM     18  O   UNL     1       4.446  -3.917   2.776  0.00  0.00    -0.174 OA
ATOM     19  C   UNL     1       2.877  -4.200   0.642  0.00  0.00    +0.188 C 
ENDBRANCH  10  13
BRANCH  10  20
ATOM     20  C   UNL     1       0.640  -2.099   1.012  0.00  0.00    +0.136 C 
BRANCH  20  21
ATOM     21  C   UNL     1       0.665  -0.571   1.103  0.00  0.00    +0.178 C 
BRANCH  21  23
ATOM     22  C   UNL     1      -0.152   1.411   0.031  0.00  0.00    +0.194 C 
ATOM     23  O   UNL     1      -0.110  -0.018   0.038  0.00  0.00    -0.381 OA
ENDBRANCH  21  23
ENDBRANCH  20  21
ENDBRANCH  10  20
ENDBRANCH   9  11
ENDBRANCH   1   9
BRANCH   4  24
ATOM     24  C   UNL     1      -2.701  -3.181  -5.101  0.00  0.00    +0.065 C 
BRANCH  24  25
ATOM     25  C   UNL     1      -3.466  -2.690  -6.303  0.00  0.00    -0.039 C 
ATOM     26  C   UNL     1      -4.009  -3.445  -7.286  0.00  0.00    -0.001 A 
ATOM     27  C   UNL     1      -4.045  -4.893  -7.521  0.00  0.00    +0.010 A 
ATOM     28  C   UNL     1      -4.678  -5.363  -8.620  0.00  0.00    +0.001 A 
ATOM     29  C   UNL     1      -5.298  -4.504  -9.538  0.00  0.00    +0.002 A 
ATOM     30  C   UNL     1      -5.307  -3.162  -9.389  0.00  0.00    +0.026 A 
ATOM     31  C   UNL     1      -4.671  -2.559  -8.269  0.00  0.00    +0.043 A 
ATOM     32  N   UNL     1      -4.544  -1.305  -7.909  0.00  0.00    -0.380 N 
ATOM     33  C   UNL     1      -3.790  -1.254  -6.651  0.00  0.00    +0.144 C 
ATOM     34  H   UNL     1      -4.893  -0.539  -8.391  0.00  0.00    +0.160 HD
ENDBRANCH  24  25
ENDBRANCH   4  24
TORSDOF 8
