REMARK  Name = ZINC04089473
REMARK  7 active torsions:
REMARK  status: ('A' for Active; 'I' for Inactive)
REMARK    1  A    between atoms: C_1  and  C_2
REMARK    2  A    between atoms: C_2  and  C_31
REMARK    3  A    between atoms: C_8  and  O_19
REMARK    4  A    between atoms: O_19  and  C_20
REMARK    5  A    between atoms: C_20  and  C_21
REMARK    6  A    between atoms: N_23  and  C_24
REMARK    7  A    between atoms: C_24  and  C_25
REMARK                            x       y       z     vdW  Elec       q    Type
REMARK                         _______ _______ _______ _____ _____    ______ ____
ROOT
ATOM      1  C   UNL     1       1.927  -2.518  -5.136  0.00  0.00    +0.055 C 
ATOM      2  C   UNL     1       2.924  -1.383  -4.896  0.00  0.00    +0.105 C 
ATOM      3  C   UNL     1       2.852  -0.378  -6.053  0.00  0.00    +0.052 C 
ATOM      4  C   UNL     1       1.400   0.086  -6.194  0.00  0.00    +0.046 C 
ATOM      5  C   UNL     1       0.857   0.474  -4.842  0.00  0.00    +0.038 A 
ATOM      6  C   UNL     1       1.470   0.061  -3.672  0.00  0.00    +0.131 A 
ATOM      7  C   UNL     1       0.943   0.433  -2.433  0.00  0.00    +0.092 A 
ATOM      8  C   UNL     1      -0.195   1.208  -2.358  0.00  0.00    +0.136 A 
ATOM      9  C   UNL     1      -0.820   1.636  -3.542  0.00  0.00    +0.063 A 
ATOM     10  C   UNL     1      -0.287   1.261  -4.787  0.00  0.00    +0.149 A 
ATOM     11  O   UNL     1      -0.889   1.667  -5.926  0.00  0.00    -0.421 OA
ATOM     12  C   UNL     1      -1.993   2.431  -5.887  0.00  0.00    +0.341 A 
ATOM     13  O   UNL     1      -2.514   2.782  -6.931  0.00  0.00    -0.245 OA
ATOM     14  C   UNL     1      -2.561   2.837  -4.659  0.00  0.00    +0.041 A 
ATOM     15  C   UNL     1      -1.986   2.446  -3.493  0.00  0.00    -0.023 A 
ATOM     16  C   UNL     1      -2.761   2.994  -2.317  0.00  0.00    +0.037 C 
ATOM     17  C   UNL     1      -3.632   4.126  -2.903  0.00  0.00    +0.010 C 
ATOM     18  C   UNL     1      -3.781   3.687  -4.376  0.00  0.00    +0.043 C 
ATOM     19  O   UNL     1       2.593  -0.701  -3.686  0.00  0.00    -0.486 OA
ATOM     20  C   UNL     1       4.340  -1.953  -4.796  0.00  0.00    +0.055 C 
ENDROOT
BRANCH   8  21
ATOM     21  O   UNL     1      -0.704   1.559  -1.150  0.00  0.00    -0.482 OA
BRANCH  21  22
ATOM     22  C   UNL     1      -0.013   1.086   0.008  0.00  0.00    +0.324 C 
BRANCH  22  23
ATOM     23  C   UNL     1      -0.718   1.572   1.248  0.00  0.00    +0.251 C 
ATOM     24  O   UNL     1      -1.714   2.256   1.150  0.00  0.00    -0.272 OA
ATOM     25  N   UNL     1      -0.242   1.246   2.466  0.00  0.00    -0.305 N 
ATOM     26  H   UNL     1       0.555   0.699   2.544  0.00  0.00    +0.149 HD
BRANCH  25  27
ATOM     27  C   UNL     1      -0.927   1.718   3.671  0.00  0.00    +0.178 C 
BRANCH  27  28
ATOM     28  C   UNL     1      -0.198   1.219   4.892  0.00  0.00    +0.122 A 
ATOM     29  C   UNL     1       0.800   1.858   5.528  0.00  0.00    +0.046 A 
ATOM     30  C   UNL     1       1.187   1.037   6.612  0.00  0.00    +0.041 A 
ATOM     31  C   UNL     1       0.402  -0.055   6.573  0.00  0.00    +0.195 A 
ATOM     32  O   UNL     1      -0.439   0.064   5.533  0.00  0.00    -0.466 OA
ENDBRANCH  27  28
ENDBRANCH  25  27
ENDBRANCH  22  23
ENDBRANCH  21  22
ENDBRANCH   8  21
TORSDOF 5
