REMARK  Name = ZINC38665430
REMARK  12 active torsions:
REMARK  status: ('A' for Active; 'I' for Inactive)
REMARK    1  A    between atoms: C_1  and  C_2
REMARK    2  A    between atoms: C_2  and  C_3
REMARK    3  A    between atoms: C_3  and  O_42
REMARK    4  A    between atoms: C_9  and  O_30
REMARK    5  A    between atoms: C_11  and  O_14
REMARK    6  A    between atoms: O_14  and  C_15
REMARK    7  A    between atoms: C_18  and  N_27
REMARK    8  A    between atoms: C_20  and  O_26
REMARK    9  A    between atoms: C_22  and  C_25
REMARK   10  A    between atoms: N_27  and  C_28
REMARK   11  A    between atoms: N_27  and  C_29
REMARK   12  A    between atoms: C_38  and  O_39
REMARK                            x       y       z     vdW  Elec       q    Type
REMARK                         _______ _______ _______ _____ _____    ______ ____
ROOT
ATOM      1  C   UNL     1       0.727  -0.359  -1.297  0.00  0.00    +0.072 C 
ATOM      2  C   UNL     1       0.143   0.174  -2.604  0.00  0.00    +0.070 C 
ATOM      3  C   UNL     1       0.796  -0.492  -3.788  0.00  0.00    -0.035 A 
ATOM      4  C   UNL     1       0.667   0.133  -5.026  0.00  0.00    +0.016 A 
ATOM      5  C   UNL     1       1.237  -0.422  -6.161  0.00  0.00    +0.037 A 
ATOM      6  C   UNL     1       1.950  -1.633  -6.058  0.00  0.00    +0.075 A 
ATOM      7  C   UNL     1       2.075  -2.249  -4.815  0.00  0.00    +0.134 A 
ATOM      8  C   UNL     1       1.497  -1.670  -3.679  0.00  0.00    +0.027 A 
ATOM      9  C   UNL     1       1.686  -2.383  -2.365  0.00  0.00    +0.158 C 
ATOM     10  C   UNL     1       0.673  -1.891  -1.334  0.00  0.00    +0.071 C 
ATOM     11  C   UNL     1       2.557  -2.230  -7.264  0.00  0.00    +0.202 C 
ATOM     12  O   UNL     1       2.951  -3.380  -7.248  0.00  0.00    -0.286 OA
ATOM     13  C   UNL     1       2.679  -1.415  -8.488  0.00  0.00    +0.075 A 
ATOM     14  C   UNL     1       1.967  -0.204  -8.595  0.00  0.00    +0.037 A 
ATOM     15  C   UNL     1       2.081   0.563  -9.748  0.00  0.00    +0.012 A 
ATOM     16  C   UNL     1       2.893   0.136 -10.787  0.00  0.00    +0.004 A 
ATOM     17  C   UNL     1       3.592  -1.049 -10.689  0.00  0.00    +0.046 A 
ATOM     18  C   UNL     1       3.493  -1.833  -9.543  0.00  0.00    +0.128 A 
ATOM     19  C   UNL     1       1.105   0.239  -7.477  0.00  0.00    +0.195 C 
ATOM     20  O   UNL     1       0.299   1.134  -7.639  0.00  0.00    -0.287 OA
ENDROOT
BRANCH   1  22
ATOM     21  C   UNL     1      -0.142   1.687  -0.156  0.00  0.00    +0.007 C 
ATOM     22  C   UNL     1      -0.097   0.158  -0.116  0.00  0.00    +0.032 C 
ENDBRANCH   1  22
BRANCH   7  23
ATOM     23  O   UNL     1       2.759  -3.415  -4.705  0.00  0.00    -0.506 OA
ATOM     24  H   UNL     1       3.701  -3.302  -4.518  0.00  0.00    +0.292 HD
ENDBRANCH   7  23
BRANCH  18  25
ATOM     25  O   UNL     1       4.182  -2.998  -9.451  0.00  0.00    -0.506 OA
ATOM     26  H   UNL     1       3.699  -3.768  -9.781  0.00  0.00    +0.292 HD
ENDBRANCH  18  25
BRANCH   1  27
ATOM     27  O   UNL     1       2.083   0.072  -1.163  0.00  0.00    -0.388 OA
ATOM     28  H   UNL     1       2.190   1.033  -1.142  0.00  0.00    +0.210 HD
ENDBRANCH   1  27
BRANCH   9  29
ATOM     29  O   UNL     1       1.512  -3.788  -2.561  0.00  0.00    -0.343 OA
BRANCH  29  30
ATOM     30  C   UNL     1       2.316  -4.599  -1.702  0.00  0.00    +0.250 C 
ATOM     31  C   UNL     1       2.264  -6.053  -2.178  0.00  0.00    +0.049 C 
ATOM     32  C   UNL     1       3.079  -6.925  -1.218  0.00  0.00    -0.033 C 
ATOM     33  C   UNL     1       2.526  -6.758   0.201  0.00  0.00    +0.130 C 
ATOM     34  C   UNL     1       2.567  -5.276   0.585  0.00  0.00    +0.145 C 
ATOM     35  O   UNL     1       1.816  -4.518  -0.366  0.00  0.00    -0.346 OA
ATOM     36  C   UNL     1       1.961  -5.093   1.977  0.00  0.00    +0.040 C 
BRANCH  32  37
ATOM     37  N   UNL     1       2.975  -8.333  -1.625  0.00  0.00    +0.380 N 
ATOM     38  C   UNL     1       3.498  -8.488  -2.989  0.00  0.00    -0.096 C 
ATOM     39  C   UNL     1       3.757  -9.168  -0.703  0.00  0.00    -0.096 C 
ATOM     40  H   UNL     1       2.008  -8.620  -1.600  0.00  0.00    -0.082 HD
ENDBRANCH  32  37
BRANCH  33  41
ATOM     41  O   UNL     1       1.176  -7.226   0.245  0.00  0.00    -0.391 OA
ATOM     42  H   UNL     1       0.762  -7.150   1.116  0.00  0.00    +0.210 HD
ENDBRANCH  33  41
ENDBRANCH  29  30
ENDBRANCH   9  29
TORSDOF 8
