REMARK  Name = ZINC43259219
REMARK  5 active torsions:
REMARK  status: ('A' for Active; 'I' for Inactive)
REMARK    1  A    between atoms: C_1  and  C_2
REMARK    2  A    between atoms: C_2  and  C_4
REMARK    3  A    between atoms: C_2  and  N_23
REMARK    4  A    between atoms: C_4  and  C_6
REMARK    5  A    between atoms: C_4  and  N_12
REMARK                            x       y       z     vdW  Elec       q    Type
REMARK                         _______ _______ _______ _____ _____    ______ ____
ROOT
ATOM      1  C   UNL     1       0.667  -0.612   1.238  0.00  0.00    +0.079 C 
ENDROOT
BRANCH   1   2
ATOM      2  N   UNL     1      -0.092  -0.235   2.438  0.00  0.00    -0.294 NA
ATOM      3  C   UNL     1      -0.325   1.215   2.480  0.00  0.00    +0.104 C 
ATOM      4  C   UNL     1      -1.268   1.544   3.642  0.00  0.00    +0.122 C 
ATOM      5  N   UNL     1      -0.711   0.968   4.875  0.00  0.00    -0.307 N 
ATOM      6  C   UNL     1      -0.324  -0.451   4.867  0.00  0.00    +0.122 C 
ATOM      7  C   UNL     1       0.583  -0.702   3.657  0.00  0.00    +0.104 C 
ATOM      8  C   UNL     1      -0.553   1.742   6.013  0.00  0.00    +0.161 A 
ATOM      9  N   UNL     1      -0.851   3.012   6.187  0.00  0.00    -0.233 NA
ATOM     10  C   UNL     1      -0.638   3.611   7.346  0.00  0.00    +0.120 A 
ATOM     11  C   UNL     1      -0.103   2.859   8.338  0.00  0.00    +0.068 A 
ATOM     12  S   UNL     1       0.059   1.284   7.513  0.00  0.00    -0.061 S 
ENDBRANCH   1   2
BRANCH   1  13
ATOM     13  C   UNL     1       0.884  -2.103   1.229  0.00  0.00    +0.006 A 
ATOM     14  C   UNL     1       1.988  -2.803   0.873  0.00  0.00    +0.014 A 
ATOM     15  C   UNL     1       1.960  -4.183   0.944  0.00  0.00    +0.023 A 
ATOM     16  C   UNL     1       0.827  -4.796   1.369  0.00  0.00    +0.055 A 
ATOM     17  S   UNL     1      -0.246  -3.406   1.692  0.00  0.00    -0.085 S 
ATOM     18 BR   UNL     1       0.477  -6.643   1.574  0.00  0.00    -0.043 Br
ENDBRANCH   1  13
BRANCH   1  20
ATOM     19  C   UNL     1       0.665  -0.614  -1.260  0.00  0.00    -0.012 C 
ATOM     20  C   UNL     1      -0.116  -0.202  -0.010  0.00  0.00    -0.056 C 
BRANCH  20  21
ATOM     21  N   UNL     1      -1.424  -0.870  -0.009  0.00  0.00    +0.381 N 
ATOM     22  H   UNL     1      -1.940  -0.599   0.815  0.00  0.00    -0.090 HD
ATOM     23  H   UNL     1      -1.941  -0.600  -0.832  0.00  0.00    -0.090 HD
ATOM     24  H   UNL     1      -1.292  -1.870  -0.008  0.00  0.00    -0.090 HD
ENDBRANCH  20  21
ENDBRANCH   1  20
TORSDOF 4
