REMARK  Name = ZINC16851945
REMARK  8 active torsions:
REMARK  status: ('A' for Active; 'I' for Inactive)
REMARK    1  A    between atoms: C_1  and  C_2
REMARK    2  A    between atoms: C_2  and  O_3
REMARK    3  A    between atoms: O_3  and  C_4
REMARK    4  A    between atoms: C_6  and  C_11
REMARK    5  A    between atoms: C_9  and  O_10
REMARK    6  A    between atoms: N_17  and  C_18
REMARK    7  A    between atoms: C_21  and  C_25
REMARK    8  A    between atoms: C_23  and  C_24
REMARK                            x       y       z     vdW  Elec       q    Type
REMARK                         _______ _______ _______ _____ _____    ______ ____
ROOT
ATOM      1  C   UNL     1       0.658  -5.136   0.959  0.00  0.00    +0.028 C 
ATOM      2  C   UNL     1       0.476  -6.438   0.621  0.00  0.00    +0.078 C 
ATOM      3  C   UNL     1      -0.137  -7.530   1.400  0.00  0.00    +0.256 C 
ATOM      4  O   UNL     1      -0.577  -7.344   2.520  0.00  0.00    -0.269 OA
ATOM      5  N   UNL     1      -0.189  -8.720   0.826  0.00  0.00    -0.260 N 
ATOM      6  C   UNL     1       0.313  -8.911  -0.443  0.00  0.00    +0.166 C 
ATOM      7  N   UNL     1       0.342 -10.016  -1.153  0.00  0.00    -0.225 NA
ATOM      8  S   UNL     1       0.909  -7.288  -0.890  0.00  0.00    -0.049 S 
ATOM      9  H   UNL     1      -0.584  -9.467   1.303  0.00  0.00    +0.157 HD
ENDROOT
BRANCH   7  10
ATOM     10  C   UNL     1      -0.196 -11.168  -0.647  0.00  0.00    +0.069 A 
ATOM     11  C   UNL     1      -1.473 -11.158  -0.083  0.00  0.00    +0.028 A 
ATOM     12  C   UNL     1      -2.009 -12.323   0.425  0.00  0.00    +0.005 A 
ATOM     13  C   UNL     1      -1.283 -13.501   0.376  0.00  0.00    -0.050 A 
ATOM     14  C   UNL     1      -0.017 -13.518  -0.182  0.00  0.00    +0.008 A 
ATOM     15  C   UNL     1       0.529 -12.361  -0.698  0.00  0.00    -0.025 A 
ATOM     16  C   UNL     1       1.905 -12.384  -1.311  0.00  0.00    +0.046 C 
ATOM     17  C   UNL     1      -1.875 -14.770   0.933  0.00  0.00    +0.044 C 
ENDBRANCH   7  10
BRANCH   1  20
ATOM     18  C   UNL     1       2.360  -2.092  -0.421  0.00  0.00    +0.162 A 
ATOM     19  C   UNL     1       1.549  -2.894   0.357  0.00  0.00    +0.057 A 
ATOM     20  C   UNL     1       1.518  -4.276   0.135  0.00  0.00    -0.020 A 
ATOM     21  C   UNL     1       2.309  -4.837  -0.875  0.00  0.00    +0.012 A 
ATOM     22  C   UNL     1       3.115  -4.028  -1.646  0.00  0.00    +0.050 A 
ATOM     23  C   UNL     1       3.141  -2.657  -1.428  0.00  0.00    +0.158 A 
BRANCH  23  24
ATOM     24  O   UNL     1       3.933  -1.864  -2.195  0.00  0.00    -0.503 OA
ATOM     25  H   UNL     1       4.826  -1.742  -1.843  0.00  0.00    +0.292 HD
ENDBRANCH  23  24
BRANCH  18  26
ATOM     26  O   UNL     1       2.392  -0.749  -0.208  0.00  0.00    -0.489 OA
BRANCH  26  28
ATOM     27  C   UNL     1       1.736   1.280   0.929  0.00  0.00    +0.048 C 
ATOM     28  C   UNL     1       1.567  -0.238   0.841  0.00  0.00    +0.226 C 
ENDBRANCH  26  28
ENDBRANCH  18  26
ENDBRANCH   1  20
TORSDOF 5
