REMARK  Name = ZINC04150040
REMARK  12 active torsions:
REMARK  status: ('A' for Active; 'I' for Inactive)
REMARK    1  A    between atoms: C_1  and  C_2
REMARK    2  A    between atoms: C_5  and  S_8
REMARK    3  A    between atoms: S_8  and  N_11
REMARK    4  A    between atoms: C_20  and  C_43
REMARK    5  A    between atoms: C_21  and  C_23
REMARK    6  A    between atoms: C_23  and  C_24
REMARK    7  A    between atoms: N_26  and  C_27
REMARK    8  A    between atoms: C_27  and  C_28
REMARK    9  A    between atoms: C_36  and  O_42
REMARK   10  A    between atoms: C_38  and  C_39
REMARK   11  A    between atoms: C_38  and  C_40
REMARK   12  A    between atoms: C_40  and  O_41
REMARK                            x       y       z     vdW  Elec       q    Type
REMARK                         _______ _______ _______ _____ _____    ______ ____
ROOT
ATOM      1  N   UNL     1      -4.684  -7.445  -1.483  0.00  0.00    -0.194 N 
ATOM      2  C   UNL     1      -4.091  -6.238  -1.147  0.00  0.00    +0.178 A 
ATOM      3  N   UNL     1      -2.841  -5.855  -1.312  0.00  0.00    -0.228 NA
ATOM      4  C   UNL     1      -2.413  -4.652  -0.934  0.00  0.00    +0.058 A 
ATOM      5  C   UNL     1      -3.342  -3.840  -0.370  0.00  0.00    +0.015 A 
ATOM      6  S   UNL     1      -4.805  -4.841  -0.400  0.00  0.00    -0.056 S 
ATOM      7  C   UNL     1      -3.151  -2.454   0.139  0.00  0.00    +0.049 C 
ATOM      8  C   UNL     1      -1.642  -2.169   0.267  0.00  0.00    +0.011 C 
ATOM      9  C   UNL     1      -0.938  -2.640  -1.008  0.00  0.00    -0.019 C 
ATOM     10  C   UNL     1      -0.979  -4.171  -1.100  0.00  0.00    +0.054 C 
ATOM     11  C   UNL     1       0.536  -2.221  -0.982  0.00  0.00    +0.010 C 
ATOM     12  C   UNL     1       0.654  -0.704  -0.842  0.00  0.00    +0.032 C 
ATOM     13  C   UNL     1      -0.001  -0.279   0.475  0.00  0.00    +0.123 C 
ATOM     14  C   UNL     1      -1.481  -0.654   0.431  0.00  0.00    +0.021 C 
ATOM     15  C   UNL     1      -2.155  -0.212   1.731  0.00  0.00    +0.016 C 
ATOM     16  C   UNL     1      -1.624  -2.027  -2.230  0.00  0.00    +0.012 C 
ATOM     17  H   UNL     1      -4.157  -8.145  -1.900  0.00  0.00    +0.176 HD
ENDROOT
BRANCH   1  18
ATOM     18  S   UNL     1      -6.292  -7.693  -1.172  0.00  0.00    +0.074 S 
ATOM     19  O   UNL     1      -6.602  -8.995  -1.648  0.00  0.00    -0.150 OA
ATOM     20  O   UNL     1      -6.509  -7.303   0.177  0.00  0.00    -0.150 OA
BRANCH  18  25
ATOM     21  C   UNL     1      -9.390  -3.818  -4.606  0.00  0.00    +0.044 C 
ATOM     22  C   UNL     1      -8.617  -4.786  -3.748  0.00  0.00    -0.050 A 
ATOM     23  C   UNL     1      -8.306  -6.043  -4.232  0.00  0.00    +0.005 A 
ATOM     24  C   UNL     1      -7.596  -6.931  -3.445  0.00  0.00    +0.029 A 
ATOM     25  C   UNL     1      -7.197  -6.561  -2.175  0.00  0.00    +0.109 A 
ATOM     26  C   UNL     1      -7.512  -5.306  -1.688  0.00  0.00    +0.029 A 
ATOM     27  C   UNL     1      -8.218  -4.417  -2.477  0.00  0.00    +0.005 A 
ENDBRANCH  18  25
ENDBRANCH   1  18
BRANCH  13  28
ATOM     28  O   UNL     1       0.130   1.135   0.641  0.00  0.00    -0.391 OA
ATOM     29  H   UNL     1       1.045   1.444   0.666  0.00  0.00    +0.210 HD
ENDBRANCH  13  28
BRANCH  10  30
ATOM     30  C   UNL     1      -0.448  -4.615  -2.465  0.00  0.00    +0.106 C 
BRANCH  30  31
ATOM     31  C   UNL     1      -0.301  -6.114  -2.483  0.00  0.00    +0.214 C 
ATOM     32  O   UNL     1      -0.593  -6.765  -1.502  0.00  0.00    -0.276 OA
ATOM     33  N   UNL     1       0.154  -6.733  -3.591  0.00  0.00    -0.311 N 
ATOM     34  H   UNL     1       0.388  -6.213  -4.376  0.00  0.00    +0.149 HD
BRANCH  33  35
ATOM     35  C   UNL     1       0.297  -8.191  -3.609  0.00  0.00    +0.139 C 
BRANCH  35  36
ATOM     36  C   UNL     1       0.820  -8.627  -4.953  0.00  0.00    -0.030 A 
ATOM     37  C   UNL     1      -0.062  -8.938  -5.971  0.00  0.00    +0.005 A 
ATOM     38  C   UNL     1       0.419  -9.334  -7.205  0.00  0.00    +0.000 A 
ATOM     39  C   UNL     1       1.781  -9.429  -7.419  0.00  0.00    +0.000 A 
ATOM     40  C   UNL     1       2.663  -9.124  -6.399  0.00  0.00    +0.000 A 
ATOM     41  C   UNL     1       2.183  -8.723  -5.166  0.00  0.00    +0.005 A 
ENDBRANCH  35  36
ENDBRANCH  33  35
ENDBRANCH  30  31
ENDBRANCH  10  30
BRANCH  14  42
ATOM     42  C   UNL     1      -2.149   0.057  -0.748  0.00  0.00    +0.165 C 
BRANCH  42  43
ATOM     43  O   UNL     1      -2.159   1.466  -0.510  0.00  0.00    -0.394 OA
ATOM     44  H   UNL     1      -2.569   1.981  -1.219  0.00  0.00    +0.209 HD
ENDBRANCH  42  43
ENDBRANCH  14  42
TORSDOF 9
