REMARK  Name = ZINC09579601
REMARK  11 active torsions:
REMARK  status: ('A' for Active; 'I' for Inactive)
REMARK    1  A    between atoms: C_1  and  O_2
REMARK    2  A    between atoms: O_2  and  C_3
REMARK    3  A    between atoms: C_7  and  C_9
REMARK    4  A    between atoms: C_12  and  C_21
REMARK    5  A    between atoms: C_15  and  C_17
REMARK    6  A    between atoms: C_17  and  N_65
REMARK    7  A    between atoms: C_18  and  C_19
REMARK    8  A    between atoms: C_18  and  N_65
REMARK    9  A    between atoms: C_19  and  O_20
REMARK   10  A    between atoms: N_23  and  C_32
REMARK   11  A    between atoms: C_25  and  C_26
REMARK                            x       y       z     vdW  Elec       q    Type
REMARK                         _______ _______ _______ _____ _____    ______ ____
ROOT
ATOM      1  C   UNL     1       9.456   0.066  -0.090  0.00  0.00    +0.137 C 
ATOM      2  C   UNL     1       7.963   0.449  -0.074  0.00  0.00    +0.087 C 
ATOM      3  C   UNL     1       7.246  -0.882  -0.074  0.00  0.00    +0.072 C 
ATOM      4  N   UNL     1       8.110  -1.837  -0.082  0.00  0.00    -0.181 NA
ATOM      5  N   UNL     1       9.435  -1.405  -0.097  0.00  0.00    -0.187 N 
ATOM      6  C   UNL     1      10.520  -2.205  -0.111  0.00  0.00    +0.218 C 
ATOM      7  O   UNL     1      11.632  -1.719  -0.118  0.00  0.00    -0.276 OA
ENDROOT
BRANCH   1  12
ATOM      8  C   UNL     1      11.535   2.213   2.222  0.00  0.00    +0.120 A 
ATOM      9  C   UNL     1      11.418   1.520   3.419  0.00  0.00    +0.045 A 
ATOM     10  C   UNL     1      10.669   0.361   3.474  0.00  0.00    +0.004 A 
ATOM     11  C   UNL     1      10.030  -0.105   2.340  0.00  0.00    +0.006 A 
ATOM     12  C   UNL     1      10.149   0.581   1.146  0.00  0.00    -0.021 A 
ATOM     13  C   UNL     1      10.897   1.740   1.085  0.00  0.00    +0.051 A 
BRANCH   8  15
ATOM     14  C   UNL     1      12.900   3.781   3.375  0.00  0.00    +0.277 C 
ATOM     15  O   UNL     1      12.272   3.354   2.165  0.00  0.00    -0.495 OA
ENDBRANCH   8  15
ENDBRANCH   1  12
BRANCH   3  16
ATOM     16  C   UNL     1       5.783  -1.059  -0.061  0.00  0.00    +0.044 A 
ATOM     17  C   UNL     1       4.840  -0.069  -0.046  0.00  0.00    +0.124 A 
ATOM     18  N   UNL     1       3.623  -0.651  -0.038  0.00  0.00    -0.239 N 
ATOM     19  N   UNL     1       3.772  -2.042  -0.041  0.00  0.00    -0.166 NA
ATOM     20  C   UNL     1       5.055  -2.331  -0.061  0.00  0.00    +0.102 A 
BRANCH  20  21
ATOM     21  C   UNL     1       5.652  -3.688  -0.074  0.00  0.00    +0.003 A 
ATOM     22  C   UNL     1       6.828  -3.928  -0.784  0.00  0.00    +0.010 A 
ATOM     23  C   UNL     1       7.381  -5.192  -0.789  0.00  0.00    +0.001 A 
ATOM     24  C   UNL     1       6.766  -6.222  -0.100  0.00  0.00    +0.000 A 
ATOM     25  C   UNL     1       5.597  -5.991   0.601  0.00  0.00    +0.001 A 
ATOM     26  C   UNL     1       5.037  -4.730   0.618  0.00  0.00    +0.010 A 
ENDBRANCH  20  21
BRANCH  18  27
ATOM     27  C   UNL     1       2.400   0.031  -0.021  0.00  0.00    +0.065 A 
ATOM     28  C   UNL     1       1.206  -0.680  -0.014  0.00  0.00    +0.028 A 
ATOM     29  C   UNL     1       0.002  -0.004   0.002  0.00  0.00    +0.002 A 
ATOM     30  C   UNL     1      -0.017   1.379   0.010  0.00  0.00    +0.000 A 
ATOM     31  C   UNL     1       1.170   2.089   0.002  0.00  0.00    +0.002 A 
ATOM     32  C   UNL     1       2.377   1.419  -0.013  0.00  0.00    +0.028 A 
ENDBRANCH  18  27
ENDBRANCH   3  16
BRANCH   6  33
ATOM     33  C   UNL     1      10.352  -3.703  -0.116  0.00  0.00    +0.017 C 
BRANCH  33  34
ATOM     34  N   UNL     1      11.683  -4.338  -0.131  0.00  0.00    +0.386 N 
ATOM     35  H   UNL     1      12.206  -4.049   0.704  0.00  0.00    -0.085 HD
ATOM     36  H   UNL     1      12.191  -4.041  -0.973  0.00  0.00    -0.085 HD
BRANCH  34  37
ATOM     37  C   UNL     1      11.550  -5.807  -0.137  0.00  0.00    -0.054 C 
BRANCH  37  38
ATOM     38  C   UNL     1      12.944  -6.438  -0.153  0.00  0.00    +0.137 C 
BRANCH  38  39
ATOM     39  O   UNL     1      13.623  -6.121   1.064  0.00  0.00    -0.397 OA
ATOM     40  H   UNL     1      14.515  -6.489   1.123  0.00  0.00    +0.209 HD
ENDBRANCH  38  39
ENDBRANCH  37  38
ENDBRANCH  34  37
ENDBRANCH  33  34
ENDBRANCH   6  33
TORSDOF 10
