REMARK  Name = ZINC32109653
REMARK  11 active torsions:
REMARK  status: ('A' for Active; 'I' for Inactive)
REMARK    1  A    between atoms: C_1  and  C_2
REMARK    2  A    between atoms: C_4  and  C_32
REMARK    3  A    between atoms: C_5  and  C_30
REMARK    4  A    between atoms: C_6  and  N_8
REMARK    5  A    between atoms: N_8  and  N_9
REMARK    6  A    between atoms: C_10  and  C_11
REMARK    7  A    between atoms: C_18  and  O_21
REMARK    8  A    between atoms: O_21  and  C_22
REMARK    9  A    between atoms: C_22  and  C_23
REMARK   10  A    between atoms: C_32  and  O_33
REMARK   11  A    between atoms: O_33  and  C_34
REMARK                            x       y       z     vdW  Elec       q    Type
REMARK                         _______ _______ _______ _____ _____    ______ ____
ROOT
ATOM      1  C   UNL     1      -2.522   3.884   0.046  0.00  0.00    +0.002 A 
ATOM      2  C   UNL     1      -3.693   3.135   0.061  0.00  0.00    +0.010 A 
ATOM      3  C   UNL     1      -3.643   1.748   0.053  0.00  0.00    +0.001 A 
ATOM      4  C   UNL     1      -2.461   1.072   0.030  0.00  0.00    +0.008 A 
ATOM      5  C   UNL     1      -1.239   1.764   0.009  0.00  0.00    -0.017 A 
ATOM      6  C   UNL     1      -1.241   3.180   0.021  0.00  0.00    -0.006 A 
ATOM      7  C   UNL     1      -0.027   3.876   0.005  0.00  0.00    +0.054 A 
ATOM      8  C   UNL     1       1.157   3.171  -0.017  0.00  0.00    +0.122 A 
ATOM      9  C   UNL     1       1.155   1.773  -0.024  0.00  0.00    +0.046 A 
ATOM     10  C   UNL     1      -0.013   1.076  -0.009  0.00  0.00    +0.012 A 
ENDROOT
BRANCH   1  12
ATOM     11  N   UNL     1      -1.472   6.041   0.145  0.00  0.00    -0.189 NA
ATOM     12  C   UNL     1      -2.572   5.354   0.054  0.00  0.00    +0.138 C 
BRANCH  11  13
ATOM     13  N   UNL     1      -1.519   7.441   0.153  0.00  0.00    -0.220 N 
ATOM     14  H   UNL     1      -2.487   7.959   0.081  0.00  0.00    +0.176 HD
BRANCH  13  20
ATOM     15  C   UNL     1       3.246   7.434   0.525  0.00  0.00    +0.065 C 
ATOM     16  C   UNL     1       1.953   8.203   0.430  0.00  0.00    +0.041 A 
ATOM     17  C   UNL     1       1.983   9.586   0.444  0.00  0.00    +0.030 A 
ATOM     18  C   UNL     1       0.798  10.294   0.357  0.00  0.00    +0.000 A 
ATOM     19  C   UNL     1      -0.400   9.577   0.257  0.00  0.00    +0.098 A 
ATOM     20  C   UNL     1      -0.348   8.172   0.250  0.00  0.00    +0.156 A 
ATOM     21  N   UNL     1       0.814   7.544   0.341  0.00  0.00    -0.234 NA
BRANCH  19  22
ATOM     22  C   UNL     1      -1.654  10.261   0.166  0.00  0.00    +0.103 C 
ATOM     23  N   UNL     1      -2.650  10.804   0.093  0.00  0.00    -0.191 NA
ENDBRANCH  19  22
BRANCH  18  24
ATOM     24  C   UNL     1       0.796  11.801   0.368  0.00  0.00    +0.196 C 
BRANCH  24  25
ATOM     25  O   UNL     1       2.139  12.278   0.477  0.00  0.00    -0.378 OA
ATOM     26  C   UNL     1       2.250  13.703   0.497  0.00  0.00    +0.194 C 
ENDBRANCH  24  25
ENDBRANCH  18  24
ENDBRANCH  13  20
ENDBRANCH  11  13
ENDBRANCH   1  12
BRANCH   8  27
ATOM     27  O   UNL     1       2.339   3.842  -0.032  0.00  0.00    -0.487 OA
BRANCH  27  28
ATOM     28  C   UNL     1       3.531   3.055  -0.055  0.00  0.00    +0.264 C 
BRANCH  28  29
ATOM     29  C   UNL     1       4.733   3.965  -0.069  0.00  0.00    -0.010 A 
ATOM     30  C   UNL     1       5.269   4.383  -1.273  0.00  0.00    +0.008 A 
ATOM     31  C   UNL     1       6.368   5.221  -1.286  0.00  0.00    +0.015 A 
ATOM     32  C   UNL     1       6.938   5.632  -0.095  0.00  0.00    +0.018 A 
ATOM     33  C   UNL     1       6.405   5.209   1.109  0.00  0.00    +0.015 A 
ATOM     34  C   UNL     1       5.303   4.375   1.121  0.00  0.00    +0.008 A 
ATOM     35 BR   UNL     1       8.446   6.773  -0.113  0.00  0.00    -0.050 Br
ENDBRANCH  28  29
ENDBRANCH  27  28
ENDBRANCH   8  27
TORSDOF 9
