REMARK  Name = ZINC45551890
REMARK  6 active torsions:
REMARK  status: ('A' for Active; 'I' for Inactive)
REMARK    1  A    between atoms: C_1  and  N_2
REMARK    2  A    between atoms: N_2  and  C_3
REMARK    3  A    between atoms: N_2  and  C_4
REMARK    4  A    between atoms: C_4  and  C_10
REMARK    5  A    between atoms: C_10  and  N_11
REMARK    6  A    between atoms: C_17  and  C_20
REMARK                            x       y       z     vdW  Elec       q    Type
REMARK                         _______ _______ _______ _____ _____    ______ ____
ROOT
ATOM      1  N   UNL     1      -2.375   1.254   1.301  0.00  0.00    -0.301 N 
ATOM      2  C   UNL     1      -3.127   1.831   2.259  0.00  0.00    +0.302 C 
ATOM      3  O   UNL     1      -3.628   1.150   3.132  0.00  0.00    -0.253 OA
ATOM      4  N   UNL     1      -3.323   3.165   2.249  0.00  0.00    -0.282 N 
ATOM      5  C   UNL     1      -4.041   3.841   3.343  0.00  0.00    +0.114 C 
ATOM      6  C   UNL     1      -3.071   4.821   4.009  0.00  0.00    +0.054 C 
ATOM      7  C   UNL     1      -2.326   5.607   2.972  0.00  0.00    -0.039 C 
ATOM      8  C   UNL     1      -2.209   5.249   1.714  0.00  0.00    -0.004 C 
ATOM      9  C   UNL     1      -2.823   4.003   1.150  0.00  0.00    +0.137 C 
ATOM     10  H   UNL     1      -1.915   1.804   0.648  0.00  0.00    +0.150 HD
ENDROOT
BRANCH   7  11
ATOM     11  C   UNL     1      -1.682   6.866   3.393  0.00  0.00    +0.005 A 
ATOM     12  C   UNL     1      -2.300   8.045   3.661  0.00  0.00    +0.093 A 
ATOM     13  N   UNL     1      -1.373   8.980   4.021  0.00  0.00    -0.345 N 
ATOM     14  H   UNL     1      -1.575   9.898   4.258  0.00  0.00    +0.167 HD
ATOM     15  C   UNL     1      -0.110   8.435   3.998  0.00  0.00    +0.139 A 
ATOM     16  C   UNL     1      -0.243   7.089   3.611  0.00  0.00    +0.026 A 
ATOM     17  C   UNL     1       0.892   6.287   3.510  0.00  0.00    +0.013 A 
ATOM     18  C   UNL     1       2.119   6.855   3.801  0.00  0.00    +0.020 A 
ATOM     19  C   UNL     1       2.178   8.187   4.180  0.00  0.00    +0.113 A 
ATOM     20  N   UNL     1       1.093   8.928   4.262  0.00  0.00    -0.237 NA
ENDBRANCH   7  11
BRANCH   1  21
ATOM     21  C   UNL     1      -2.252  -0.205   1.247  0.00  0.00    +0.094 C 
BRANCH  21  22
ATOM     22  C   UNL     1      -1.458  -0.604   0.001  0.00  0.00    -0.050 C 
ATOM     23  C   UNL     1      -1.440  -2.129  -0.126  0.00  0.00    -0.010 C 
ATOM     24  C   UNL     1      -0.782  -2.736   1.115  0.00  0.00    -0.001 C 
ATOM     25  C   UNL     1       0.652  -2.217   1.237  0.00  0.00    -0.000 C 
ATOM     26  C   UNL     1       0.634  -0.692   1.363  0.00  0.00    -0.001 C 
ATOM     27  C   UNL     1      -0.024  -0.085   0.123  0.00  0.00    -0.010 C 
BRANCH  22  29
ATOM     28  C   UNL     1      -1.330  -0.407  -2.386  0.00  0.00    -0.096 C 
ATOM     29  N   UNL     1      -2.090  -0.021  -1.190  0.00  0.00    +0.381 N 
ATOM     30  C   UNL     1      -3.469  -0.516  -1.305  0.00  0.00    -0.096 C 
ATOM     31  H   UNL     1      -2.100   0.985  -1.108  0.00  0.00    -0.082 HD
ENDBRANCH  22  29
ENDBRANCH  21  22
ENDBRANCH   1  21
TORSDOF 4
