REMARK  Name = ZINC20547402
REMARK  8 active torsions:
REMARK  status: ('A' for Active; 'I' for Inactive)
REMARK    1  A    between atoms: C_1  and  C_2
REMARK    2  A    between atoms: C_4  and  C_42
REMARK    3  A    between atoms: C_6  and  N_8
REMARK    4  A    between atoms: C_13  and  C_35
REMARK    5  A    between atoms: C_16  and  C_21
REMARK    6  A    between atoms: C_16  and  C_32
REMARK    7  A    between atoms: C_21  and  C_22
REMARK    8  A    between atoms: C_40  and  O_41
REMARK                            x       y       z     vdW  Elec       q    Type
REMARK                         _______ _______ _______ _____ _____    ______ ____
ROOT
ATOM      1  N   UNL     1       3.937  -0.616  -0.355  0.00  0.00    -0.210 N 
ATOM      2  C   UNL     1       4.000  -1.950  -0.272  0.00  0.00    +0.229 C 
ATOM      3  O   UNL     1       3.054  -2.703  -0.364  0.00  0.00    -0.275 OA
ATOM      4  C   UNL     1       5.434  -2.372  -0.046  0.00  0.00    +0.077 C 
ATOM      5  C   UNL     1       5.577  -2.945   1.379  0.00  0.00    -0.023 C 
ATOM      6  N   UNL     1       6.806  -2.310   1.919  0.00  0.00    +0.396 N 
ATOM      7  C   UNL     1       6.739  -0.910   1.430  0.00  0.00    +0.052 C 
ATOM      8  C   UNL     1       6.204  -1.024  -0.013  0.00  0.00    +0.086 C 
ATOM      9  C   UNL     1       5.116   0.004  -0.228  0.00  0.00    +0.229 C 
ATOM     10  O   UNL     1       5.285   1.203  -0.276  0.00  0.00    -0.275 OA
ATOM     11  H   UNL     1       6.794  -2.364   3.018  0.00  0.00    -0.083 HD
ATOM     12  H   UNL     1       7.691  -2.839   1.536  0.00  0.00    -0.083 HD
ENDROOT
BRANCH   1  18
ATOM     13  C   UNL     1       0.463   2.437   1.318  0.00  0.00    +0.044 C 
ATOM     14  C   UNL     1       1.030   1.561   0.231  0.00  0.00    -0.048 A 
ATOM     15  C   UNL     1       0.364   1.440  -0.975  0.00  0.00    +0.006 A 
ATOM     16  C   UNL     1       0.881   0.637  -1.976  0.00  0.00    -0.048 A 
ATOM     17  C   UNL     1       2.064  -0.046  -1.773  0.00  0.00    +0.027 A 
ATOM     18  C   UNL     1       2.735   0.075  -0.563  0.00  0.00    +0.044 A 
ATOM     19  C   UNL     1       2.214   0.881   0.439  0.00  0.00    +0.027 A 
ATOM     20  C   UNL     1       0.152   0.507  -3.288  0.00  0.00    +0.044 C 
ENDBRANCH   1  18
BRANCH   5  21
ATOM     21  C   UNL     1       5.737  -4.443   1.330  0.00  0.00    -0.019 A 
ATOM     22  C   UNL     1       4.689  -5.263   1.699  0.00  0.00    +0.005 A 
ATOM     23  C   UNL     1       4.834  -6.637   1.649  0.00  0.00    +0.000 A 
ATOM     24  C   UNL     1       6.032  -7.194   1.240  0.00  0.00    +0.004 A 
ATOM     25  C   UNL     1       7.085  -6.378   0.875  0.00  0.00    +0.045 A 
ATOM     26  C   UNL     1       6.940  -4.999   0.919  0.00  0.00    +0.118 A 
BRANCH  26  27
ATOM     27  O   UNL     1       7.975  -4.194   0.561  0.00  0.00    -0.507 OA
ATOM     28  H   UNL     1       8.928  -4.636   0.235  0.00  0.00    +0.292 HD
ENDBRANCH  26  27
ENDBRANCH   5  21
BRANCH   7  29
ATOM     29  C   UNL     1       8.109  -0.283   1.433  0.00  0.00    +0.347 C 
ATOM     30  O   UNL     1       8.445   0.440   0.525  0.00  0.00    -0.248 OA
ATOM     31  O   UNL     1       8.957  -0.529   2.445  0.00  0.00    -0.248 OA
ENDBRANCH   7  29
BRANCH   7  32
ATOM     32  C   UNL     1       5.777  -0.090   2.291  0.00  0.00    +0.037 C 
BRANCH  32  33
ATOM     33  C   UNL     1       6.318   0.009   3.694  0.00  0.00    -0.023 A 
ATOM     34  C   UNL     1       6.004  -0.786   4.729  0.00  0.00    +0.087 A 
ATOM     35  N   UNL     1       6.694  -0.394   5.844  0.00  0.00    -0.360 N 
ATOM     36  H   UNL     1       6.559  -0.935   6.792  0.00  0.00    +0.165 HD
ATOM     37  C   UNL     1       7.488   0.691   5.547  0.00  0.00    +0.047 A 
ATOM     38  C   UNL     1       7.293   0.987   4.185  0.00  0.00    +0.003 A 
ATOM     39  C   UNL     1       7.973   2.056   3.600  0.00  0.00    +0.010 A 
ATOM     40  C   UNL     1       8.836   2.803   4.352  0.00  0.00    +0.001 A 
ATOM     41  C   UNL     1       9.037   2.511   5.694  0.00  0.00    +0.002 A 
ATOM     42  C   UNL     1       8.371   1.464   6.292  0.00  0.00    +0.026 A 
ENDBRANCH  32  33
ENDBRANCH   7  32
TORSDOF 6
