REMARK  Name = ZINC23186197
REMARK  13 active torsions:
REMARK  status: ('A' for Active; 'I' for Inactive)
REMARK    1  A    between atoms: C_1  and  C_2
REMARK    2  A    between atoms: C_2  and  C_3
REMARK    3  A    between atoms: C_2  and  C_4
REMARK    4  A    between atoms: C_4  and  C_6
REMARK    5  A    between atoms: C_4  and  N_16
REMARK    6  A    between atoms: C_17  and  C_19
REMARK    7  A    between atoms: C_19  and  N_20
REMARK    8  A    between atoms: N_20  and  C_21
REMARK    9  A    between atoms: N_20  and  C_32
REMARK   10  A    between atoms: C_21  and  C_22
REMARK   11  A    between atoms: C_25  and  C_28
REMARK   12  A    between atoms: N_30  and  C_31
REMARK   13  A    between atoms: C_32  and  C_33
REMARK                            x       y       z     vdW  Elec       q    Type
REMARK                         _______ _______ _______ _____ _____    ______ ____
ROOT
ATOM      1  N   UNL     1      -7.566  -1.159  -2.895  0.00  0.00    +0.393 N 
ATOM      2  H   UNL     1      -6.967  -2.030  -3.200  0.00  0.00    -0.080 HD
ENDROOT
BRANCH   1   3
ATOM      3  C   UNL     1      -6.652  -0.162  -2.321  0.00  0.00    +0.020 C 
BRANCH   3   5
ATOM      4  N   UNL     1      -4.640  -0.145  -0.883  0.00  0.00    -0.310 N 
ATOM      5  C   UNL     1      -5.641  -0.853  -1.444  0.00  0.00    +0.197 C 
ATOM      6  O   UNL     1      -5.727  -2.046  -1.242  0.00  0.00    -0.278 OA
ATOM      7  H   UNL     1      -4.561   0.936  -1.066  0.00  0.00    +0.149 HD
BRANCH   4   8
ATOM      8  C   UNL     1      -3.656  -0.817  -0.030  0.00  0.00    +0.106 C 
BRANCH   8   9
ATOM      9  C   UNL     1      -2.370  -0.033  -0.033  0.00  0.00    -0.023 A 
ATOM     10  C   UNL     1      -2.404   1.349   0.005  0.00  0.00    +0.009 A 
ATOM     11  C   UNL     1      -1.226   2.072  -0.003  0.00  0.00    +0.050 A 
ATOM     12  C   UNL     1      -0.006   1.413  -0.039  0.00  0.00    +0.162 A 
ATOM     13  C   UNL     1       0.028   0.025  -0.074  0.00  0.00    +0.162 A 
ATOM     14  C   UNL     1      -1.158  -0.695  -0.071  0.00  0.00    +0.055 A 
ATOM     15  O   UNL     1       1.214  -0.642  -0.110  0.00  0.00    -0.485 OA
ATOM     16  C   UNL     1       2.367   0.117  -0.490  0.00  0.00    +0.270 C 
ATOM     17  C   UNL     1       2.349   1.440   0.288  0.00  0.00    +0.270 C 
ATOM     18  O   UNL     1       1.145   2.139  -0.047  0.00  0.00    -0.485 OA
ENDBRANCH   8   9
BRANCH   8  20
ATOM     19  C   UNL     1      -3.170  -1.608   2.290  0.00  0.00    +0.009 C 
ATOM     20  C   UNL     1      -4.197  -0.906   1.399  0.00  0.00    +0.008 C 
ATOM     21  C   UNL     1      -4.458   0.503   1.933  0.00  0.00    +0.009 C 
ENDBRANCH   8  20
ENDBRANCH   4   8
ENDBRANCH   3   5
ENDBRANCH   1   3
BRANCH   1  22
ATOM     22  C   UNL     1      -8.544  -1.611  -1.897  0.00  0.00    -0.042 C 
BRANCH  22  23
ATOM     23  C   UNL     1      -9.300  -2.799  -2.436  0.00  0.00    -0.064 A 
ATOM     24  C   UNL     1     -10.469  -2.605  -3.149  0.00  0.00    +0.002 A 
ATOM     25  C   UNL     1     -11.163  -3.687  -3.650  0.00  0.00    +0.013 A 
ATOM     26  C   UNL     1     -10.688  -4.980  -3.426  0.00  0.00    +0.037 A 
ATOM     27  C   UNL     1      -9.511  -5.169  -2.701  0.00  0.00    +0.013 A 
ATOM     28  C   UNL     1      -8.824  -4.078  -2.211  0.00  0.00    +0.002 A 
BRANCH  26  29
ATOM     29  C   UNL     1     -11.430  -6.145  -3.955  0.00  0.00    +0.244 C 
ATOM     30  O   UNL     1     -11.014  -7.270  -3.759  0.00  0.00    -0.270 OA
ATOM     31  N   UNL     1     -12.566  -5.959  -4.655  0.00  0.00    -0.314 N 
ATOM     32  C   UNL     1     -13.301  -7.113  -5.179  0.00  0.00    +0.128 C 
ATOM     33  H   UNL     1     -12.943  -4.941  -4.832  0.00  0.00    +0.149 HD
ENDBRANCH  26  29
ENDBRANCH  22  23
ENDBRANCH   1  22
BRANCH   1  34
ATOM     34  C   UNL     1      -8.238  -0.632  -4.090  0.00  0.00    -0.002 C 
BRANCH  34  35
ATOM     35  C   UNL     1      -7.269  -0.616  -5.244  0.00  0.00    +0.089 A 
ATOM     36  C   UNL     1      -7.001  -1.650  -6.061  0.00  0.00    +0.042 A 
ATOM     37  C   UNL     1      -6.042  -1.197  -6.995  0.00  0.00    +0.041 A 
ATOM     38  C   UNL     1      -5.781   0.088  -6.694  0.00  0.00    +0.195 A 
ATOM     39  O   UNL     1      -6.531   0.436  -5.636  0.00  0.00    -0.470 OA
ENDBRANCH  34  35
ENDBRANCH   1  34
TORSDOF 10
