REMARK  Name = ZINC04786516
REMARK  2 active torsions:
REMARK  status: ('A' for Active; 'I' for Inactive)
REMARK    1  A    between atoms: C_1  and  C_2
REMARK    2  A    between atoms: C_4  and  O_30
REMARK                            x       y       z     vdW  Elec       q    Type
REMARK                         _______ _______ _______ _____ _____    ______ ____
ROOT
ATOM      1  C   UNL     1       5.620  -1.693  -0.422  0.00  0.00    +0.009 C 
ATOM      2  C   UNL     1       4.599  -0.579  -0.179  0.00  0.00    +0.005 C 
ATOM      3  C   UNL     1       3.589  -1.030   0.883  0.00  0.00    +0.115 C 
ATOM      4  C   UNL     1       2.239  -0.373   0.576  0.00  0.00    +0.020 C 
ATOM      5  C   UNL     1       2.486   1.039   0.030  0.00  0.00    -0.034 C 
ATOM      6  C   UNL     1       1.178   1.784   0.000  0.00  0.00    -0.020 A 
ATOM      7  C   UNL     1      -0.013   1.076   0.008  0.00  0.00    +0.005 A 
ATOM      8  C   UNL     1      -1.219   1.750   0.017  0.00  0.00    +0.000 A 
ATOM      9  C   UNL     1      -1.242   3.132   0.025  0.00  0.00    +0.004 A 
ATOM     10  C   UNL     1      -0.059   3.843   0.006  0.00  0.00    +0.046 A 
ATOM     11  C   UNL     1       1.156   3.169  -0.007  0.00  0.00    +0.122 A 
ATOM     12  O   UNL     1       2.317   3.875  -0.028  0.00  0.00    -0.489 OA
ATOM     13  C   UNL     1       2.235   5.238  -0.456  0.00  0.00    +0.257 C 
ATOM     14  C   UNL     1       3.384   5.525  -1.428  0.00  0.00    +0.201 C 
ATOM     15  O   UNL     1       4.121   4.321  -1.643  0.00  0.00    -0.373 OA
ATOM     16  C   UNL     1       5.373   4.509  -2.304  0.00  0.00    +0.201 C 
ATOM     17  C   UNL     1       6.202   3.228  -2.178  0.00  0.00    +0.257 C 
ATOM     18  O   UNL     1       5.326   2.111  -1.991  0.00  0.00    -0.489 OA
ATOM     19  C   UNL     1       5.541   1.036  -2.796  0.00  0.00    +0.122 A 
ATOM     20  C   UNL     1       6.481   1.120  -3.813  0.00  0.00    +0.046 A 
ATOM     21  C   UNL     1       6.708   0.038  -4.640  0.00  0.00    +0.004 A 
ATOM     22  C   UNL     1       5.996  -1.133  -4.455  0.00  0.00    +0.000 A 
ATOM     23  C   UNL     1       5.061  -1.222  -3.442  0.00  0.00    +0.005 A 
ATOM     24  C   UNL     1       4.836  -0.143  -2.604  0.00  0.00    -0.019 A 
ATOM     25  C   UNL     1       3.845  -0.280  -1.478  0.00  0.00    -0.031 C 
ATOM     26  N   UNL     1       3.057   0.957  -1.326  0.00  0.00    +0.389 N 
ATOM     27  H   UNL     1       3.666   1.768  -1.486  0.00  0.00    -0.084 HD
ATOM     28  H   UNL     1       2.296   0.960  -2.014  0.00  0.00    -0.084 HD
ENDROOT
BRANCH   3  29
ATOM     29  O   UNL     1       4.038  -0.625   2.177  0.00  0.00    -0.392 OA
ATOM     30  H   UNL     1       3.444  -0.879   2.897  0.00  0.00    +0.210 HD
ENDBRANCH   3  29
TORSDOF 1
