REMARK  Name = ZINC45202725
REMARK  6 active torsions:
REMARK  status: ('A' for Active; 'I' for Inactive)
REMARK    1  A    between atoms: C_3  and  C_8
REMARK    2  A    between atoms: C_11  and  C_14
REMARK    3  A    between atoms: C_14  and  N_15
REMARK    4  A    between atoms: N_15  and  C_16
REMARK    5  A    between atoms: N_19  and  C_22
REMARK    6  A    between atoms: C_22  and  C_23
REMARK                            x       y       z     vdW  Elec       q    Type
REMARK                         _______ _______ _______ _____ _____    ______ ____
ROOT
ATOM      1  C   UNL     1       8.786   5.797  -1.441  0.00  0.00    +0.050 C 
ATOM      2  C   UNL     1       9.948   4.809  -1.303  0.00  0.00    -0.000 C 
ATOM      3  C   UNL     1      11.271   5.561  -1.465  0.00  0.00    -0.077 C 
ATOM      4  N   UNL     1      11.320   6.194  -2.788  0.00  0.00    +0.380 N 
ATOM      5  C   UNL     1      10.252   7.194  -2.901  0.00  0.00    -0.077 C 
ATOM      6  C   UNL     1       8.890   6.506  -2.795  0.00  0.00    -0.000 C 
ATOM      7  H   UNL     1      11.198   5.491  -3.501  0.00  0.00    -0.082 HD
ENDROOT
BRANCH   1   8
ATOM      8  N   UNL     1       7.512   5.071  -1.363  0.00  0.00    -0.309 NA
ATOM      9  H   UNL     1       7.571   4.184  -1.842  0.00  0.00    +0.123 HD
BRANCH   8  10
ATOM     10  C   UNL     1       7.095   4.887   0.034  0.00  0.00    +0.118 C 
BRANCH  10  14
ATOM     11  C   UNL     1       3.382   2.863   0.143  0.00  0.00    +0.071 A 
ATOM     12  C   UNL     1       4.552   2.105   0.168  0.00  0.00    +0.029 A 
ATOM     13  C   UNL     1       5.774   2.753   0.133  0.00  0.00    +0.008 A 
ATOM     14  C   UNL     1       5.787   4.140   0.073  0.00  0.00    -0.015 A 
ATOM     15  C   UNL     1       4.589   4.829   0.051  0.00  0.00    +0.116 A 
ATOM     16  N   UNL     1       3.438   4.187   0.081  0.00  0.00    -0.255 NA
BRANCH  11  19
ATOM     17  C   UNL     1      -0.334   2.296   0.184  0.00  0.00    +0.002 A 
ATOM     18  C   UNL     1       0.890   2.933   0.150  0.00  0.00    +0.010 A 
ATOM     19  C   UNL     1       2.064   2.183   0.180  0.00  0.00    +0.002 A 
ATOM     20  C   UNL     1       1.996   0.793   0.246  0.00  0.00    +0.030 A 
ATOM     21  C   UNL     1       0.766   0.166   0.280  0.00  0.00    +0.042 A 
ATOM     22  C   UNL     1      -0.397   0.916   0.249  0.00  0.00    +0.020 A 
ATOM     23 CL   UNL     1       0.678  -1.566   0.361  0.00  0.00    -0.084 Cl
ENDBRANCH  11  19
ENDBRANCH  10  14
ENDBRANCH   8  10
ENDBRANCH   1   8
BRANCH   4  24
ATOM     24  C   UNL     1      12.623   6.848  -2.968  0.00  0.00    -0.069 C 
BRANCH  24  25
ATOM     25  C   UNL     1      12.736   7.375  -4.400  0.00  0.00    +0.027 C 
ATOM     26  C   UNL     1      12.836   6.203  -5.399  0.00  0.00    +0.132 C 
ATOM     27  N   UNL     1      14.136   6.367  -6.066  0.00  0.00    -0.307 N 
ATOM     28  C   UNL     1      14.771   5.658  -7.023  0.00  0.00    +0.252 A 
ATOM     29  O   UNL     1      14.234   4.667  -7.487  0.00  0.00    -0.268 OA
ATOM     30  C   UNL     1      16.044   6.042  -7.498  0.00  0.00    +0.071 A 
ATOM     31  C   UNL     1      16.683   7.139  -7.012  0.00  0.00    +0.015 A 
ATOM     32  C   UNL     1      16.005   7.915  -5.973  0.00  0.00    -0.001 A 
ATOM     33  C   UNL     1      14.745   7.475  -5.552  0.00  0.00    +0.058 A 
ATOM     34  C   UNL     1      14.025   8.139  -4.581  0.00  0.00    +0.015 A 
ATOM     35  C   UNL     1      14.570   9.271  -4.011  0.00  0.00    +0.129 A 
ATOM     36  C   UNL     1      15.824   9.723  -4.419  0.00  0.00    +0.039 A 
ATOM     37  C   UNL     1      16.546   9.062  -5.386  0.00  0.00    +0.013 A 
ATOM     38  F   UNL     1      13.888   9.942  -3.056  0.00  0.00    -0.205 F 
ENDBRANCH  24  25
ENDBRANCH   4  24
TORSDOF 6
