REMARK  Name = ZINC08922967
REMARK  7 active torsions:
REMARK  status: ('A' for Active; 'I' for Inactive)
REMARK    1  A    between atoms: C_1  and  C_2
REMARK    2  A    between atoms: C_2  and  C_3
REMARK    3  A    between atoms: C_3  and  C_25
REMARK    4  A    between atoms: N_6  and  N_10
REMARK    5  A    between atoms: C_11  and  C_13
REMARK    6  A    between atoms: C_13  and  S_14
REMARK    7  A    between atoms: S_14  and  C_15
REMARK                            x       y       z     vdW  Elec       q    Type
REMARK                         _______ _______ _______ _____ _____    ______ ____
ROOT
ATOM      1  C   UNL     1      -2.159   1.824   5.519  0.00  0.00    +0.139 C 
ATOM      2  C   UNL     1      -1.666   0.920   4.406  0.00  0.00    +0.268 C 
ATOM      3  O   UNL     1      -1.911  -0.258   4.257  0.00  0.00    -0.271 OA
ATOM      4  N   UNL     1      -0.897   1.698   3.618  0.00  0.00    -0.137 N 
ATOM      5  C   UNL     1      -0.834   2.953   4.076  0.00  0.00    +0.327 C 
ATOM      6  O   UNL     1      -0.198   3.837   3.537  0.00  0.00    -0.251 OA
ATOM      7  N   UNL     1      -1.555   3.129   5.198  0.00  0.00    -0.280 N 
ATOM      8  H   UNL     1      -1.655   3.953   5.700  0.00  0.00    +0.152 HD
ENDROOT
BRANCH   1   9
ATOM      9  C   UNL     1      -1.678   1.328   6.858  0.00  0.00    -0.015 A 
ATOM     10  C   UNL     1      -2.454   0.447   7.588  0.00  0.00    +0.006 A 
ATOM     11  C   UNL     1      -2.010  -0.012   8.814  0.00  0.00    +0.000 A 
ATOM     12  C   UNL     1      -0.796   0.419   9.315  0.00  0.00    +0.000 A 
ATOM     13  C   UNL     1      -0.023   1.304   8.588  0.00  0.00    +0.000 A 
ATOM     14  C   UNL     1      -0.464   1.759   7.359  0.00  0.00    +0.006 A 
ENDBRANCH   1   9
BRANCH   4  15
ATOM     15  N   UNL     1      -0.242   1.246   2.466  0.00  0.00    -0.223 N 
ATOM     16  C   UNL     1      -0.718   1.572   1.248  0.00  0.00    +0.240 C 
ATOM     17  O   UNL     1      -1.714   2.256   1.150  0.00  0.00    -0.273 OA
ATOM     18  H   UNL     1       0.555   0.699   2.544  0.00  0.00    +0.174 HD
BRANCH  16  19
ATOM     19  C   UNL     1      -0.013   1.086   0.008  0.00  0.00    +0.174 C 
BRANCH  19  20
ATOM     20  S   UNL     1      -0.888   1.685  -1.458  0.00  0.00    -0.077 S 
BRANCH  20  21
ATOM     21  C   UNL     1       0.122   0.990  -2.724  0.00  0.00    +0.192 A 
ATOM     22  N   UNL     1       1.200   0.257  -2.551  0.00  0.00    -0.122 NA
ATOM     23  N   UNL     1       1.681  -0.089  -3.694  0.00  0.00    -0.134 NA
ATOM     24  C   UNL     1       0.950   0.402  -4.650  0.00  0.00    +0.134 A 
ATOM     25  N   UNL     1      -0.060   1.113  -4.067  0.00  0.00    -0.306 N 
ATOM     26  C   UNL     1      -1.110   1.861  -4.758  0.00  0.00    +0.125 C 
ATOM     27  C   UNL     1      -1.372   1.220  -6.124  0.00  0.00    +0.022 C 
ATOM     28  C   UNL     1      -0.450   1.843  -7.171  0.00  0.00    +0.002 C 
ATOM     29  C   UNL     1       1.012   1.589  -6.820  0.00  0.00    +0.008 C 
ATOM     30  C   UNL     1       1.149   0.226  -6.133  0.00  0.00    +0.076 C 
ENDBRANCH  20  21
ENDBRANCH  19  20
ENDBRANCH  16  19
ENDBRANCH   4  15
BRANCH   1  32
ATOM     31  C   UNL     1      -4.145   2.474   4.148  0.00  0.00    +0.007 C 
ATOM     32  C   UNL     1      -3.686   1.918   5.498  0.00  0.00    +0.037 C 
ENDBRANCH   1  32
TORSDOF 6
