REMARK  Name = ZINC03954035
REMARK  10 active torsions:
REMARK  status: ('A' for Active; 'I' for Inactive)
REMARK    1  A    between atoms: C_1  and  C_2
REMARK    2  A    between atoms: C_5  and  O_31
REMARK    3  A    between atoms: C_17  and  C_30
REMARK    4  A    between atoms: C_22  and  C_23
REMARK    5  A    between atoms: C_22  and  O_29
REMARK    6  A    between atoms: C_23  and  C_25
REMARK    7  A    between atoms: C_25  and  C_26
REMARK    8  A    between atoms: C_26  and  N_67
REMARK    9  A    between atoms: C_27  and  N_67
REMARK   10  A    between atoms: C_28  and  N_67
REMARK                            x       y       z     vdW  Elec       q    Type
REMARK                         _______ _______ _______ _____ _____    ______ ____
ROOT
ATOM      1  C   UNL     1      -1.710  -4.791   0.830  0.00  0.00    +0.016 C 
ATOM      2  C   UNL     1      -1.927  -3.334   1.246  0.00  0.00    -0.008 C 
ATOM      3  C   UNL     1      -1.870  -3.260   2.769  0.00  0.00    +0.014 C 
ATOM      4  C   UNL     1      -3.264  -3.479   3.356  0.00  0.00    +0.032 C 
ATOM      5  C   UNL     1      -4.067  -4.468   2.514  0.00  0.00    +0.119 C 
ATOM      6  C   UNL     1      -4.452  -3.812   1.180  0.00  0.00    +0.062 C 
ATOM      7  C   UNL     1      -3.294  -2.912   0.780  0.00  0.00    -0.065 C 
ATOM      8  C   UNL     1      -3.523  -1.842   0.088  0.00  0.00    -0.027 C 
ATOM      9  C   UNL     1      -2.452  -0.877  -0.326  0.00  0.00    +0.031 C 
ATOM     10  C   UNL     1      -1.240  -1.020   0.604  0.00  0.00    +0.000 C 
ATOM     11  C   UNL     1      -0.816  -2.499   0.625  0.00  0.00    +0.003 C 
ATOM     12  C   UNL     1       0.478  -2.704   1.410  0.00  0.00    +0.005 C 
ATOM     13  C   UNL     1       1.607  -1.792   0.907  0.00  0.00    +0.010 C 
ATOM     14  C   UNL     1       1.121  -0.362   1.008  0.00  0.00    +0.007 C 
ATOM     15  C   UNL     1      -0.081  -0.220   0.037  0.00  0.00    +0.002 C 
ATOM     16  C   UNL     1      -0.275   1.300   0.000  0.00  0.00    +0.008 C 
ATOM     17  C   UNL     1       1.181   1.835  -0.065  0.00  0.00    +0.043 C 
ATOM     18  C   UNL     1       2.081   0.728   0.539  0.00  0.00    +0.129 C 
ATOM     19  C   UNL     1       0.667  -0.086   2.443  0.00  0.00    +0.015 C 
ENDROOT
BRANCH  18  20
ATOM     20  C   UNL     1       2.865   1.270   1.706  0.00  0.00    +0.163 C 
ATOM     21  O   UNL     1       2.477   2.255   2.289  0.00  0.00    -0.294 OA
BRANCH  20  22
ATOM     22  C   UNL     1       4.133   0.585   2.146  0.00  0.00    +0.059 C 
BRANCH  22  23
ATOM     23  C   UNL     1       4.727   1.331   3.342  0.00  0.00    -0.072 C 
BRANCH  23  26
ATOM     24  C   UNL     1       6.687   1.478   4.756  0.00  0.00    -0.097 C 
ATOM     25  C   UNL     1       5.680  -0.677   4.302  0.00  0.00    -0.097 C 
ATOM     26  N   UNL     1       5.980   0.660   3.748  0.00  0.00    +0.376 N 
ATOM     27  H   UNL     1       6.583   0.552   2.924  0.00  0.00    -0.083 HD
ENDBRANCH  23  26
ENDBRANCH  22  23
ENDBRANCH  20  22
ENDBRANCH  18  20
BRANCH  18  28
ATOM     28  O   UNL     1       2.968   0.211  -0.455  0.00  0.00    -0.381 OA
ATOM     29  H   UNL     1       3.602   0.859  -0.791  0.00  0.00    +0.211 HD
ENDBRANCH  18  28
BRANCH   5  30
ATOM     30  O   UNL     1      -3.275  -5.631   2.261  0.00  0.00    -0.391 OA
ATOM     31  H   UNL     1      -3.756  -6.348   1.826  0.00  0.00    +0.210 HD
ENDBRANCH   5  30
TORSDOF 6
