REMARK  Name = ZINC08951613
REMARK  8 active torsions:
REMARK  status: ('A' for Active; 'I' for Inactive)
REMARK    1  A    between atoms: C_1  and  O_2
REMARK    2  A    between atoms: O_2  and  C_3
REMARK    3  A    between atoms: C_10  and  C_14
REMARK    4  A    between atoms: N_19  and  N_20
REMARK    5  A    between atoms: C_21  and  C_22
REMARK    6  A    between atoms: C_26  and  O_29
REMARK    7  A    between atoms: C_27  and  O_28
REMARK    8  A    between atoms: O_29  and  C_30
REMARK                            x       y       z     vdW  Elec       q    Type
REMARK                         _______ _______ _______ _____ _____    ______ ____
ROOT
ATOM      1  C   UNL     1       2.340  -6.054  -3.433  0.00  0.00    +0.087 A 
ATOM      2  C   UNL     1       3.197  -6.558  -4.374  0.00  0.00    +0.077 A 
ATOM      3  S   UNL     1       2.957  -8.314  -4.135  0.00  0.00    -0.059 S 
ATOM      4  C   UNL     1       1.751  -8.197  -2.820  0.00  0.00    +0.178 A 
ATOM      5  N   UNL     1       1.643  -6.888  -2.677  0.00  0.00    -0.223 NA
ATOM      6  N   UNL     1       1.106  -9.210  -2.131  0.00  0.00    -0.215 N 
ATOM      7  H   UNL     1       0.469  -8.992  -1.434  0.00  0.00    +0.176 HD
ENDROOT
BRANCH   1  15
ATOM      8  C   UNL     1       0.606  -0.607  -1.056  0.00  0.00    +0.121 A 
ATOM      9  C   UNL     1       1.174   0.167  -2.064  0.00  0.00    +0.049 A 
ATOM     10  C   UNL     1       1.788  -0.429  -3.146  0.00  0.00    +0.050 A 
ATOM     11  C   UNL     1       1.845  -1.812  -3.236  0.00  0.00    +0.139 A 
ATOM     12  C   UNL     1       1.277  -2.600  -2.218  0.00  0.00    +0.022 A 
ATOM     13  C   UNL     1       0.658  -1.986  -1.124  0.00  0.00    +0.057 A 
ATOM     14  C   UNL     1       1.349  -4.061  -2.318  0.00  0.00    +0.028 A 
ATOM     15  C   UNL     1       2.199  -4.590  -3.259  0.00  0.00    +0.086 A 
ATOM     16  C   UNL     1       2.964  -3.641  -4.087  0.00  0.00    +0.347 A 
ATOM     17  O   UNL     1       4.036  -3.956  -4.571  0.00  0.00    -0.244 OA
ATOM     18  O   UNL     1       2.442  -2.412  -4.295  0.00  0.00    -0.422 OA
BRANCH   8  20
ATOM     19  C   UNL     1      -0.017   1.425   0.010  0.00  0.00    +0.277 C 
ATOM     20  O   UNL     1       0.002  -0.004   0.002  0.00  0.00    -0.495 OA
ENDBRANCH   8  20
ENDBRANCH   1  15
BRANCH   6  21
ATOM     21  N   UNL     1       1.375 -10.550  -2.442  0.00  0.00    -0.188 NA
ATOM     22  C   UNL     1       0.769 -11.500  -1.796  0.00  0.00    +0.142 C 
BRANCH  22  23
ATOM     23  C   UNL     1       1.052 -12.909  -2.123  0.00  0.00    +0.040 A 
ATOM     24  C   UNL     1       0.398 -13.934  -1.434  0.00  0.00    +0.013 A 
ATOM     25  C   UNL     1       0.665 -15.251  -1.742  0.00  0.00    +0.004 A 
ATOM     26  C   UNL     1       1.579 -15.565  -2.733  0.00  0.00    +0.049 A 
ATOM     27  C   UNL     1       2.235 -14.559  -3.425  0.00  0.00    +0.162 A 
ATOM     28  C   UNL     1       1.972 -13.227  -3.129  0.00  0.00    +0.167 A 
BRANCH  28  29
ATOM     29  O   UNL     1       2.608 -12.237  -3.810  0.00  0.00    -0.503 OA
ATOM     30  H   UNL     1       3.443 -11.959  -3.409  0.00  0.00    +0.292 HD
ENDBRANCH  28  29
BRANCH  27  31
ATOM     31  O   UNL     1       3.132 -14.875  -4.397  0.00  0.00    -0.491 OA
ATOM     32  C   UNL     1       3.349 -16.264  -4.653  0.00  0.00    +0.277 C 
ENDBRANCH  27  31
ENDBRANCH  22  23
ENDBRANCH   6  21
TORSDOF 6
