REMARK  Name = ZINC38502150
REMARK  11 active torsions:
REMARK  status: ('A' for Active; 'I' for Inactive)
REMARK    1  A    between atoms: C_1  and  C_2
REMARK    2  A    between atoms: C_2  and  C_3
REMARK    3  A    between atoms: C_2  and  N_4
REMARK    4  A    between atoms: C_5  and  C_9
REMARK    5  A    between atoms: C_9  and  N_11
REMARK    6  A    between atoms: N_13  and  C_25
REMARK    7  A    between atoms: C_17  and  S_21
REMARK    8  A    between atoms: S_21  and  N_24
REMARK    9  A    between atoms: C_25  and  C_26
REMARK   10  A    between atoms: C_26  and  O_27
REMARK   11  A    between atoms: O_27  and  C_28
REMARK                            x       y       z     vdW  Elec       q    Type
REMARK                         _______ _______ _______ _____ _____    ______ ____
ROOT
ATOM      1  N   UNL     1      -2.246  -1.218   1.459  0.00  0.00    -0.151 NA
ATOM      2  C   UNL     1      -3.348  -1.951   1.343  0.00  0.00    +0.167 A 
ATOM      3  N   UNL     1      -3.817  -2.925   2.173  0.00  0.00    -0.319 N 
ATOM      4  C   UNL     1      -4.998  -3.582   1.879  0.00  0.00    +0.058 A 
ATOM      5  C   UNL     1      -5.617  -4.603   2.622  0.00  0.00    +0.029 A 
ATOM      6  C   UNL     1      -6.798  -5.165   2.200  0.00  0.00    +0.030 A 
ATOM      7  C   UNL     1      -7.417  -4.747   1.034  0.00  0.00    +0.106 A 
ATOM      8  C   UNL     1      -6.830  -3.744   0.282  0.00  0.00    +0.045 A 
ATOM      9  C   UNL     1      -5.649  -3.181   0.704  0.00  0.00    +0.041 A 
ATOM     10  S   UNL     1      -4.593  -1.903   0.065  0.00  0.00    -0.052 S 
ENDROOT
BRANCH   7  11
ATOM     11  S   UNL     1      -8.930  -5.484   0.513  0.00  0.00    +0.056 S 
ATOM     12  O   UNL     1      -9.014  -5.290  -0.893  0.00  0.00    -0.153 OA
ATOM     13  O   UNL     1      -8.980  -6.773   1.108  0.00  0.00    -0.153 OA
BRANCH  11  14
ATOM     14  N   UNL     1     -10.160  -4.603   1.186  0.00  0.00    -0.204 NA
ATOM     15  H   UNL     1      -9.959  -3.839   1.748  0.00  0.00    +0.144 HD
ATOM     16  H   UNL     1     -11.083  -4.851   1.017  0.00  0.00    +0.144 HD
ENDBRANCH  11  14
ENDBRANCH   7  11
BRANCH   1  17
ATOM     17  C   UNL     1      -1.343  -1.512   2.403  0.00  0.00    +0.287 C 
ATOM     18  O   UNL     1      -1.346  -0.903   3.459  0.00  0.00    -0.266 OA
BRANCH  17  20
ATOM     19  N   UNL     1      -0.223  -3.333   1.037  0.00  0.00    -0.257 N 
ATOM     20  C   UNL     1      -0.346  -2.573   2.165  0.00  0.00    +0.126 A 
ATOM     21  C   UNL     1       0.639  -2.982   3.039  0.00  0.00    +0.054 A 
ATOM     22  C   UNL     1       1.357  -4.002   2.419  0.00  0.00    +0.135 A 
ATOM     23  N   UNL     1       0.845  -4.218   1.234  0.00  0.00    -0.179 NA
BRANCH  19  25
ATOM     24  C   UNL     1      -0.190  -2.905  -1.370  0.00  0.00    +0.032 C 
ATOM     25  C   UNL     1      -1.062  -3.244  -0.160  0.00  0.00    +0.102 C 
ATOM     26  C   UNL     1      -1.760  -4.586  -0.395  0.00  0.00    +0.032 C 
ENDBRANCH  19  25
ENDBRANCH  17  20
ENDBRANCH   1  17
BRANCH   3  27
ATOM     27  C   UNL     1      -3.067  -3.277   3.381  0.00  0.00    +0.152 C 
BRANCH  27  28
ATOM     28  C   UNL     1      -3.446  -2.321   4.514  0.00  0.00    +0.181 C 
BRANCH  28  29
ATOM     29  O   UNL     1      -4.821  -2.507   4.854  0.00  0.00    -0.381 OA
ATOM     30  C   UNL     1      -5.279  -1.657   5.908  0.00  0.00    +0.194 C 
ENDBRANCH  28  29
ENDBRANCH  27  28
ENDBRANCH   3  27
TORSDOF 8
