REMARK  Name = ZINC40923389
REMARK  9 active torsions:
REMARK  status: ('A' for Active; 'I' for Inactive)
REMARK    1  A    between atoms: C_1  and  C_2
REMARK    2  A    between atoms: C_7  and  C_8
REMARK    3  A    between atoms: C_8  and  O_9
REMARK    4  A    between atoms: O_9  and  C_10
REMARK    5  A    between atoms: C_15  and  C_16
REMARK    6  A    between atoms: C_18  and  C_27
REMARK    7  A    between atoms: C_19  and  C_26
REMARK    8  A    between atoms: C_27  and  O_29
REMARK    9  A    between atoms: O_29  and  C_30
REMARK                            x       y       z     vdW  Elec       q    Type
REMARK                         _______ _______ _______ _____ _____    ______ ____
ROOT
ATOM      1  C   UNL     1      -0.149  -0.264   5.040  0.00  0.00    +0.127 A 
ATOM      2  C   UNL     1      -0.345   1.083   5.310  0.00  0.00    +0.046 A 
ATOM      3  C   UNL     1      -0.497   1.510   6.614  0.00  0.00    +0.004 A 
ATOM      4  C   UNL     1      -0.455   0.596   7.652  0.00  0.00    +0.001 A 
ATOM      5  C   UNL     1      -0.260  -0.747   7.386  0.00  0.00    +0.009 A 
ATOM      6  C   UNL     1      -0.113  -1.179   6.082  0.00  0.00    +0.023 A 
ENDROOT
BRANCH   6   7
ATOM      7  C   UNL     1       0.094  -2.644   5.792  0.00  0.00    +0.184 C 
ATOM      8  C   UNL     1       1.344  -3.121   6.483  0.00  0.00    +0.082 C 
ATOM      9  C   UNL     1       1.326  -3.925   7.558  0.00  0.00    +0.020 C 
ATOM     10  N   UNL     1       0.157  -4.386   8.108  0.00  0.00    -0.286 N 
ATOM     11  C   UNL     1      -1.007  -4.212   7.373  0.00  0.00    +0.240 A 
ATOM     12  N   UNL     1      -1.050  -3.403   6.282  0.00  0.00    -0.201 N 
ATOM     13  N   UNL     1      -2.358  -3.484   5.808  0.00  0.00    -0.042 NA
ATOM     14  N   UNL     1      -2.988  -4.289   6.601  0.00  0.00    -0.021 NA
ATOM     15  N   UNL     1      -2.197  -4.719   7.525  0.00  0.00    -0.092 NA
ATOM     16  C   UNL     1       2.635  -4.335   8.181  0.00  0.00    +0.061 C 
ATOM     17  H   UNL     1       0.144  -4.817   8.977  0.00  0.00    +0.155 HD
BRANCH   8  18
ATOM     18  C   UNL     1       2.595  -2.704   5.975  0.00  0.00    +0.339 C 
ATOM     19  O   UNL     1       3.026  -3.189   4.946  0.00  0.00    -0.245 OA
BRANCH  18  20
ATOM     20  O   UNL     1       3.311  -1.767   6.632  0.00  0.00    -0.465 OA
ATOM     21  C   UNL     1       4.567  -1.393   6.061  0.00  0.00    +0.280 C 
ENDBRANCH  18  20
ENDBRANCH   8  18
ENDBRANCH   6   7
BRANCH   1  22
ATOM     22  O   UNL     1       0.001  -0.686   3.757  0.00  0.00    -0.487 OA
BRANCH  22  23
ATOM     23  C   UNL     1      -0.048   0.312   2.736  0.00  0.00    +0.264 C 
BRANCH  23  30
ATOM     24  C   UNL     1      -0.070   1.923   0.338  0.00  0.00    +0.044 C 
ATOM     25  C   UNL     1       0.125   0.432   0.242  0.00  0.00    -0.044 A 
ATOM     26  C   UNL     1       0.299  -0.164  -0.994  0.00  0.00    +0.004 A 
ATOM     27  C   UNL     1       0.478  -1.532  -1.082  0.00  0.00    +0.000 A 
ATOM     28  C   UNL     1       0.483  -2.304   0.065  0.00  0.00    +0.000 A 
ATOM     29  C   UNL     1       0.310  -1.708   1.300  0.00  0.00    +0.007 A 
ATOM     30  C   UNL     1       0.136  -0.339   1.389  0.00  0.00    -0.007 A 
ENDBRANCH  23  30
ENDBRANCH  22  23
ENDBRANCH   1  22
TORSDOF 6
