REMARK  Name = ZINC38681161
REMARK  16 active torsions:
REMARK  status: ('A' for Active; 'I' for Inactive)
REMARK    1  A    between atoms: C_1  and  C_2
REMARK    2  A    between atoms: C_2  and  C_3
REMARK    3  A    between atoms: C_2  and  C_4
REMARK    4  A    between atoms: C_7  and  O_10
REMARK    5  A    between atoms: O_10  and  C_11
REMARK    6  A    between atoms: C_11  and  C_12
REMARK    7  A    between atoms: C_12  and  O_14
REMARK    8  A    between atoms: O_14  and  C_15
REMARK    9  A    between atoms: C_22  and  N_40
REMARK   10  A    between atoms: C_23  and  C_38
REMARK   11  A    between atoms: C_24  and  C_26
REMARK   12  A    between atoms: C_29  and  O_34
REMARK   13  A    between atoms: C_30  and  O_32
REMARK   14  A    between atoms: O_32  and  C_33
REMARK   15  A    between atoms: O_34  and  C_35
REMARK   16  A    between atoms: C_35  and  C_36
REMARK                            x       y       z     vdW  Elec       q    Type
REMARK                         _______ _______ _______ _____ _____    ______ ____
ROOT
ATOM      1  C   UNL     1       3.167  -4.312   8.628  0.00  0.00    +0.135 A 
ATOM      2  C   UNL     1       4.472  -3.856   8.753  0.00  0.00    +0.047 A 
ATOM      3  C   UNL     1       5.252  -4.277   9.812  0.00  0.00    +0.012 A 
ATOM      4  C   UNL     1       4.738  -5.155  10.750  0.00  0.00    +0.008 A 
ATOM      5  C   UNL     1       3.435  -5.614  10.630  0.00  0.00    +0.138 A 
ATOM      6  C   UNL     1       2.648  -5.186   9.569  0.00  0.00    +0.093 A 
ATOM      7  O   UNL     1       2.914  -6.474  11.539  0.00  0.00    -0.441 OA
ATOM      8  C   UNL     1       3.731  -7.187  12.332  0.00  0.00    +0.199 C 
ATOM      9  C   UNL     1       5.019  -6.827  12.543  0.00  0.00    +0.098 C 
ATOM     10  C   UNL     1       5.604  -5.603  11.897  0.00  0.00    +0.098 C 
ENDROOT
BRANCH  10  11
ATOM     11  C   UNL     1       5.695  -4.496  12.916  0.00  0.00    -0.031 A 
ATOM     12  C   UNL     1       4.548  -4.028  13.530  0.00  0.00    +0.008 A 
ATOM     13  C   UNL     1       4.627  -3.013  14.465  0.00  0.00    +0.050 A 
ATOM     14  C   UNL     1       5.857  -2.463  14.790  0.00  0.00    +0.162 A 
ATOM     15  C   UNL     1       7.011  -2.935  14.172  0.00  0.00    +0.162 A 
ATOM     16  C   UNL     1       6.926  -3.956  13.239  0.00  0.00    +0.054 A 
BRANCH  15  17
ATOM     17  O   UNL     1       8.220  -2.399  14.488  0.00  0.00    -0.491 OA
ATOM     18  C   UNL     1       9.362  -2.933  13.815  0.00  0.00    +0.277 C 
ENDBRANCH  15  17
BRANCH  14  19
ATOM     19  O   UNL     1       5.935  -1.464  15.709  0.00  0.00    -0.484 OA
BRANCH  19  20
ATOM     20  C   UNL     1       4.710  -1.030  16.301  0.00  0.00    +0.256 C 
BRANCH  20  21
ATOM     21  C   UNL     1       4.992   0.074  17.288  0.00  0.00    +0.006 C 
ATOM     22  C   UNL     1       4.242   1.149  17.300  0.00  0.00    +0.007 C 
ENDBRANCH  20  21
ENDBRANCH  19  20
ENDBRANCH  14  19
ENDBRANCH  10  11
BRANCH   8  23
ATOM     23  N   UNL     1       3.245  -8.314  12.947  0.00  0.00    -0.328 N 
ATOM     24  H   UNL     1       2.325  -8.585  12.806  0.00  0.00    +0.145 HD
ATOM     25  H   UNL     1       3.823  -8.840  13.522  0.00  0.00    +0.145 HD
ENDBRANCH   8  23
BRANCH   9  26
ATOM     26  C   UNL     1       5.841  -7.630  13.399  0.00  0.00    +0.101 C 
ATOM     27  N   UNL     1       6.492  -8.266  14.078  0.00  0.00    -0.191 NA
ENDBRANCH   9  26
BRANCH   1  28
ATOM     28  O   UNL     1       2.398  -3.897   7.587  0.00  0.00    -0.423 OA
BRANCH  28  29
ATOM     29  C   UNL     1       2.614  -4.453   6.383  0.00  0.00    +0.350 C 
ATOM     30  O   UNL     1       3.528  -5.228   6.231  0.00  0.00    -0.247 OA
BRANCH  29  31
ATOM     31  C   UNL     1       1.716  -4.110   5.223  0.00  0.00    +0.349 C 
BRANCH  31  32
ATOM     32  O   UNL     1       2.145  -4.822   4.061  0.00  0.00    -0.481 OA
BRANCH  32  36
ATOM     33  C   UNL     1      -0.007  -4.222   0.593  0.00  0.00    -0.045 A 
ATOM     34  C   UNL     1       1.077  -5.081   0.593  0.00  0.00    +0.007 A 
ATOM     35  C   UNL     1       1.799  -5.284   1.753  0.00  0.00    +0.046 A 
ATOM     36  C   UNL     1       1.437  -4.624   2.919  0.00  0.00    +0.121 A 
ATOM     37  C   UNL     1       0.350  -3.762   2.916  0.00  0.00    +0.046 A 
ATOM     38  C   UNL     1      -0.366  -3.559   1.752  0.00  0.00    +0.007 A 
BRANCH  33  40
ATOM     39  C   UNL     1       0.131  -3.443  -1.757  0.00  0.00    +0.012 C 
ATOM     40  C   UNL     1      -0.793  -4.003  -0.674  0.00  0.00    +0.013 C 
ATOM     41  C   UNL     1      -1.383  -5.334  -1.144  0.00  0.00    +0.012 C 
ENDBRANCH  33  40
ENDBRANCH  32  36
ENDBRANCH  31  32
ENDBRANCH  29  31
ENDBRANCH  28  29
ENDBRANCH   1  28
TORSDOF 13
