REMARK  Name = ZINC12467771
REMARK  9 active torsions:
REMARK  status: ('A' for Active; 'I' for Inactive)
REMARK    1  A    between atoms: C_9  and  O_32
REMARK    2  A    between atoms: C_10  and  C_11
REMARK    3  A    between atoms: N_12  and  N_13
REMARK    4  A    between atoms: C_14  and  C_16
REMARK    5  A    between atoms: C_16  and  S_17
REMARK    6  A    between atoms: S_17  and  C_18
REMARK    7  A    between atoms: C_21  and  S_23
REMARK    8  A    between atoms: S_23  and  C_24
REMARK    9  A    between atoms: C_24  and  C_25
REMARK                            x       y       z     vdW  Elec       q    Type
REMARK                         _______ _______ _______ _____ _____    ______ ____
ROOT
ATOM      1  N   UNL     1      -0.144   8.045   0.146  0.00  0.00    -0.206 N 
ATOM      2  C   UNL     1      -0.131   9.376   0.358  0.00  0.00    +0.242 C 
ATOM      3  O   UNL     1      -1.171   9.969   0.552  0.00  0.00    -0.273 OA
ATOM      4  H   UNL     1       0.687   7.570  -0.009  0.00  0.00    +0.177 HD
ENDROOT
BRANCH   1   6
ATOM      5  C   UNL     1      -1.365   6.051   0.050  0.00  0.00    +0.142 C 
ATOM      6  N   UNL     1      -1.359   7.347   0.150  0.00  0.00    -0.188 NA
BRANCH   5  16
ATOM      7  C   UNL     1       1.004   2.678  -3.049  0.00  0.00    +0.001 A 
ATOM      8  C   UNL     1      -0.202   3.371  -3.115  0.00  0.00    +0.001 A 
ATOM      9  C   UNL     1      -0.579   4.218  -2.115  0.00  0.00    +0.009 A 
ATOM     10  C   UNL     1       0.263   4.404  -1.012  0.00  0.00    -0.006 A 
ATOM     11  C   UNL     1       1.493   3.705  -0.944  0.00  0.00    -0.017 A 
ATOM     12  C   UNL     1       1.846   2.835  -1.991  0.00  0.00    +0.008 A 
ATOM     13  C   UNL     1       2.336   3.891   0.165  0.00  0.00    +0.012 A 
ATOM     14  C   UNL     1       1.985   4.736   1.171  0.00  0.00    +0.046 A 
ATOM     15  C   UNL     1       0.786   5.445   1.149  0.00  0.00    +0.126 A 
ATOM     16  C   UNL     1      -0.098   5.306   0.079  0.00  0.00    +0.044 A 
BRANCH  15  17
ATOM     17  O   UNL     1       0.475   6.277   2.177  0.00  0.00    -0.506 OA
ATOM     18  H   UNL     1      -0.080   5.871   2.857  0.00  0.00    +0.292 HD
ENDBRANCH  15  17
ENDBRANCH   5  16
ENDBRANCH   1   6
BRANCH   2  19
ATOM     19  C   UNL     1       1.176  10.126   0.354  0.00  0.00    +0.173 C 
BRANCH  19  20
ATOM     20  S   UNL     1       0.864  11.886   0.666  0.00  0.00    -0.088 S 
BRANCH  20  21
ATOM     21  C   UNL     1       2.467  12.616   0.631  0.00  0.00    +0.160 A 
ATOM     22  N   UNL     1       3.640  12.047   0.427  0.00  0.00    -0.134 NA
ATOM     23  N   UNL     1       4.783  12.813   0.441  0.00  0.00    -0.134 NA
ATOM     24  C   UNL     1       4.700  14.112   0.657  0.00  0.00    +0.160 A 
ATOM     25  S   UNL     1       2.938  14.325   0.853  0.00  0.00    -0.033 S 
BRANCH  24  26
ATOM     26  S   UNL     1       5.985  15.316   0.727  0.00  0.00    -0.092 S 
BRANCH  26  27
ATOM     27  C   UNL     1       7.498  14.361   0.430  0.00  0.00    +0.113 C 
BRANCH  27  28
ATOM     28  C   UNL     1       8.689  15.284   0.464  0.00  0.00    -0.019 A 
ATOM     29  C   UNL     1       9.127  15.891  -0.699  0.00  0.00    +0.006 A 
ATOM     30  C   UNL     1      10.216  16.741  -0.667  0.00  0.00    +0.000 A 
ATOM     31  C   UNL     1      10.875  16.977   0.526  0.00  0.00    +0.001 A 
ATOM     32  C   UNL     1      10.442  16.366   1.687  0.00  0.00    +0.020 A 
ATOM     33  C   UNL     1       9.348  15.519   1.657  0.00  0.00    +0.045 A 
ATOM     34 CL   UNL     1       8.804  14.751   3.116  0.00  0.00    -0.083 Cl
ENDBRANCH  27  28
ENDBRANCH  26  27
ENDBRANCH  24  26
ENDBRANCH  20  21
ENDBRANCH  19  20
ENDBRANCH   2  19
TORSDOF 9
