REMARK  Name = ZINC35705791
REMARK  13 active torsions:
REMARK  status: ('A' for Active; 'I' for Inactive)
REMARK    1  A    between atoms: C_1  and  C_2
REMARK    2  A    between atoms: C_2  and  C_3
REMARK    3  A    between atoms: C_2  and  C_4
REMARK    4  A    between atoms: C_7  and  C_10
REMARK    5  A    between atoms: C_10  and  N_11
REMARK    6  A    between atoms: N_11  and  C_12
REMARK    7  A    between atoms: N_11  and  C_24
REMARK    8  A    between atoms: C_12  and  C_13
REMARK    9  A    between atoms: C_13  and  C_14
REMARK   10  A    between atoms: C_24  and  C_25
REMARK   11  A    between atoms: C_27  and  C_30
REMARK   12  A    between atoms: N_32  and  C_33
REMARK   13  A    between atoms: C_33  and  C_34
REMARK                            x       y       z     vdW  Elec       q    Type
REMARK                         _______ _______ _______ _____ _____    ______ ____
ROOT
ATOM      1  N   UNL     1      -6.179  -1.048  -0.589  0.00  0.00    +0.388 N 
ATOM      2  H   UNL     1      -5.945  -0.908  -1.561  0.00  0.00    -0.081 HD
ENDROOT
BRANCH   1   3
ATOM      3  C   UNL     1      -5.231  -1.997   0.011  0.00  0.00    -0.042 C 
BRANCH   3   7
ATOM      4  C   UNL     1      -5.162  -5.593  -2.293  0.00  0.00    -0.045 A 
ATOM      5  C   UNL     1      -4.381  -4.516  -2.669  0.00  0.00    +0.004 A 
ATOM      6  C   UNL     1      -4.404  -3.352  -1.924  0.00  0.00    +0.002 A 
ATOM      7  C   UNL     1      -5.207  -3.265  -0.803  0.00  0.00    -0.064 A 
ATOM      8  C   UNL     1      -5.989  -4.342  -0.427  0.00  0.00    +0.002 A 
ATOM      9  C   UNL     1      -5.970  -5.504  -1.175  0.00  0.00    +0.004 A 
BRANCH   4  11
ATOM     10  C   UNL     1      -5.582  -6.559  -4.538  0.00  0.00    +0.012 C 
ATOM     11  C   UNL     1      -5.137  -6.862  -3.106  0.00  0.00    +0.013 C 
ATOM     12  C   UNL     1      -3.717  -7.430  -3.122  0.00  0.00    +0.012 C 
ENDBRANCH   4  11
ENDBRANCH   3   7
ENDBRANCH   1   3
BRANCH   1  13
ATOM     13  C   UNL     1      -6.105   0.235   0.123  0.00  0.00    -0.073 C 
BRANCH  13  14
ATOM     14  C   UNL     1      -4.729   0.864  -0.102  0.00  0.00    +0.019 C 
BRANCH  14  15
ATOM     15  C   UNL     1      -4.697   2.237   0.518  0.00  0.00    -0.024 A 
ATOM     16  C   UNL     1      -4.946   3.400  -0.104  0.00  0.00    +0.087 A 
ATOM     17  N   UNL     1      -4.822   4.438   0.779  0.00  0.00    -0.360 N 
ATOM     18  H   UNL     1      -4.954   5.374   0.562  0.00  0.00    +0.165 HD
ATOM     19  C   UNL     1      -4.482   3.955   2.023  0.00  0.00    +0.047 A 
ATOM     20  C   UNL     1      -4.395   2.555   1.916  0.00  0.00    +0.003 A 
ATOM     21  C   UNL     1      -4.068   1.789   3.036  0.00  0.00    +0.010 A 
ATOM     22  C   UNL     1      -3.837   2.404   4.234  0.00  0.00    +0.001 A 
ATOM     23  C   UNL     1      -3.926   3.785   4.347  0.00  0.00    +0.002 A 
ATOM     24  C   UNL     1      -4.238   4.561   3.252  0.00  0.00    +0.026 A 
ENDBRANCH  14  15
ENDBRANCH  13  14
ENDBRANCH   1  13
BRANCH   1  25
ATOM     25  C   UNL     1      -7.542  -1.587  -0.487  0.00  0.00    +0.019 C 
BRANCH  25  26
ATOM     26  C   UNL     1      -8.499  -0.674  -1.210  0.00  0.00    +0.179 A 
ATOM     27  N   UNL     1      -8.830  -0.771  -2.462  0.00  0.00    -0.210 NA
ATOM     28  C   UNL     1      -9.712   0.224  -2.753  0.00  0.00    +0.163 A 
ATOM     29  C   UNL     1      -9.903   0.936  -1.610  0.00  0.00    +0.230 A 
ATOM     30  O   UNL     1      -9.147   0.363  -0.660  0.00  0.00    -0.449 OA
BRANCH  28  31
ATOM     31  C   UNL     1     -10.341   0.481  -4.061  0.00  0.00    +0.266 C 
ATOM     32  O   UNL     1     -11.117   1.408  -4.191  0.00  0.00    -0.268 OA
ATOM     33  N   UNL     1     -10.056  -0.311  -5.114  0.00  0.00    -0.308 N 
ATOM     34  H   UNL     1      -9.438  -1.051  -5.011  0.00  0.00    +0.149 HD
BRANCH  33  35
ATOM     35  C   UNL     1     -10.682  -0.056  -6.414  0.00  0.00    +0.136 C 
BRANCH  35  36
ATOM     36  C   UNL     1     -10.192  -1.091  -7.428  0.00  0.00    +0.135 C 
ATOM     37  C   UNL     1     -10.815  -0.817  -8.820  0.00  0.00    +0.035 C 
ATOM     38  C   UNL     1      -9.763  -1.481  -9.750  0.00  0.00    +0.031 C 
ATOM     39  C   UNL     1      -8.444  -1.216  -8.993  0.00  0.00    +0.160 C 
ATOM     40  O   UNL     1      -8.774  -0.970  -7.619  0.00  0.00    -0.375 OA
ENDBRANCH  35  36
ENDBRANCH  33  35
ENDBRANCH  28  31
ENDBRANCH  25  26
ENDBRANCH   1  25
TORSDOF 11
