REMARK  Name = ZINC35293012
REMARK  9 active torsions:
REMARK  status: ('A' for Active; 'I' for Inactive)
REMARK    1  A    between atoms: C_1  and  C_2
REMARK    2  A    between atoms: C_2  and  C_3
REMARK    3  A    between atoms: C_3  and  C_4
REMARK    4  A    between atoms: C_4  and  N_5
REMARK    5  A    between atoms: C_13  and  C_15
REMARK    6  A    between atoms: C_20  and  S_22
REMARK    7  A    between atoms: S_22  and  C_23
REMARK    8  A    between atoms: C_23  and  C_24
REMARK    9  A    between atoms: C_29  and  C_32
REMARK                            x       y       z     vdW  Elec       q    Type
REMARK                         _______ _______ _______ _____ _____    ______ ____
ROOT
ATOM      1  N   UNL     1       1.389  -2.513  -2.480  0.00  0.00    -0.299 N 
ATOM      2  C   UNL     1       1.547  -3.834  -2.696  0.00  0.00    +0.303 C 
ATOM      3  O   UNL     1       1.196  -4.634  -1.851  0.00  0.00    -0.253 OA
ATOM      4  N   UNL     1       2.095  -4.267  -3.849  0.00  0.00    -0.280 N 
ATOM      5  C   UNL     1       2.645  -3.312  -4.821  0.00  0.00    +0.128 C 
ATOM      6  C   UNL     1       1.972  -3.552  -6.178  0.00  0.00    +0.125 C 
ATOM      7  N   UNL     1       2.031  -4.988  -6.484  0.00  0.00    -0.312 N 
ATOM      8  C   UNL     1       1.481  -5.943  -5.512  0.00  0.00    +0.128 C 
ATOM      9  C   UNL     1       2.160  -5.704  -4.152  0.00  0.00    +0.092 C 
ATOM     10  C   UNL     1       1.428  -6.492  -3.064  0.00  0.00    +0.030 C 
ATOM     11  C   UNL     1       2.594  -5.434  -7.669  0.00  0.00    +0.127 A 
ATOM     12  C   UNL     1       3.299  -4.554  -8.493  0.00  0.00    +0.083 A 
ATOM     13  C   UNL     1       3.845  -5.043  -9.666  0.00  0.00    +0.135 A 
ATOM     14  N   UNL     1       3.685  -6.323  -9.971  0.00  0.00    -0.210 NA
ATOM     15  C   UNL     1       3.011  -7.135  -9.169  0.00  0.00    +0.192 A 
ATOM     16  N   UNL     1       2.477  -6.706  -8.035  0.00  0.00    -0.207 NA
ATOM     17 CL   UNL     1       4.730  -3.992 -10.726  0.00  0.00    -0.062 Cl
ATOM     18  H   UNL     1       1.735  -1.872  -3.121  0.00  0.00    +0.150 HD
ENDROOT
BRANCH   1  19
ATOM     19  C   UNL     1       0.693  -2.045  -1.279  0.00  0.00    +0.106 C 
BRANCH  19  20
ATOM     20  C   UNL     1       0.650  -0.516  -1.277  0.00  0.00    +0.018 C 
BRANCH  20  22
ATOM     21  C   UNL     1      -0.119   1.502  -0.020  0.00  0.00    +0.004 C 
ATOM     22  C   UNL     1      -0.076  -0.027  -0.022  0.00  0.00    -0.002 C 
ENDBRANCH  20  22
ENDBRANCH  19  20
ENDBRANCH   1  19
BRANCH  15  23
ATOM     23  S   UNL     1       2.825  -8.829  -9.620  0.00  0.00    -0.077 S 
BRANCH  23  24
ATOM     24  C   UNL     1       3.701  -8.960 -11.203  0.00  0.00    +0.173 C 
BRANCH  24  25
ATOM     25  C   UNL     1       3.619 -10.378 -11.707  0.00  0.00    +0.226 C 
ATOM     26  O   UNL     1       3.027 -11.217 -11.061  0.00  0.00    -0.275 OA
ATOM     27  N   UNL     1       4.202 -10.713 -12.874  0.00  0.00    -0.301 N 
ATOM     28  C   UNL     1       4.927  -9.709 -13.665  0.00  0.00    +0.108 C 
ATOM     29  C   UNL     1       4.367  -9.705 -15.090  0.00  0.00    +0.032 C 
ATOM     30  C   UNL     1       4.432 -11.122 -15.664  0.00  0.00    +0.078 C 
ATOM     31  C   UNL     1       3.574 -12.059 -14.810  0.00  0.00    +0.032 C 
ATOM     32  C   UNL     1       4.130 -12.091 -13.379  0.00  0.00    +0.108 C 
BRANCH  30  33
ATOM     33  C   UNL     1       3.914 -11.116 -17.078  0.00  0.00    +0.214 C 
ATOM     34  O   UNL     1       3.530 -10.080 -17.579  0.00  0.00    -0.276 OA
ATOM     35  N   UNL     1       3.876 -12.262 -17.788  0.00  0.00    -0.329 N 
ATOM     36  H   UNL     1       4.183 -13.090 -17.387  0.00  0.00    +0.145 HD
ATOM     37  H   UNL     1       3.542 -12.258 -18.698  0.00  0.00    +0.145 HD
ENDBRANCH  30  33
ENDBRANCH  24  25
ENDBRANCH  23  24
ENDBRANCH  15  23
TORSDOF 7
