REMARK  Name = ZINC39360885
REMARK  8 active torsions:
REMARK  status: ('A' for Active; 'I' for Inactive)
REMARK    1  A    between atoms: C_1  and  O_2
REMARK    2  A    between atoms: O_2  and  C_3
REMARK    3  A    between atoms: C_3  and  C_5
REMARK    4  A    between atoms: C_8  and  C_10
REMARK    5  A    between atoms: C_10  and  S_11
REMARK    6  A    between atoms: S_11  and  C_12
REMARK    7  A    between atoms: N_26  and  C_27
REMARK    8  A    between atoms: C_31  and  C_33
REMARK                            x       y       z     vdW  Elec       q    Type
REMARK                         _______ _______ _______ _____ _____    ______ ____
ROOT
ATOM      1  C   UNL     1       0.604  -7.045   2.360  0.00  0.00    +0.168 C 
ATOM      2  N   UNL     1      -0.621  -7.419   1.989  0.00  0.00    -0.227 NA
ATOM      3  C   UNL     1      -1.046  -8.609   2.357  0.00  0.00    +0.084 C 
ATOM      4  C   UNL     1      -2.042  -9.445   1.898  0.00  0.00    +0.022 A 
ATOM      5  C   UNL     1      -3.133  -9.219   1.032  0.00  0.00    +0.012 A 
ATOM      6  C   UNL     1      -3.919 -10.297   0.735  0.00  0.00    +0.001 A 
ATOM      7  C   UNL     1      -3.691 -11.570   1.246  0.00  0.00    +0.002 A 
ATOM      8  C   UNL     1      -2.671 -11.864   2.103  0.00  0.00    +0.026 A 
ATOM      9  C   UNL     1      -1.818 -10.793   2.475  0.00  0.00    +0.045 A 
ATOM     10  N   UNL     1      -0.809 -10.774   3.321  0.00  0.00    -0.368 N 
ATOM     11  C   UNL     1      -0.366  -9.402   3.463  0.00  0.00    +0.217 C 
ATOM     12  C   UNL     1       1.103  -9.142   3.377  0.00  0.00    +0.254 C 
ATOM     13  O   UNL     1       1.916  -9.990   3.676  0.00  0.00    -0.272 OA
ATOM     14  N   UNL     1       1.488  -7.914   2.942  0.00  0.00    -0.217 N 
ATOM     15  H   UNL     1      -0.428 -11.545   3.770  0.00  0.00    +0.161 HD
ENDROOT
BRANCH  14  16
ATOM     16  C   UNL     1       2.824  -7.521   3.100  0.00  0.00    +0.044 A 
ATOM     17  C   UNL     1       3.731  -7.712   2.066  0.00  0.00    +0.024 A 
ATOM     18  C   UNL     1       5.047  -7.324   2.224  0.00  0.00    +0.002 A 
ATOM     19  C   UNL     1       5.462  -6.747   3.411  0.00  0.00    +0.012 A 
ATOM     20  C   UNL     1       4.561  -6.557   4.442  0.00  0.00    +0.057 A 
ATOM     21  C   UNL     1       3.242  -6.937   4.287  0.00  0.00    +0.036 A 
BRANCH  20  22
ATOM     22  C   UNL     1       5.017  -5.928   5.734  0.00  0.00    +0.417 C 
ATOM     23  F   UNL     1       6.380  -5.627   5.650  0.00  0.00    -0.166 F 
ATOM     24  F   UNL     1       4.293  -4.753   5.962  0.00  0.00    -0.166 F 
ATOM     25  F   UNL     1       4.801  -6.822   6.788  0.00  0.00    -0.166 F 
ENDBRANCH  20  22
ENDBRANCH  14  16
BRANCH   1  26
ATOM     26  S   UNL     1       1.075  -5.475   2.100  0.00  0.00    -0.082 S 
BRANCH  26  27
ATOM     27  C   UNL     1      -0.373  -4.703   1.328  0.00  0.00    +0.151 C 
BRANCH  27  31
ATOM     28  C   UNL     1       0.087  -1.081   1.276  0.00  0.00    +0.212 A 
ATOM     29  C   UNL     1       0.569  -1.386   0.035  0.00  0.00    +0.057 A 
ATOM     30  C   UNL     1       0.461  -2.777  -0.109  0.00  0.00    +0.046 A 
ATOM     31  C   UNL     1      -0.075  -3.255   1.036  0.00  0.00    +0.116 A 
ATOM     32  O   UNL     1      -0.294  -2.231   1.870  0.00  0.00    -0.452 OA
BRANCH  28  33
ATOM     33  C   UNL     1       0.005   0.259   1.862  0.00  0.00    +0.375 C 
ATOM     34  O   UNL     1       0.383   1.225   1.227  0.00  0.00    -0.241 OA
BRANCH  33  36
ATOM     35  C   UNL     1      -0.540   1.756   3.616  0.00  0.00    +0.280 C 
ATOM     36  O   UNL     1      -0.489   0.422   3.107  0.00  0.00    -0.462 OA
ENDBRANCH  33  36
ENDBRANCH  28  33
ENDBRANCH  27  31
ENDBRANCH  26  27
ENDBRANCH   1  26
TORSDOF 7
