REMARK  Name = ZINC09042611
REMARK  13 active torsions:
REMARK  status: ('A' for Active; 'I' for Inactive)
REMARK    1  A    between atoms: C_1  and  N_59
REMARK    2  A    between atoms: C_2  and  N_59
REMARK    3  A    between atoms: C_3  and  C_4
REMARK    4  A    between atoms: C_3  and  N_59
REMARK    5  A    between atoms: C_4  and  C_5
REMARK    6  A    between atoms: C_5  and  N_6
REMARK    7  A    between atoms: C_7  and  C_25
REMARK    8  A    between atoms: C_10  and  C_11
REMARK    9  A    between atoms: C_10  and  O_20
REMARK   10  A    between atoms: C_14  and  O_18
REMARK   11  A    between atoms: O_18  and  C_19
REMARK   12  A    between atoms: C_30  and  O_31
REMARK   13  A    between atoms: O_31  and  C_32
REMARK                            x       y       z     vdW  Elec       q    Type
REMARK                         _______ _______ _______ _____ _____    ______ ____
ROOT
ATOM      1  N   UNL     1      -0.064   0.754  -1.943  0.00  0.00    -0.284 N 
ATOM      2  C   UNL     1      -0.314  -0.360  -2.863  0.00  0.00    +0.148 C 
ATOM      3  C   UNL     1       0.881  -0.436  -3.785  0.00  0.00    +0.071 C 
ATOM      4  C   UNL     1       1.080  -1.337  -4.813  0.00  0.00    +0.133 C 
ATOM      5  C   UNL     1       1.748   0.593  -3.386  0.00  0.00    +0.249 C 
ATOM      6  O   UNL     1       2.824   0.856  -3.892  0.00  0.00    -0.282 OA
ATOM      7  C   UNL     1       1.121   1.311  -2.244  0.00  0.00    +0.288 C 
ATOM      8  O   UNL     1       1.611   2.259  -1.665  0.00  0.00    -0.266 OA
ENDROOT
BRANCH   4   9
ATOM      9  C   UNL     1       2.233  -1.183  -5.713  0.00  0.00    +0.019 A 
ATOM     10  C   UNL     1       2.480   0.048  -6.334  0.00  0.00    +0.015 A 
ATOM     11  C   UNL     1       3.561   0.189  -7.173  0.00  0.00    +0.048 A 
ATOM     12  C   UNL     1       4.404  -0.891  -7.412  0.00  0.00    +0.138 A 
ATOM     13  C   UNL     1       4.162  -2.118  -6.802  0.00  0.00    +0.083 A 
ATOM     14  C   UNL     1       3.084  -2.268  -5.957  0.00  0.00    +0.035 A 
ATOM     15 CL   UNL     1       5.218  -3.462  -7.106  0.00  0.00    -0.080 Cl
BRANCH  12  16
ATOM     16  O   UNL     1       5.467  -0.748  -8.244  0.00  0.00    -0.494 OA
ATOM     17  C   UNL     1       5.659   0.538  -8.837  0.00  0.00    +0.277 C 
ENDBRANCH  12  16
ENDBRANCH   4   9
BRANCH   2  18
ATOM     18  C   UNL     1      -0.452  -1.646  -2.090  0.00  0.00    +0.019 A 
ATOM     19  C   UNL     1       0.288  -1.844  -0.939  0.00  0.00    +0.009 A 
ATOM     20  C   UNL     1       0.159  -3.022  -0.227  0.00  0.00    +0.001 A 
ATOM     21  C   UNL     1      -0.704  -4.009  -0.669  0.00  0.00    +0.004 A 
ATOM     22  C   UNL     1      -1.441  -3.818  -1.821  0.00  0.00    +0.046 A 
ATOM     23  C   UNL     1      -1.317  -2.635  -2.535  0.00  0.00    +0.125 A 
BRANCH  23  24
ATOM     24  O   UNL     1      -2.042  -2.444  -3.669  0.00  0.00    -0.495 OA
ATOM     25  C   UNL     1      -2.912  -3.505  -4.068  0.00  0.00    +0.277 C 
ENDBRANCH  23  24
ENDBRANCH   2  18
BRANCH   4  26
ATOM     26  O   UNL     1       0.216  -2.360  -4.991  0.00  0.00    -0.506 OA
ATOM     27  H   UNL     1       0.508  -2.910  -5.773  0.00  0.00    +0.292 HD
ENDBRANCH   4  26
BRANCH   1  28
ATOM     28  C   UNL     1      -0.964   1.193  -0.874  0.00  0.00    +0.107 C 
BRANCH  28  29
ATOM     29  C   UNL     1      -2.004   2.158  -1.447  0.00  0.00    +0.000 C 
BRANCH  29  30
ATOM     30  C   UNL     1      -3.017   2.520  -0.359  0.00  0.00    -0.078 C 
BRANCH  30  33
ATOM     31  C   UNL     1      -5.133   3.632   0.026  0.00  0.00    -0.097 C 
ATOM     32  C   UNL     1      -3.402   4.735  -1.259  0.00  0.00    -0.097 C 
ATOM     33  N   UNL     1      -4.026   3.435  -0.934  0.00  0.00    +0.376 N 
ATOM     34  H   UNL     1      -4.401   3.020  -1.795  0.00  0.00    -0.083 HD
ENDBRANCH  30  33
ENDBRANCH  29  30
ENDBRANCH  28  29
ENDBRANCH   1  28
TORSDOF 9
