REMARK  Name = ZINC13694711
REMARK  3 active torsions:
REMARK  status: ('A' for Active; 'I' for Inactive)
REMARK    1  A    between atoms: C_11  and  C_13
REMARK    2  A    between atoms: C_13  and  N_14
REMARK    3  A    between atoms: N_24  and  C_25
REMARK                            x       y       z     vdW  Elec       q    Type
REMARK                         _______ _______ _______ _____ _____    ______ ____
ROOT
ATOM      1  N   UNL     1      -3.607  -1.758  -1.618  0.00  0.00    -0.291 NA
ATOM      2  C   UNL     1      -4.003  -0.666  -0.718  0.00  0.00    +0.104 C 
ATOM      3  C   UNL     1      -3.385   0.645  -1.209  0.00  0.00    +0.123 C 
ATOM      4  N   UNL     1      -1.923   0.508  -1.253  0.00  0.00    -0.300 N 
ATOM      5  C   UNL     1      -1.526  -0.585  -2.153  0.00  0.00    +0.123 C 
ATOM      6  C   UNL     1      -2.144  -1.896  -1.662  0.00  0.00    +0.104 C 
ATOM      7  C   UNL     1      -1.323   1.700  -1.626  0.00  0.00    +0.181 A 
ATOM      8  N   UNL     1      -1.440   2.285  -2.794  0.00  0.00    -0.334 N 
ATOM      9  C   UNL     1      -0.721   3.421  -2.796  0.00  0.00    +0.103 A 
ATOM     10  C   UNL     1      -0.135   3.554  -1.595  0.00  0.00    +0.112 A 
ATOM     11  N   UNL     1      -0.511   2.463  -0.841  0.00  0.00    -0.287 N 
ATOM     12  H   UNL     1      -2.058   1.827  -3.580  0.00  0.00    +0.168 HD
ENDROOT
BRANCH  11  13
ATOM     13  C   UNL     1      -0.131   2.190   0.482  0.00  0.00    +0.084 A 
ATOM     14  C   UNL     1      -0.515   3.044   1.506  0.00  0.00    +0.029 A 
ATOM     15  C   UNL     1      -0.144   2.771   2.808  0.00  0.00    +0.002 A 
ATOM     16  C   UNL     1       0.619   1.652   3.091  0.00  0.00    +0.003 A 
ATOM     17  C   UNL     1       1.008   0.801   2.074  0.00  0.00    +0.040 A 
ATOM     18  C   UNL     1       0.635   1.067   0.768  0.00  0.00    +0.147 A 
ATOM     19  F   UNL     1       1.016   0.236  -0.226  0.00  0.00    -0.203 F 
ENDBRANCH  11  13
BRANCH   1  20
ATOM     20  C   UNL     1      -4.243  -3.022  -1.223  0.00  0.00    +0.181 C 
BRANCH  20  31
ATOM     21  C   UNL     1      -3.088  -8.369  -4.643  0.00  0.00    +0.000 A 
ATOM     22  C   UNL     1      -2.952  -7.039  -4.997  0.00  0.00    +0.002 A 
ATOM     23  C   UNL     1      -3.345  -6.050  -4.118  0.00  0.00    +0.024 A 
ATOM     24  C   UNL     1      -3.881  -6.389  -2.882  0.00  0.00    +0.039 A 
ATOM     25  C   UNL     1      -4.016  -7.723  -2.527  0.00  0.00    -0.026 A 
ATOM     26  C   UNL     1      -3.618  -8.710  -3.414  0.00  0.00    +0.005 A 
ATOM     27  C   UNL     1      -4.592  -8.129  -1.196  0.00  0.00    +0.038 C 
ATOM     28  C   UNL     1      -4.493  -6.978  -0.196  0.00  0.00    +0.024 C 
ATOM     29  C   UNL     1      -5.089  -5.715  -0.832  0.00  0.00    +0.114 C 
ATOM     30  N   UNL     1      -4.266  -5.370  -2.000  0.00  0.00    -0.270 N 
ATOM     31  C   UNL     1      -3.892  -4.095  -2.221  0.00  0.00    +0.234 C 
ATOM     32  O   UNL     1      -3.273  -3.810  -3.225  0.00  0.00    -0.274 OA
ENDBRANCH  20  31
ENDBRANCH   1  20
TORSDOF 3
