REMARK  Name = ZINC23888476
REMARK  8 active torsions:
REMARK  status: ('A' for Active; 'I' for Inactive)
REMARK    1  A    between atoms: C_1  and  C_2
REMARK    2  A    between atoms: C_2  and  C_3
REMARK    3  A    between atoms: C_8  and  O_36
REMARK    4  A    between atoms: C_9  and  C_11
REMARK    5  A    between atoms: C_11  and  C_13
REMARK    6  A    between atoms: C_11  and  N_23
REMARK    7  A    between atoms: C_16  and  C_19
REMARK    8  A    between atoms: N_26  and  C_29
REMARK                            x       y       z     vdW  Elec       q    Type
REMARK                         _______ _______ _______ _____ _____    ______ ____
ROOT
ATOM      1  C   UNL     1       1.669   7.546  -1.035  0.00  0.00    +0.129 C 
ENDROOT
BRANCH   1   8
ATOM      2  C   UNL     1       7.056  10.097  -0.882  0.00  0.00    +0.152 A 
ATOM      3  N   UNL     1       6.863   9.113  -1.758  0.00  0.00    -0.205 NA
ATOM      4  C   UNL     1       5.638   8.676  -1.653  0.00  0.00    +0.199 A 
ATOM      5  N   UNL     1       4.984   9.377  -0.687  0.00  0.00    -0.173 N 
ATOM      6  N   UNL     1       5.954  10.297  -0.211  0.00  0.00    -0.147 NA
ATOM      7  C   UNL     1       3.673   9.043  -0.445  0.00  0.00    +0.228 A 
ATOM      8  C   UNL     1       3.079   8.066  -1.140  0.00  0.00    +0.076 A 
ATOM      9  S   UNL     1       4.400   7.534  -2.219  0.00  0.00    -0.047 S 
BRANCH   2  11
ATOM     10  C   UNL     1       8.351  12.079  -1.620  0.00  0.00    +0.012 C 
ATOM     11  C   UNL     1       8.342  10.860  -0.696  0.00  0.00    +0.075 C 
ENDBRANCH   2  11
BRANCH   7  12
ATOM     12  O   UNL     1       2.973   9.712   0.511  0.00  0.00    -0.492 OA
ATOM     13  H   UNL     1       1.924   9.449   0.709  0.00  0.00    +0.294 HD
ENDBRANCH   7  12
ENDBRANCH   1   8
BRANCH   1  14
ATOM     14  C   UNL     1       0.861   8.045  -2.206  0.00  0.00    -0.025 A 
ATOM     15  C   UNL     1       0.968   7.422  -3.435  0.00  0.00    +0.006 A 
ATOM     16  C   UNL     1       0.224   7.877  -4.507  0.00  0.00    +0.013 A 
ATOM     17  C   UNL     1      -0.619   8.961  -4.354  0.00  0.00    +0.055 A 
ATOM     18  C   UNL     1      -0.723   9.588  -3.126  0.00  0.00    +0.013 A 
ATOM     19  C   UNL     1       0.018   9.130  -2.052  0.00  0.00    +0.006 A 
BRANCH  17  20
ATOM     20  C   UNL     1      -1.426   9.460  -5.524  0.00  0.00    +0.417 C 
ATOM     21  F   UNL     1      -0.691  10.428  -6.218  0.00  0.00    -0.166 F 
ATOM     22  F   UNL     1      -1.716   8.393  -6.380  0.00  0.00    -0.166 F 
ATOM     23  F   UNL     1      -2.619  10.025  -5.062  0.00  0.00    -0.166 F 
ENDBRANCH  17  20
ENDBRANCH   1  14
BRANCH   1  24
ATOM     24  N   UNL     1       1.686   6.078  -1.042  0.00  0.00    -0.288 NA
ATOM     25  C   UNL     1       2.466   5.554   0.088  0.00  0.00    +0.104 C 
ATOM     26  C   UNL     1       2.526   4.028  -0.001  0.00  0.00    +0.120 C 
ATOM     27  N   UNL     1       1.161   3.485   0.009  0.00  0.00    -0.327 N 
ATOM     28  C   UNL     1       0.381   4.008  -1.121  0.00  0.00    +0.120 C 
ATOM     29  C   UNL     1       0.320   5.535  -1.032  0.00  0.00    +0.104 C 
BRANCH  27  30
ATOM     30  C   UNL     1       1.177   2.087   0.002  0.00  0.00    +0.030 A 
ATOM     31  C   UNL     1      -0.017   1.377   0.010  0.00  0.00    +0.026 A 
ATOM     32  C   UNL     1       0.002  -0.004   0.002  0.00  0.00    +0.040 A 
ATOM     33  C   UNL     1       1.210  -0.681  -0.013  0.00  0.00    +0.124 A 
ATOM     34  C   UNL     1       2.401   0.025  -0.021  0.00  0.00    +0.040 A 
ATOM     35  C   UNL     1       2.387   1.406  -0.013  0.00  0.00    +0.026 A 
ATOM     36  F   UNL     1       1.226  -2.032  -0.020  0.00  0.00    -0.205 F 
ENDBRANCH  27  30
ENDBRANCH   1  24
TORSDOF 7
