REMARK  Name = ZINC36555359
REMARK  14 active torsions:
REMARK  status: ('A' for Active; 'I' for Inactive)
REMARK    1  A    between atoms: C_1  and  C_2
REMARK    2  A    between atoms: C_7  and  C_8
REMARK    3  A    between atoms: C_8  and  C_10
REMARK    4  A    between atoms: C_8  and  N_17
REMARK    5  A    between atoms: N_12  and  C_13
REMARK    6  A    between atoms: C_13  and  C_14
REMARK    7  A    between atoms: C_13  and  C_15
REMARK    8  A    between atoms: C_13  and  C_16
REMARK    9  A    between atoms: N_17  and  C_18
REMARK   10  A    between atoms: C_18  and  C_19
REMARK   11  A    between atoms: C_22  and  C_24
REMARK   12  A    between atoms: C_25  and  C_27
REMARK   13  A    between atoms: C_27  and  C_35
REMARK   14  A    between atoms: C_28  and  C_29
REMARK                            x       y       z     vdW  Elec       q    Type
REMARK                         _______ _______ _______ _____ _____    ______ ____
ROOT
ATOM      1  N   UNL     1      -0.534  -1.048   3.216  0.00  0.00    -0.275 N 
ATOM      2  C   UNL     1      -0.125  -2.109   2.492  0.00  0.00    +0.248 C 
ATOM      3  O   UNL     1      -0.908  -3.001   2.225  0.00  0.00    -0.270 OA
ENDROOT
BRANCH   2   4
ATOM      4  C   UNL     1       1.268  -2.187   2.024  0.00  0.00    +0.045 C 
ATOM      5  C   UNL     1       1.881  -3.396   1.912  0.00  0.00    +0.021 C 
BRANCH   5   6
ATOM      6  C   UNL     1       3.211  -3.492   1.296  0.00  0.00    -0.024 A 
ATOM      7  C   UNL     1       4.131  -4.444   1.751  0.00  0.00    +0.008 A 
ATOM      8  C   UNL     1       5.377  -4.527   1.168  0.00  0.00    +0.001 A 
ATOM      9  C   UNL     1       5.720  -3.672   0.134  0.00  0.00    +0.000 A 
ATOM     10  C   UNL     1       4.816  -2.728  -0.322  0.00  0.00    +0.001 A 
ATOM     11  C   UNL     1       3.564  -2.635   0.247  0.00  0.00    +0.008 A 
ENDBRANCH   5   6
BRANCH   4  12
ATOM     12  C   UNL     1       2.003  -0.950   1.675  0.00  0.00    -0.013 A 
ATOM     13  C   UNL     1       1.495  -0.084   0.706  0.00  0.00    +0.008 A 
ATOM     14  C   UNL     1       2.185   1.067   0.385  0.00  0.00    +0.001 A 
ATOM     15  C   UNL     1       3.377   1.363   1.021  0.00  0.00    +0.000 A 
ATOM     16  C   UNL     1       3.886   0.508   1.982  0.00  0.00    +0.001 A 
ATOM     17  C   UNL     1       3.203  -0.643   2.317  0.00  0.00    +0.008 A 
ENDBRANCH   4  12
ENDBRANCH   2   4
BRANCH   1  18
ATOM     18  C   UNL     1       0.344   0.115   3.372  0.00  0.00    +0.193 C 
BRANCH  18  25
ATOM     19  C   UNL     1       2.640   1.811   3.812  0.00  0.00    +0.044 C 
ATOM     20  C   UNL     1       2.265   0.770   4.835  0.00  0.00    -0.045 A 
ATOM     21  C   UNL     1       3.017   0.631   5.987  0.00  0.00    +0.004 A 
ATOM     22  C   UNL     1       2.673  -0.323   6.926  0.00  0.00    +0.000 A 
ATOM     23  C   UNL     1       1.577  -1.138   6.713  0.00  0.00    +0.000 A 
ATOM     24  C   UNL     1       0.825  -0.999   5.561  0.00  0.00    +0.006 A 
ATOM     25  C   UNL     1       1.167  -0.041   4.625  0.00  0.00    -0.015 A 
ENDBRANCH  18  25
BRANCH  18  26
ATOM     26  C   UNL     1      -0.492   1.365   3.472  0.00  0.00    +0.239 C 
ATOM     27  O   UNL     1      -1.577   1.327   4.012  0.00  0.00    -0.273 OA
ATOM     28  N   UNL     1      -0.033   2.524   2.960  0.00  0.00    -0.309 N 
ATOM     29  H   UNL     1       0.875   2.581   2.626  0.00  0.00    +0.149 HD
BRANCH  28  30
ATOM     30  C   UNL     1      -0.907   3.699   2.910  0.00  0.00    +0.026 C 
ATOM     31  C   UNL     1      -1.291   4.111   4.332  0.00  0.00    +0.031 C 
ATOM     32  C   UNL     1      -0.172   4.853   2.226  0.00  0.00    +0.031 C 
ATOM     33  C   UNL     1      -2.172   3.360   2.118  0.00  0.00    +0.031 C 
ENDBRANCH  28  30
ENDBRANCH  18  26
ENDBRANCH   1  18
BRANCH   1  34
ATOM     34  C   UNL     1      -1.855  -1.058   3.848  0.00  0.00    +0.183 C 
BRANCH  34  35
ATOM     35  C   UNL     1      -2.897  -0.649   2.839  0.00  0.00    +0.122 A 
ATOM     36  C   UNL     1      -3.630  -1.484   2.081  0.00  0.00    +0.046 A 
ATOM     37  C   UNL     1      -4.475  -0.679   1.283  0.00  0.00    +0.045 A 
ATOM     38  C   UNL     1      -4.208   0.600   1.601  0.00  0.00    +0.102 A 
ATOM     39  O   UNL     1      -3.256   0.613   2.548  0.00  0.00    -0.463 OA
ATOM     40  C   UNL     1      -4.870   1.814   1.000  0.00  0.00    +0.086 C 
ENDBRANCH  34  35
ENDBRANCH   1  34
TORSDOF 9
