REMARK  Name = ZINC03847283
REMARK  7 active torsions:
REMARK  status: ('A' for Active; 'I' for Inactive)
REMARK    1  A    between atoms: C_1  and  O_2
REMARK    2  A    between atoms: O_2  and  C_3
REMARK    3  A    between atoms: C_8  and  O_9
REMARK    4  A    between atoms: C_12  and  C_13
REMARK    5  A    between atoms: C_12  and  C_21
REMARK    6  A    between atoms: C_13  and  C_14
REMARK    7  A    between atoms: C_17  and  O_20
REMARK                            x       y       z     vdW  Elec       q    Type
REMARK                         _______ _______ _______ _____ _____    ______ ____
ROOT
ATOM      1  C   UNL     1      -0.128  -2.720   0.051  0.00  0.00    +0.162 A 
ATOM      2  C   UNL     1       1.052  -2.070   0.366  0.00  0.00    +0.052 A 
ATOM      3  C   UNL     1       1.114  -0.684   0.360  0.00  0.00    -0.041 A 
ATOM      4  C   UNL     1      -0.008   0.052   0.041  0.00  0.00    -0.043 A 
ATOM      5  C   UNL     1      -1.193  -0.595  -0.277  0.00  0.00    +0.053 A 
ATOM      6  C   UNL     1      -1.258  -1.977  -0.274  0.00  0.00    +0.159 A 
ATOM      7  C   UNL     1       0.012   1.559   0.028  0.00  0.00    +0.016 C 
ATOM      8  C   UNL     1       1.456   2.062  -0.014  0.00  0.00    -0.076 C 
ATOM      9  C   UNL     1       2.425  -0.025   0.702  0.00  0.00    +0.066 C 
ATOM     10  N   UNL     1       2.219   1.387   1.052  0.00  0.00    +0.393 N 
ATOM     11  H   UNL     1       1.697   1.446   1.934  0.00  0.00    -0.084 HD
ATOM     12  H   UNL     1       3.130   1.847   1.162  0.00  0.00    -0.084 HD
ENDROOT
BRANCH   9  13
ATOM     13  C   UNL     1       3.048  -0.737   1.875  0.00  0.00    +0.350 C 
ATOM     14  O   UNL     1       3.822  -1.646   1.689  0.00  0.00    -0.248 OA
ATOM     15  O   UNL     1       2.744  -0.362   3.127  0.00  0.00    -0.248 OA
ENDBRANCH   9  13
BRANCH   1  17
ATOM     16  C   UNL     1       1.018  -4.774   0.402  0.00  0.00    +0.277 C 
ATOM     17  O   UNL     1      -0.182  -4.079   0.059  0.00  0.00    -0.491 OA
ENDBRANCH   1  17
BRANCH   6  18
ATOM     18  O   UNL     1      -2.423  -2.606  -0.587  0.00  0.00    -0.503 OA
ATOM     19  H   UNL     1      -2.524  -2.802  -1.528  0.00  0.00    +0.292 HD
ENDBRANCH   6  18
BRANCH   9  20
ATOM     20  C   UNL     1       3.365  -0.117  -0.501  0.00  0.00    +0.038 C 
BRANCH  20  21
ATOM     21  C   UNL     1       4.679   0.541  -0.164  0.00  0.00    -0.048 A 
ATOM     22  C   UNL     1       4.863   1.887  -0.421  0.00  0.00    +0.007 A 
ATOM     23  C   UNL     1       6.064   2.493  -0.108  0.00  0.00    +0.045 A 
ATOM     24  C   UNL     1       7.089   1.748   0.456  0.00  0.00    +0.117 A 
ATOM     25  C   UNL     1       6.904   0.397   0.708  0.00  0.00    +0.045 A 
ATOM     26  C   UNL     1       5.699  -0.204   0.398  0.00  0.00    +0.007 A 
BRANCH  24  27
ATOM     27  O   UNL     1       8.274   2.341   0.760  0.00  0.00    -0.507 OA
ATOM     28  H   UNL     1       8.920   2.321   0.042  0.00  0.00    +0.292 HD
ENDBRANCH  24  27
ENDBRANCH  20  21
ENDBRANCH   9  20
TORSDOF 6
