REMARK  Name = ZINC38613793
REMARK  9 active torsions:
REMARK  status: ('A' for Active; 'I' for Inactive)
REMARK    1  A    between atoms: C_1  and  C_2
REMARK    2  A    between atoms: C_2  and  C_3
REMARK    3  A    between atoms: C_3  and  C_4
REMARK    4  A    between atoms: C_3  and  C_5
REMARK    5  A    between atoms: C_3  and  C_6
REMARK    6  A    between atoms: C_13  and  C_17
REMARK    7  A    between atoms: N_19  and  N_20
REMARK    8  A    between atoms: C_21  and  C_22
REMARK    9  A    between atoms: C_27  and  O_28
REMARK                            x       y       z     vdW  Elec       q    Type
REMARK                         _______ _______ _______ _____ _____    ______ ____
ROOT
ATOM      1  C   UNL     1       3.391  -5.093  -3.131  0.00  0.00    +0.263 C 
ATOM      2  O   UNL     1       3.780  -5.993  -2.418  0.00  0.00    -0.271 OA
ATOM      3  N   UNL     1       4.259  -4.167  -3.583  0.00  0.00    -0.205 N 
ATOM      4  H   UNL     1       3.948  -3.447  -4.154  0.00  0.00    +0.177 HD
ENDROOT
BRANCH   1  11
ATOM      5  C   UNL     1       0.739  -2.027  -1.265  0.00  0.00    -0.001 C 
ATOM      6  C   UNL     1      -0.697  -2.559  -1.257  0.00  0.00    +0.010 C 
ATOM      7  C   UNL     1      -0.686  -4.074  -1.029  0.00  0.00    +0.057 C 
ATOM      8  C   UNL     1       0.281  -4.701  -2.008  0.00  0.00    +0.065 C 
ATOM      9  C   UNL     1       1.215  -3.999  -2.659  0.00  0.00    -0.012 C 
ATOM     10  C   UNL     1       1.455  -2.524  -2.529  0.00  0.00    +0.039 C 
ATOM     11  C   UNL     1       1.935  -5.011  -3.513  0.00  0.00    +0.243 C 
ATOM     12  N   UNL     1       1.232  -6.267  -3.187  0.00  0.00    -0.170 NA
ATOM     13  N   UNL     1       0.351  -6.003  -2.363  0.00  0.00    -0.158 NA
BRANCH   5  14
ATOM     14  C   UNL     1       0.718  -0.497  -1.257  0.00  0.00    -0.032 C 
ATOM     15  C   UNL     1      -0.022   0.009  -2.496  0.00  0.00    +0.011 C 
ATOM     16  C   UNL     1       2.154   0.032  -1.268  0.00  0.00    +0.011 C 
BRANCH  14  18
ATOM     17  C   UNL     1      -0.019   1.526   0.010  0.00  0.00    +0.004 C 
ATOM     18  C   UNL     1       0.002  -0.004   0.002  0.00  0.00    +0.003 C 
ENDBRANCH  14  18
ENDBRANCH   5  14
ENDBRANCH   1  11
BRANCH   3  19
ATOM     19  N   UNL     1       5.612  -4.244  -3.228  0.00  0.00    -0.188 NA
ATOM     20  C   UNL     1       6.449  -3.352  -3.664  0.00  0.00    +0.142 C 
BRANCH  20  21
ATOM     21  C   UNL     1       7.872  -3.433  -3.290  0.00  0.00    +0.037 A 
ATOM     22  C   UNL     1       8.775  -2.472  -3.752  0.00  0.00    +0.028 A 
ATOM     23  C   UNL     1      10.106  -2.553  -3.398  0.00  0.00    +0.019 A 
ATOM     24  C   UNL     1      10.552  -3.584  -2.588  0.00  0.00    +0.019 A 
ATOM     25  C   UNL     1       9.668  -4.541  -2.126  0.00  0.00    +0.047 A 
ATOM     26  C   UNL     1       8.327  -4.471  -2.466  0.00  0.00    +0.126 A 
ATOM     27 BR   UNL     1      11.328  -1.251  -4.023  0.00  0.00    -0.050 Br
BRANCH  26  28
ATOM     28  O   UNL     1       7.457  -5.408  -2.007  0.00  0.00    -0.506 OA
ATOM     29  H   UNL     1       7.364  -6.176  -2.588  0.00  0.00    +0.292 HD
ENDBRANCH  26  28
ENDBRANCH  20  21
ENDBRANCH   3  19
TORSDOF 6
