REMARK  Name = ZINC12007752
REMARK  6 active torsions:
REMARK  status: ('A' for Active; 'I' for Inactive)
REMARK    1  A    between atoms: C_1  and  C_2
REMARK    2  A    between atoms: C_2  and  C_3
REMARK    3  A    between atoms: C_2  and  C_4
REMARK    4  A    between atoms: C_13  and  N_22
REMARK    5  A    between atoms: C_15  and  C_17
REMARK    6  A    between atoms: C_23  and  C_25
REMARK                            x       y       z     vdW  Elec       q    Type
REMARK                         _______ _______ _______ _____ _____    ______ ____
ROOT
ATOM      1  C   UNL     1       1.661   6.911  -0.238  0.00  0.00    +0.053 A 
ATOM      2  C   UNL     1       1.885   8.243  -0.428  0.00  0.00    +0.093 A 
ATOM      3  C   UNL     1       3.212   8.702  -0.518  0.00  0.00    +0.253 A 
ATOM      4  O   UNL     1       3.450   9.887  -0.688  0.00  0.00    -0.268 OA
ATOM      5  N   UNL     1       4.217   7.807  -0.407  0.00  0.00    -0.291 N 
ATOM      6  H   UNL     1       5.139   8.102  -0.462  0.00  0.00    +0.172 HD
ATOM      7  C   UNL     1       3.931   6.491  -0.222  0.00  0.00    +0.234 A 
ATOM      8  N   UNL     1       2.688   6.068  -0.139  0.00  0.00    -0.217 NA
ATOM      9  N   UNL     1       4.965   5.581  -0.114  0.00  0.00    -0.184 N 
ATOM     10  C   UNL     1       4.833   4.230   0.043  0.00  0.00    +0.133 A 
ATOM     11  C   UNL     1       6.080   3.698   0.101  0.00  0.00    +0.077 A 
ATOM     12  C   UNL     1       7.006   4.756  -0.020  0.00  0.00    +0.130 A 
ATOM     13  N   UNL     1       6.332   5.881  -0.145  0.00  0.00    -0.159 NA
ENDROOT
BRANCH  12  14
ATOM     14  C   UNL     1       8.478   4.624  -0.008  0.00  0.00    +0.155 A 
ATOM     15  C   UNL     1       9.371   5.642  -0.129  0.00  0.00    +0.051 A 
ATOM     16  C   UNL     1      10.655   5.065  -0.062  0.00  0.00    +0.042 A 
ATOM     17  C   UNL     1      10.485   3.737   0.087  0.00  0.00    +0.196 A 
ATOM     18  O   UNL     1       9.168   3.474   0.120  0.00  0.00    -0.461 OA
ENDBRANCH  12  14
BRANCH  10  19
ATOM     19  N   UNL     1       3.635   3.526   0.125  0.00  0.00    -0.266 N 
ATOM     20  C   UNL     1       3.646   2.178   0.149  0.00  0.00    +0.249 C 
ATOM     21  O   UNL     1       4.702   1.578   0.101  0.00  0.00    -0.270 OA
ATOM     22  H   UNL     1       2.792   4.005   0.164  0.00  0.00    +0.157 HD
BRANCH  20  23
ATOM     23  C   UNL     1       2.375   1.431   0.236  0.00  0.00    +0.040 A 
ATOM     24  C   UNL     1       1.160   2.118   0.293  0.00  0.00    +0.016 A 
ATOM     25  C   UNL     1      -0.024   1.417   0.374  0.00  0.00    +0.042 A 
ATOM     26  C   UNL     1      -0.012   0.031   0.399  0.00  0.00    +0.158 A 
ATOM     27  C   UNL     1       1.192  -0.658   0.343  0.00  0.00    +0.159 A 
ATOM     28  C   UNL     1       2.383   0.035   0.261  0.00  0.00    +0.054 A 
ATOM     29  F   UNL     1       1.198  -2.009   0.368  0.00  0.00    -0.202 F 
ATOM     30  F   UNL     1      -1.175  -0.651   0.479  0.00  0.00    -0.202 F 
ENDBRANCH  20  23
ENDBRANCH  10  19
BRANCH   1  32
ATOM     31  C   UNL     1       0.001   5.373  -1.252  0.00  0.00    +0.014 C 
ATOM     32  C   UNL     1       0.249   6.392  -0.138  0.00  0.00    +0.032 C 
ATOM     33  C   UNL     1       0.048   5.720   1.222  0.00  0.00    +0.014 C 
ENDBRANCH   1  32
TORSDOF 4
