REMARK  Name = ZINC66625360
REMARK  5 active torsions:
REMARK  status: ('A' for Active; 'I' for Inactive)
REMARK    1  A    between atoms: C_1  and  N_2
REMARK    2  A    between atoms: C_3  and  C_8
REMARK    3  A    between atoms: C_8  and  N_9
REMARK    4  A    between atoms: C_10  and  C_12
REMARK    5  A    between atoms: C_17  and  O_18
REMARK                            x       y       z     vdW  Elec       q    Type
REMARK                         _______ _______ _______ _____ _____    ______ ____
ROOT
ATOM      1  N   UNL     1      -0.882   5.311  -1.377  0.00  0.00    -0.304 N 
ATOM      2  C   UNL     1      -0.576   6.507  -0.837  0.00  0.00    +0.248 C 
ATOM      3  O   UNL     1       0.042   6.562   0.208  0.00  0.00    -0.270 OA
ATOM      4  H   UNL     1      -1.375   5.267  -2.211  0.00  0.00    +0.149 HD
ENDROOT
BRANCH   2   5
ATOM      5  C   UNL     1      -0.991   7.750  -1.515  0.00  0.00    +0.078 A 
ATOM      6  C   UNL     1      -1.705   7.695  -2.711  0.00  0.00    +0.020 A 
ATOM      7  C   UNL     1      -2.099   8.858  -3.349  0.00  0.00    -0.043 A 
ATOM      8  C   UNL     1      -1.787  10.086  -2.799  0.00  0.00    -0.041 A 
ATOM      9  C   UNL     1      -1.074  10.152  -1.611  0.00  0.00    +0.050 A 
ATOM     10  C   UNL     1      -0.677   8.998  -0.959  0.00  0.00    +0.129 A 
ATOM     11  C   UNL     1      -2.201  11.387  -3.437  0.00  0.00    +0.035 C 
ATOM     12  C   UNL     1      -2.575  11.172  -4.902  0.00  0.00    +0.005 C 
ATOM     13  C   UNL     1      -3.586  10.022  -4.980  0.00  0.00    +0.005 C 
ATOM     14  C   UNL     1      -2.861   8.721  -4.642  0.00  0.00    +0.035 C 
BRANCH  10  15
ATOM     15  O   UNL     1       0.015   9.073   0.205  0.00  0.00    -0.506 OA
ATOM     16  H   UNL     1       0.975   9.105   0.091  0.00  0.00    +0.292 HD
ENDBRANCH  10  15
ENDBRANCH   2   5
BRANCH   1  17
ATOM     17  C   UNL     1      -0.469   4.076  -0.704  0.00  0.00    +0.181 C 
BRANCH  17  20
ATOM     18  C   UNL     1      -0.013   1.086   0.008  0.00  0.00    +0.152 C 
ATOM     19  N   UNL     1      -0.721   1.571  -1.179  0.00  0.00    -0.309 N 
ATOM     20  C   UNL     1      -0.931   2.888  -1.508  0.00  0.00    +0.149 A 
ATOM     21  N   UNL     1      -1.590   2.941  -2.620  0.00  0.00    -0.157 NA
ATOM     22  N   UNL     1      -1.829   1.628  -3.048  0.00  0.00    -0.254 N 
ATOM     23  C   UNL     1      -1.274   0.801  -2.138  0.00  0.00    +0.175 A 
ATOM     24  S   UNL     1      -1.274  -0.910  -2.189  0.00  0.00    -0.011 S 
ATOM     25  H   UNL     1      -2.303   1.363  -3.852  0.00  0.00    +0.191 HD
ENDBRANCH  17  20
ENDBRANCH   1  17
TORSDOF 4
