REMARK  Name = ZINC26781158
REMARK  14 active torsions:
REMARK  status: ('A' for Active; 'I' for Inactive)
REMARK    1  A    between atoms: C_1  and  C_2
REMARK    2  A    between atoms: C_2  and  C_3
REMARK    3  A    between atoms: C_2  and  C_4
REMARK    4  A    between atoms: C_2  and  C_5
REMARK    5  A    between atoms: C_7  and  O_33
REMARK    6  A    between atoms: C_10  and  O_11
REMARK    7  A    between atoms: O_11  and  C_12
REMARK    8  A    between atoms: C_12  and  C_13
REMARK    9  A    between atoms: C_13  and  C_15
REMARK   10  A    between atoms: C_13  and  O_32
REMARK   11  A    between atoms: C_15  and  N_16
REMARK   12  A    between atoms: N_19  and  C_22
REMARK   13  A    between atoms: C_22  and  C_23
REMARK   14  A    between atoms: O_33  and  C_34
REMARK                            x       y       z     vdW  Elec       q    Type
REMARK                         _______ _______ _______ _____ _____    ______ ____
ROOT
ATOM      1  C   UNL     1       9.054  -3.114  -0.940  0.00  0.00    +0.119 C 
ENDROOT
BRANCH   1   2
ATOM      2  N   UNL     1       8.107  -2.696   0.102  0.00  0.00    -0.303 NA
ATOM      3  C   UNL     1       8.396  -1.330   0.559  0.00  0.00    +0.066 C 
ATOM      4  C   UNL     1       7.441  -0.962   1.696  0.00  0.00    -0.063 C 
ATOM      5  N   UNL     1       6.054  -1.074   1.223  0.00  0.00    +0.384 N 
ATOM      6  C   UNL     1       5.765  -2.440   0.767  0.00  0.00    -0.063 C 
ATOM      7  C   UNL     1       6.720  -2.808  -0.371  0.00  0.00    +0.066 C 
ATOM      8  H   UNL     1       5.932  -0.396   0.365  0.00  0.00    -0.081 HD
BRANCH   5   9
ATOM      9  C   UNL     1       5.107  -0.655   2.265  0.00  0.00    -0.043 C 
BRANCH   9  10
ATOM     10  C   UNL     1       3.725  -0.548   1.674  0.00  0.00    -0.060 A 
ATOM     11  C   UNL     1       2.885  -1.646   1.677  0.00  0.00    +0.005 A 
ATOM     12  C   UNL     1       1.617  -1.553   1.135  0.00  0.00    +0.050 A 
ATOM     13  C   UNL     1       1.183  -0.356   0.589  0.00  0.00    +0.166 A 
ATOM     14  C   UNL     1       2.028   0.751   0.586  0.00  0.00    +0.166 A 
ATOM     15  C   UNL     1       3.298   0.650   1.131  0.00  0.00    +0.051 A 
ATOM     16  O   UNL     1       1.376   1.797  -0.001  0.00  0.00    -0.453 OA
ATOM     17  C   UNL     1      -0.018   1.436   0.010  0.00  0.00    +0.466 C 
ATOM     18  O   UNL     1       0.002  -0.004   0.002  0.00  0.00    -0.453 OA
ENDBRANCH   9  10
ENDBRANCH   5   9
ENDBRANCH   1   2
BRANCH   1  19
ATOM     19  C   UNL     1       8.579  -4.428  -1.564  0.00  0.00    +0.166 C 
BRANCH  19  20
ATOM     20  O   UNL     1       8.506  -5.436  -0.553  0.00  0.00    -0.387 OA
ATOM     21  H   UNL     1       7.844  -5.299   0.314  0.00  0.00    +0.210 HD
ENDBRANCH  19  20
BRANCH  19  22
ATOM     22  C   UNL     1       9.565  -4.864  -2.649  0.00  0.00    +0.261 C 
BRANCH  22  23
ATOM     23  O   UNL     1       9.063  -6.027  -3.311  0.00  0.00    -0.489 OA
BRANCH  23  29
ATOM     24  C   UNL     1       9.399  -7.677  -4.990  0.00  0.00    +0.003 A 
ATOM     25  C   UNL     1      10.171  -8.202  -6.008  0.00  0.00    +0.053 A 
ATOM     26  C   UNL     1      11.376  -7.604  -6.344  0.00  0.00    +0.121 A 
ATOM     27  C   UNL     1      11.805  -6.476  -5.660  0.00  0.00    +0.049 A 
ATOM     28  C   UNL     1      11.030  -5.948  -4.645  0.00  0.00    +0.049 A 
ATOM     29  C   UNL     1       9.825  -6.546  -4.310  0.00  0.00    +0.125 A 
BRANCH  24  31
ATOM     30  C   UNL     1       7.861  -9.549  -5.517  0.00  0.00    +0.015 C 
ATOM     31  C   UNL     1       8.092  -8.331  -4.621  0.00  0.00    -0.009 C 
ATOM     32  C   UNL     1       8.138  -8.775  -3.158  0.00  0.00    +0.015 C 
ATOM     33  C   UNL     1       6.950  -7.331  -4.815  0.00  0.00    +0.015 C 
ENDBRANCH  24  31
BRANCH  26  34
ATOM     34  O   UNL     1      12.138  -8.124  -7.343  0.00  0.00    -0.495 OA
ATOM     35  C   UNL     1      13.368  -7.457  -7.635  0.00  0.00    +0.277 C 
ENDBRANCH  26  34
ENDBRANCH  23  29
ENDBRANCH  22  23
ENDBRANCH  19  22
ENDBRANCH   1  19
TORSDOF 10
