REMARK  Name = ZINC63136966
REMARK  8 active torsions:
REMARK  status: ('A' for Active; 'I' for Inactive)
REMARK    1  A    between atoms: C_1  and  C_2
REMARK    2  A    between atoms: C_2  and  C_3
REMARK    3  A    between atoms: C_3  and  C_5
REMARK    4  A    between atoms: C_3  and  N_6
REMARK    5  A    between atoms: C_26  and  C_28
REMARK    6  A    between atoms: C_31  and  C_34
REMARK    7  A    between atoms: C_34  and  C_35
REMARK    8  A    between atoms: C_34  and  C_36
REMARK                            x       y       z     vdW  Elec       q    Type
REMARK                         _______ _______ _______ _____ _____    ______ ____
ROOT
ATOM      1  N   UNL     1      -0.055  -0.114  -2.441  0.00  0.00    -0.288 N 
ATOM      2  C   UNL     1      -1.443  -0.570  -2.640  0.00  0.00    +0.204 C 
ATOM      3  C   UNL     1      -1.589  -1.055  -4.066  0.00  0.00    +0.234 C 
ATOM      4  O   UNL     1      -2.178  -2.082  -4.331  0.00  0.00    -0.274 OA
ATOM      5  N   UNL     1      -1.025  -0.277  -5.048  0.00  0.00    -0.279 N 
ATOM      6  C   UNL     1      -0.426   0.960  -4.592  0.00  0.00    +0.167 C 
ATOM      7  C   UNL     1       0.472   0.689  -3.412  0.00  0.00    +0.237 C 
ATOM      8  O   UNL     1       1.591   1.151  -3.332  0.00  0.00    -0.274 OA
ATOM      9  C   UNL     1       0.224   1.858  -5.613  0.00  0.00    +0.065 C 
ATOM     10  C   UNL     1       0.314   1.147  -6.935  0.00  0.00    -0.034 C 
ATOM     11  C   UNL     1       1.270   1.093  -7.852  0.00  0.00    -0.001 A 
ATOM     12  C   UNL     1       2.586   1.747  -7.936  0.00  0.00    +0.010 A 
ATOM     13  C   UNL     1       3.331   1.458  -9.035  0.00  0.00    +0.001 A 
ATOM     14  C   UNL     1       2.905   0.593 -10.047  0.00  0.00    +0.002 A 
ATOM     15  C   UNL     1       1.709  -0.049 -10.054  0.00  0.00    +0.026 A 
ATOM     16  C   UNL     1       0.835   0.179  -8.951  0.00  0.00    +0.043 A 
ATOM     17  N   UNL     1      -0.352  -0.289  -8.711  0.00  0.00    -0.375 N 
ATOM     18  C   UNL     1      -0.836   0.283  -7.448  0.00  0.00    +0.131 C 
ATOM     19  C   UNL     1      -1.050  -0.803  -6.405  0.00  0.00    +0.133 C 
ATOM     20  H   UNL     1      -0.838  -0.913  -9.272  0.00  0.00    +0.160 HD
ENDROOT
BRANCH  19  21
ATOM     21  C   UNL     1      -2.369  -1.494  -6.638  0.00  0.00    -0.025 A 
ATOM     22  C   UNL     1      -3.536  -0.941  -6.146  0.00  0.00    +0.006 A 
ATOM     23  C   UNL     1      -4.746  -1.575  -6.361  0.00  0.00    +0.004 A 
ATOM     24  C   UNL     1      -4.788  -2.762  -7.068  0.00  0.00    -0.045 A 
ATOM     25  C   UNL     1      -3.621  -3.315  -7.561  0.00  0.00    +0.004 A 
ATOM     26  C   UNL     1      -2.412  -2.679  -7.350  0.00  0.00    +0.006 A 
BRANCH  24  27
ATOM     27  C   UNL     1      -6.106  -3.454  -7.301  0.00  0.00    +0.013 C 
ATOM     28  C   UNL     1      -6.361  -3.573  -8.804  0.00  0.00    +0.012 C 
ATOM     29  C   UNL     1      -6.066  -4.851  -6.678  0.00  0.00    +0.012 C 
ENDBRANCH  24  27
ENDBRANCH  19  21
BRANCH   1  30
ATOM     30  C   UNL     1       0.718  -0.497  -1.257  0.00  0.00    +0.073 C 
ATOM     31  C   UNL     1       0.849  -2.021  -1.205  0.00  0.00    +0.028 C 
BRANCH  30  33
ATOM     32  C   UNL     1      -0.019   1.526   0.010  0.00  0.00    +0.005 C 
ATOM     33  C   UNL     1       0.002  -0.004   0.002  0.00  0.00    +0.019 C 
ENDBRANCH  30  33
ENDBRANCH   1  30
TORSDOF 4
