REMARK  Name = ZINC03977909
REMARK  8 active torsions:
REMARK  status: ('A' for Active; 'I' for Inactive)
REMARK    1  A    between atoms: C_1  and  C_2
REMARK    2  A    between atoms: C_4  and  O_35
REMARK    3  A    between atoms: C_14  and  C_20
REMARK    4  A    between atoms: C_16  and  C_18
REMARK    5  A    between atoms: C_16  and  C_19
REMARK    6  A    between atoms: C_20  and  C_22
REMARK    7  A    between atoms: C_22  and  O_23
REMARK    8  A    between atoms: C_32  and  C_33
REMARK                            x       y       z     vdW  Elec       q    Type
REMARK                         _______ _______ _______ _____ _____    ______ ____
ROOT
ATOM      1  C   UNL     1       0.170   1.590   0.024  0.00  0.00    +0.015 C 
ATOM      2  C   UNL     1       0.094   0.064   0.038  0.00  0.00    +0.012 C 
ATOM      3  C   UNL     1      -1.331  -0.418   0.167  0.00  0.00    +0.044 C 
ATOM      4  C   UNL     1      -1.877  -0.090   1.572  0.00  0.00    +0.154 C 
ATOM      5  C   UNL     1      -1.008  -0.678   2.663  0.00  0.00    +0.153 C 
ATOM      6  C   UNL     1       0.466  -0.260   2.529  0.00  0.00    +0.034 C 
ATOM      7  C   UNL     1       0.946  -0.572   1.152  0.00  0.00    +0.007 C 
ATOM      8  C   UNL     1       2.362  -0.166   0.736  0.00  0.00    +0.039 C 
ATOM      9  C   UNL     1       2.338  -0.465  -0.794  0.00  0.00    +0.162 C 
ATOM     10  C   UNL     1       0.843  -0.415  -1.221  0.00  0.00    +0.164 C 
ATOM     11  O   UNL     1       0.490  -1.764  -1.532  0.00  0.00    -0.332 OA
ATOM     12  C   UNL     1       1.720  -2.473  -1.771  0.00  0.00    +0.166 C 
ATOM     13  O   UNL     1       2.727  -1.839  -0.966  0.00  0.00    -0.343 OA
ATOM     14  C   UNL     1       1.562  -3.941  -1.346  0.00  0.00    +0.074 C 
ATOM     15  C   UNL     1       2.103  -2.415  -3.255  0.00  0.00    +0.074 C 
ATOM     16  C   UNL     1       0.624   1.182   2.986  0.00  0.00    +0.011 C 
ATOM     17  C   UNL     1       0.500   1.198   4.513  0.00  0.00    +0.032 C 
ATOM     18  C   UNL     1      -0.593   0.276   4.981  0.00  0.00    -0.053 C 
ATOM     19  C   UNL     1      -0.777   0.210   6.314  0.00  0.00    +0.051 C 
ATOM     20  C   UNL     1      -1.779  -0.734   6.852  0.00  0.00    +0.179 C 
ATOM     21  O   UNL     1      -2.288  -0.584   7.954  0.00  0.00    -0.288 OA
ATOM     22  C   UNL     1      -2.106  -1.907   6.005  0.00  0.00    +0.047 C 
ATOM     23  C   UNL     1      -1.927  -1.812   4.682  0.00  0.00    -0.009 C 
ATOM     24  C   UNL     1      -1.485  -0.505   4.078  0.00  0.00    +0.044 C 
ATOM     25  C   UNL     1      -2.784   0.301   4.047  0.00  0.00    +0.023 C 
ATOM     26  F   UNL     1      -1.007  -2.080   2.434  0.00  0.00    -0.238 F 
ENDROOT
BRANCH  10  27
ATOM     27  C   UNL     1       0.608   0.535  -2.366  0.00  0.00    +0.193 C 
ATOM     28  O   UNL     1       1.403   1.415  -2.594  0.00  0.00    -0.292 OA
BRANCH  27  29
ATOM     29  C   UNL     1      -0.620   0.389  -3.228  0.00  0.00    +0.233 C 
BRANCH  29  30
ATOM     30  O   UNL     1      -0.678   1.468  -4.163  0.00  0.00    -0.387 OA
ATOM     31  H   UNL     1      -1.445   1.438  -4.751  0.00  0.00    +0.210 HD
ENDBRANCH  29  30
ENDBRANCH  27  29
ENDBRANCH  10  27
BRANCH   4  32
ATOM     32  O   UNL     1      -2.046   1.318   1.678  0.00  0.00    -0.389 OA
ATOM     33  H   UNL     1      -2.661   1.690   1.032  0.00  0.00    +0.210 HD
ENDBRANCH   4  32
TORSDOF 4
