REMARK  Name = ZINC09494679
REMARK  5 active torsions:
REMARK  status: ('A' for Active; 'I' for Inactive)
REMARK    1  A    between atoms: C_1  and  C_2
REMARK    2  A    between atoms: C_2  and  C_10
REMARK    3  A    between atoms: C_3  and  C_4
REMARK    4  A    between atoms: N_16  and  C_17
REMARK    5  A    between atoms: C_22  and  C_23
REMARK                            x       y       z     vdW  Elec       q    Type
REMARK                         _______ _______ _______ _____ _____    ______ ____
ROOT
ATOM      1  C   UNL     1       4.133   5.417  -0.631  0.00  0.00    +0.023 C 
ATOM      2  C   UNL     1       3.560   4.193  -0.440  0.00  0.00    +0.078 C 
ATOM      3  C   UNL     1       4.145   2.851  -0.607  0.00  0.00    +0.256 C 
ATOM      4  O   UNL     1       5.300   2.700  -0.963  0.00  0.00    -0.269 OA
ATOM      5  N   UNL     1       3.360   1.818  -0.351  0.00  0.00    -0.260 N 
ATOM      6  C   UNL     1       2.057   2.009   0.051  0.00  0.00    +0.166 C 
ATOM      7  N   UNL     1       1.150   1.104   0.343  0.00  0.00    -0.225 NA
ATOM      8  S   UNL     1       1.897   3.788   0.073  0.00  0.00    -0.049 S 
ATOM      9  H   UNL     1       3.706   0.917  -0.448  0.00  0.00    +0.157 HD
ENDROOT
BRANCH   7  10
ATOM     10  C   UNL     1       1.488  -0.222   0.359  0.00  0.00    +0.078 A 
ATOM     11  C   UNL     1       2.636  -0.646   1.033  0.00  0.00    +0.028 A 
ATOM     12  C   UNL     1       2.967  -1.984   1.050  0.00  0.00    +0.002 A 
ATOM     13  C   UNL     1       2.171  -2.906   0.392  0.00  0.00    +0.001 A 
ATOM     14  C   UNL     1       1.036  -2.493  -0.283  0.00  0.00    +0.014 A 
ATOM     15  C   UNL     1       0.690  -1.157  -0.303  0.00  0.00    +0.080 A 
BRANCH  15  16
ATOM     16  C   UNL     1      -0.547  -0.709  -1.039  0.00  0.00    +0.419 C 
ATOM     17  F   UNL     1      -1.174  -1.819  -1.617  0.00  0.00    -0.166 F 
ATOM     18  F   UNL     1      -1.425  -0.092  -0.142  0.00  0.00    -0.166 F 
ATOM     19  F   UNL     1      -0.190   0.199  -2.042  0.00  0.00    -0.166 F 
ENDBRANCH  15  16
ENDBRANCH   7  10
BRANCH   1  21
ATOM     20  C   UNL     1       6.507   6.248  -0.398  0.00  0.00    +0.044 C 
ATOM     21  C   UNL     1       5.436   5.510  -1.159  0.00  0.00    -0.049 C 
ATOM     22  C   UNL     1       5.726   4.937  -2.351  0.00  0.00    +0.011 C 
BRANCH  22  23
ATOM     23  C   UNL     1       7.113   4.914  -2.838  0.00  0.00    -0.025 A 
ATOM     24  C   UNL     1       7.378   4.994  -4.210  0.00  0.00    +0.008 A 
ATOM     25  C   UNL     1       8.682   4.977  -4.657  0.00  0.00    +0.001 A 
ATOM     26  C   UNL     1       9.726   4.871  -3.755  0.00  0.00    +0.000 A 
ATOM     27  C   UNL     1       9.472   4.786  -2.397  0.00  0.00    +0.001 A 
ATOM     28  C   UNL     1       8.174   4.807  -1.933  0.00  0.00    +0.008 A 
ENDBRANCH  22  23
ENDBRANCH   1  21
TORSDOF 4
