REMARK  Name = ZINC28293027
REMARK  9 active torsions:
REMARK  status: ('A' for Active; 'I' for Inactive)
REMARK    1  A    between atoms: C_1  and  C_2
REMARK    2  A    between atoms: C_2  and  C_3
REMARK    3  A    between atoms: C_6  and  C_9
REMARK    4  A    between atoms: C_9  and  C_11
REMARK    5  A    between atoms: C_9  and  N_28
REMARK    6  A    between atoms: C_11  and  N_12
REMARK    7  A    between atoms: C_13  and  C_15
REMARK    8  A    between atoms: C_21  and  C_27
REMARK    9  A    between atoms: C_23  and  C_26
REMARK                            x       y       z     vdW  Elec       q    Type
REMARK                         _______ _______ _______ _____ _____    ______ ____
ROOT
ATOM      1  N   UNL     1       6.736  -0.435  -1.268  0.00  0.00    -0.310 N 
ATOM      2  C   UNL     1       7.130   0.829  -1.523  0.00  0.00    +0.279 C 
ATOM      3  O   UNL     1       6.768   1.735  -0.799  0.00  0.00    -0.267 OA
ATOM      4  H   UNL     1       7.064  -1.256  -1.923  0.00  0.00    +0.149 HD
ENDROOT
BRANCH   2   5
ATOM      5  C   UNL     1       8.004   1.113  -2.686  0.00  0.00    +0.193 A 
ATOM      6  C   UNL     1       8.383   2.392  -2.918  0.00  0.00    +0.103 A 
ATOM      7  C   UNL     1       9.250   2.675  -4.072  0.00  0.00    +0.193 A 
ATOM      8  O   UNL     1       9.622   3.807  -4.328  0.00  0.00    -0.287 OA
ATOM      9  C   UNL     1       9.647   1.524  -4.904  0.00  0.00    +0.064 A 
ATOM     10  C   UNL     1      10.467   1.684  -6.020  0.00  0.00    +0.018 A 
ATOM     11  C   UNL     1      10.815   0.593  -6.768  0.00  0.00    -0.049 A 
ATOM     12  C   UNL     1      10.361  -0.671  -6.418  0.00  0.00    +0.010 A 
ATOM     13  C   UNL     1       9.545  -0.848  -5.321  0.00  0.00    -0.007 A 
ATOM     14  C   UNL     1       9.179   0.248  -4.546  0.00  0.00    +0.142 A 
ATOM     15  O   UNL     1       8.387   0.093  -3.467  0.00  0.00    -0.450 OA
ATOM     16  C   UNL     1       9.056  -2.227  -4.959  0.00  0.00    +0.047 C 
ATOM     17  C   UNL     1      11.700   0.763  -7.975  0.00  0.00    +0.044 C 
ENDBRANCH   2   5
BRANCH   1  18
ATOM     18  C   UNL     1       5.873  -0.715  -0.118  0.00  0.00    +0.094 C 
BRANCH  18  19
ATOM     19  C   UNL     1       5.481  -2.195  -0.123  0.00  0.00    -0.020 C 
BRANCH  19  23
ATOM     20  C   UNL     1       8.963  -4.590   0.498  0.00  0.00    -0.048 A 
ATOM     21  C   UNL     1       8.462  -4.418  -0.778  0.00  0.00    +0.004 A 
ATOM     22  C   UNL     1       7.335  -3.643  -0.979  0.00  0.00    +0.002 A 
ATOM     23  C   UNL     1       6.709  -3.040   0.096  0.00  0.00    -0.059 A 
ATOM     24  C   UNL     1       7.214  -3.208   1.372  0.00  0.00    +0.002 A 
ATOM     25  C   UNL     1       8.338  -3.987   1.574  0.00  0.00    +0.004 A 
BRANCH  20  27
ATOM     26  C   UNL     1      11.439  -4.554   0.623  0.00  0.00    +0.009 C 
ATOM     27  C   UNL     1      10.192  -5.434   0.718  0.00  0.00    +0.032 C 
ENDBRANCH  20  27
ENDBRANCH  19  23
BRANCH  19  28
ATOM     28  N   UNL     1       4.513  -2.449   0.952  0.00  0.00    +0.385 N 
ATOM     29  C   UNL     1       3.299  -1.610   0.784  0.00  0.00    -0.078 C 
ATOM     30  C   UNL     1       2.234  -2.356   1.627  0.00  0.00    -0.020 C 
ATOM     31  C   UNL     1       2.571  -3.843   1.373  0.00  0.00    -0.020 C 
ATOM     32  C   UNL     1       4.043  -3.850   0.921  0.00  0.00    -0.078 C 
ATOM     33  H   UNL     1       5.041  -2.221   1.890  0.00  0.00    -0.081 HD
ENDBRANCH  19  28
ENDBRANCH  18  19
ENDBRANCH   1  18
TORSDOF 6
