REMARK  Name = ZINC40386880
REMARK  10 active torsions:
REMARK  status: ('A' for Active; 'I' for Inactive)
REMARK    1  A    between atoms: C_1  and  N_2
REMARK    2  A    between atoms: N_2  and  C_3
REMARK    3  A    between atoms: N_2  and  C_4
REMARK    4  A    between atoms: C_4  and  C_5
REMARK    5  A    between atoms: C_5  and  N_6
REMARK    6  A    between atoms: C_14  and  C_30
REMARK    7  A    between atoms: C_16  and  N_29
REMARK    8  A    between atoms: N_17  and  C_21
REMARK    9  A    between atoms: C_24  and  O_27
REMARK   10  A    between atoms: O_27  and  C_28
REMARK                            x       y       z     vdW  Elec       q    Type
REMARK                         _______ _______ _______ _____ _____    ______ ____
ROOT
ATOM      1  N   UNL     1      -3.335   0.836  -1.282  0.00  0.00    -0.301 NA
ATOM      2  C   UNL     1      -4.259   1.124  -0.177  0.00  0.00    +0.103 C 
ATOM      3  C   UNL     1      -5.413   0.116  -0.205  0.00  0.00    +0.123 C 
ATOM      4  N   UNL     1      -6.020   0.138  -1.544  0.00  0.00    -0.297 N 
ATOM      5  C   UNL     1      -5.136  -0.007  -2.711  0.00  0.00    +0.123 C 
ATOM      6  C   UNL     1      -3.993   1.006  -2.585  0.00  0.00    +0.103 C 
ATOM      7  C   UNL     1      -7.386   0.290  -1.703  0.00  0.00    +0.220 A 
ATOM      8  N   UNL     1      -7.878   0.297  -2.938  0.00  0.00    -0.214 NA
ATOM      9  C   UNL     1      -9.175   0.437  -3.180  0.00  0.00    +0.089 A 
ATOM     10  C   UNL     1     -10.049   0.583  -2.079  0.00  0.00    +0.086 A 
ATOM     11  C   UNL     1     -11.419   0.748  -1.911  0.00  0.00    +0.131 A 
ATOM     12  N   UNL     1     -11.657   0.830  -0.588  0.00  0.00    -0.216 N 
ATOM     13  N   UNL     1     -10.455   0.719   0.121  0.00  0.00    -0.144 NA
ATOM     14  C   UNL     1      -9.461   0.570  -0.727  0.00  0.00    +0.189 A 
ATOM     15  N   UNL     1      -8.128   0.415  -0.622  0.00  0.00    -0.193 NA
ENDROOT
BRANCH   9  16
ATOM     16  C   UNL     1      -9.693   0.441  -4.567  0.00  0.00    +0.004 A 
ATOM     17  C   UNL     1     -10.611   1.412  -4.969  0.00  0.00    +0.010 A 
ATOM     18  C   UNL     1     -11.091   1.412  -6.262  0.00  0.00    +0.003 A 
ATOM     19  C   UNL     1     -10.665   0.451  -7.161  0.00  0.00    +0.038 A 
ATOM     20  C   UNL     1      -9.754  -0.517  -6.769  0.00  0.00    +0.124 A 
ATOM     21  C   UNL     1      -9.261  -0.522  -5.478  0.00  0.00    +0.048 A 
ATOM     22  F   UNL     1      -9.342  -1.453  -7.652  0.00  0.00    -0.205 F 
ENDBRANCH   9  16
BRANCH  12  23
ATOM     23  C   UNL     1     -12.921   1.000  -0.007  0.00  0.00    +0.068 A 
ATOM     24  C   UNL     1     -13.880   1.776  -0.645  0.00  0.00    +0.031 A 
ATOM     25  C   UNL     1     -15.125   1.943  -0.072  0.00  0.00    +0.048 A 
ATOM     26  C   UNL     1     -15.418   1.337   1.141  0.00  0.00    +0.120 A 
ATOM     27  C   UNL     1     -14.460   0.562   1.779  0.00  0.00    +0.048 A 
ATOM     28  C   UNL     1     -13.217   0.389   1.205  0.00  0.00    +0.031 A 
BRANCH  26  29
ATOM     29  O   UNL     1     -16.644   1.503   1.705  0.00  0.00    -0.495 OA
ATOM     30  C   UNL     1     -16.877   0.850   2.955  0.00  0.00    +0.277 C 
ENDBRANCH  26  29
ENDBRANCH  12  23
BRANCH  11  31
ATOM     31  N   UNL     1     -12.364   0.817  -2.917  0.00  0.00    -0.342 N 
ATOM     32  H   UNL     1     -12.118   0.597  -3.830  0.00  0.00    +0.144 HD
ATOM     33  H   UNL     1     -13.273   1.085  -2.712  0.00  0.00    +0.144 HD
ENDBRANCH  11  31
BRANCH   1  34
ATOM     34  C   UNL     1      -2.128   1.669  -1.190  0.00  0.00    +0.066 C 
BRANCH  34  35
ATOM     35  C   UNL     1      -1.339   1.285   0.064  0.00  0.00    -0.064 C 
BRANCH  35  37
ATOM     36  C   UNL     1      -0.519   3.521   0.355  0.00  0.00    -0.097 C 
ATOM     37  N   UNL     1      -0.132   2.118   0.156  0.00  0.00    +0.377 N 
ATOM     38  C   UNL     1       0.686   1.670   1.291  0.00  0.00    -0.097 C 
ATOM     39  H   UNL     1       0.401   2.033  -0.697  0.00  0.00    -0.083 HD
ENDBRANCH  35  37
ENDBRANCH  34  35
ENDBRANCH   1  34
TORSDOF 7
