REMARK  Name = ZINC66631209
REMARK  12 active torsions:
REMARK  status: ('A' for Active; 'I' for Inactive)
REMARK    1  A    between atoms: C_1  and  C_2
REMARK    2  A    between atoms: C_2  and  C_4
REMARK    3  A    between atoms: C_2  and  N_18
REMARK    4  A    between atoms: C_4  and  C_5
REMARK    5  A    between atoms: N_7  and  C_8
REMARK    6  A    between atoms: C_8  and  C_10
REMARK    7  A    between atoms: C_8  and  C_11
REMARK    8  A    between atoms: N_13  and  C_14
REMARK    9  A    between atoms: C_14  and  C_15
REMARK   10  A    between atoms: C_14  and  C_16
REMARK   11  A    between atoms: C_14  and  C_17
REMARK   12  A    between atoms: C_19  and  C_21
REMARK                            x       y       z     vdW  Elec       q    Type
REMARK                         _______ _______ _______ _____ _____    ______ ____
ROOT
ATOM      1  C   UNL     1      -1.416  -2.035  -0.119  0.00  0.00    +0.215 C 
ATOM      2  O   UNL     1      -0.359  -2.623  -0.213  0.00  0.00    -0.276 OA
ATOM      3  N   UNL     1      -2.574  -2.724  -0.133  0.00  0.00    -0.304 N 
ATOM      4  H   UNL     1      -3.419  -2.253  -0.058  0.00  0.00    +0.149 HD
ENDROOT
BRANCH   3   5
ATOM      5  C   UNL     1      -2.558  -4.183  -0.262  0.00  0.00    +0.156 C 
ATOM      6  C   UNL     1      -2.369  -4.814   1.119  0.00  0.00    +0.038 C 
BRANCH   5   7
ATOM      7  C   UNL     1      -3.862  -4.650  -0.854  0.00  0.00    +0.233 C 
ATOM      8  O   UNL     1      -4.721  -3.844  -1.140  0.00  0.00    -0.274 OA
ATOM      9  N   UNL     1      -4.074  -5.964  -1.065  0.00  0.00    -0.309 N 
ATOM     10  H   UNL     1      -3.387  -6.609  -0.836  0.00  0.00    +0.149 HD
BRANCH   9  11
ATOM     11  C   UNL     1      -5.342  -6.418  -1.641  0.00  0.00    +0.026 C 
ATOM     12  C   UNL     1      -5.531  -5.787  -3.021  0.00  0.00    +0.031 C 
ATOM     13  C   UNL     1      -5.324  -7.942  -1.775  0.00  0.00    +0.031 C 
ATOM     14  C   UNL     1      -6.496  -6.000  -0.727  0.00  0.00    +0.031 C 
ENDBRANCH   9  11
ENDBRANCH   5   7
ENDBRANCH   3   5
BRANCH   1  15
ATOM     15  C   UNL     1      -1.433  -0.534   0.013  0.00  0.00    +0.117 C 
BRANCH  15  17
ATOM     16  C   UNL     1      -0.019   1.526   0.010  0.00  0.00    +0.028 C 
ATOM     17  C   UNL     1       0.002  -0.004   0.002  0.00  0.00    +0.079 C 
BRANCH  17  18
ATOM     18  N   UNL     1       0.711  -0.489   1.189  0.00  0.00    -0.312 N 
ATOM     19  C   UNL     1       2.054  -0.600   1.174  0.00  0.00    +0.216 C 
ATOM     20  O   UNL     1       2.676  -0.297   0.177  0.00  0.00    -0.276 OA
ATOM     21  H   UNL     1       0.213  -0.731   1.986  0.00  0.00    +0.149 HD
BRANCH  19  22
ATOM     22  C   UNL     1       2.783  -1.099   2.395  0.00  0.00    +0.075 C 
ATOM     23  C   UNL     1       2.502  -0.165   3.574  0.00  0.00    +0.013 C 
ATOM     24  C   UNL     1       3.242  -0.672   4.813  0.00  0.00    +0.001 C 
ATOM     25  C   UNL     1       4.746  -0.702   4.533  0.00  0.00    +0.000 C 
ATOM     26  C   UNL     1       5.026  -1.635   3.354  0.00  0.00    +0.001 C 
ATOM     27  C   UNL     1       4.287  -1.129   2.114  0.00  0.00    +0.013 C 
ENDBRANCH  19  22
ENDBRANCH  17  18
ENDBRANCH  15  17
ENDBRANCH   1  15
TORSDOF 7
