REMARK  Name = ZINC01126701
REMARK  13 active torsions:
REMARK  status: ('A' for Active; 'I' for Inactive)
REMARK    1  A    between atoms: C_1  and  C_2
REMARK    2  A    between atoms: C_2  and  O_3
REMARK    3  A    between atoms: O_3  and  C_4
REMARK    4  A    between atoms: C_6  and  C_18
REMARK    5  A    between atoms: C_9  and  O_10
REMARK    6  A    between atoms: O_10  and  C_11
REMARK    7  A    between atoms: C_11  and  C_12
REMARK    8  A    between atoms: C_12  and  O_14
REMARK    9  A    between atoms: O_14  and  C_15
REMARK   10  A    between atoms: C_15  and  C_16
REMARK   11  A    between atoms: C_20  and  C_27
REMARK   12  A    between atoms: C_21  and  C_26
REMARK   13  A    between atoms: C_27  and  C_29
REMARK                            x       y       z     vdW  Elec       q    Type
REMARK                         _______ _______ _______ _____ _____    ______ ____
ROOT
ATOM      1  C   UNL     1       0.991  -0.452   5.997  0.00  0.00    +0.163 A 
ATOM      2  C   UNL     1       0.679   0.685   5.270  0.00  0.00    +0.055 A 
ATOM      3  C   UNL     1      -0.375   0.666   4.376  0.00  0.00    -0.018 A 
ATOM      4  C   UNL     1      -1.113  -0.489   4.196  0.00  0.00    +0.024 A 
ATOM      5  C   UNL     1      -0.804  -1.629   4.915  0.00  0.00    +0.059 A 
ATOM      6  C   UNL     1       0.248  -1.615   5.817  0.00  0.00    +0.176 A 
ATOM      7  I   UNL     1      -1.925  -3.377   4.640  0.00  0.00    -0.040 I 
ENDROOT
BRANCH   3   8
ATOM      8  C   UNL     1      -0.716   1.906   3.590  0.00  0.00    +0.138 C 
ATOM      9  C   UNL     1      -0.173   1.733   2.185  0.00  0.00    +0.036 C 
ATOM     10  C   UNL     1      -1.053   1.808   1.156  0.00  0.00    +0.015 C 
ATOM     11  N   UNL     1      -2.377   2.036   1.379  0.00  0.00    -0.300 N 
ATOM     12  C   UNL     1      -2.910   2.190   2.598  0.00  0.00    +0.135 C 
ATOM     13  S   UNL     1      -4.594   2.465   2.735  0.00  0.00    -0.019 S 
ATOM     14  N   UNL     1      -2.164   2.143   3.719  0.00  0.00    -0.315 N 
ATOM     15  C   UNL     1      -0.557   1.642  -0.257  0.00  0.00    +0.061 C 
ATOM     16  H   UNL     1      -2.968   2.086   0.612  0.00  0.00    +0.154 HD
ATOM     17  H   UNL     1      -2.571   2.261   4.592  0.00  0.00    +0.149 HD
BRANCH   9  18
ATOM     18  C   UNL     1       1.194   1.504   1.958  0.00  0.00    +0.160 C 
ATOM     19  O   UNL     1       1.564   0.438   1.508  0.00  0.00    -0.293 OA
ATOM     20  C   UNL     1       2.201   2.580   2.272  0.00  0.00    +0.091 C 
ENDBRANCH   9  18
ENDBRANCH   3   8
BRANCH   1  21
ATOM     21  O   UNL     1       2.024  -0.434   6.881  0.00  0.00    -0.489 OA
BRANCH  21  23
ATOM     22  C   UNL     1       3.859   0.623   8.046  0.00  0.00    +0.048 C 
ATOM     23  C   UNL     1       2.742   0.795   7.015  0.00  0.00    +0.226 C 
ENDBRANCH  21  23
ENDBRANCH   1  21
BRANCH   6  24
ATOM     24  O   UNL     1       0.554  -2.736   6.525  0.00  0.00    -0.476 OA
BRANCH  24  25
ATOM     25  C   UNL     1       1.496  -3.636   5.939  0.00  0.00    +0.349 C 
BRANCH  25  26
ATOM     26  C   UNL     1       1.709  -4.810   6.860  0.00  0.00    +0.345 C 
ATOM     27  O   UNL     1       1.114  -4.870   7.910  0.00  0.00    -0.247 OA
BRANCH  26  28
ATOM     28  O   UNL     1       2.559  -5.790   6.513  0.00  0.00    -0.463 OA
BRANCH  28  29
ATOM     29  C   UNL     1       2.713  -6.889   7.449  0.00  0.00    +0.229 C 
ATOM     30  C   UNL     1       3.715  -7.900   6.886  0.00  0.00    +0.048 C 
ENDBRANCH  28  29
ENDBRANCH  26  28
ENDBRANCH  25  26
ENDBRANCH  24  25
ENDBRANCH   6  24
TORSDOF 9
