REMARK  Name = ZINC38651433
REMARK  8 active torsions:
REMARK  status: ('A' for Active; 'I' for Inactive)
REMARK    1  A    between atoms: C_3  and  O_8
REMARK    2  A    between atoms: O_8  and  C_9
REMARK    3  A    between atoms: C_9  and  C_10
REMARK    4  A    between atoms: C_10  and  O_12
REMARK    5  A    between atoms: O_12  and  C_13
REMARK    6  A    between atoms: C_20  and  N_33
REMARK    7  A    between atoms: C_21  and  C_31
REMARK    8  A    between atoms: C_22  and  C_24
REMARK                            x       y       z     vdW  Elec       q    Type
REMARK                         _______ _______ _______ _____ _____    ______ ____
ROOT
ATOM      1  C   UNL     1       8.284   2.582  -0.099  0.00  0.00    +0.135 A 
ATOM      2  C   UNL     1       8.140   3.961  -0.047  0.00  0.00    +0.047 A 
ATOM      3  C   UNL     1       9.256   4.774  -0.088  0.00  0.00    +0.012 A 
ATOM      4  C   UNL     1      10.520   4.219  -0.181  0.00  0.00    +0.008 A 
ATOM      5  C   UNL     1      10.670   2.842  -0.233  0.00  0.00    +0.138 A 
ATOM      6  C   UNL     1       9.549   2.023  -0.185  0.00  0.00    +0.093 A 
ATOM      7  O   UNL     1      11.900   2.279  -0.324  0.00  0.00    -0.441 OA
ATOM      8  C   UNL     1      12.943   3.012  -0.746  0.00  0.00    +0.199 C 
ATOM      9  C   UNL     1      12.922   4.366  -0.726  0.00  0.00    +0.098 C 
ATOM     10  C   UNL     1      11.724   5.122  -0.225  0.00  0.00    +0.098 C 
ENDROOT
BRANCH  10  11
ATOM     11  C   UNL     1      12.006   5.644   1.160  0.00  0.00    -0.035 A 
ATOM     12  C   UNL     1      12.290   4.763   2.187  0.00  0.00    +0.006 A 
ATOM     13  C   UNL     1      12.549   5.242   3.457  0.00  0.00    +0.020 A 
ATOM     14  C   UNL     1      12.524   6.603   3.702  0.00  0.00    +0.041 A 
ATOM     15  C   UNL     1      12.240   7.485   2.674  0.00  0.00    +0.020 A 
ATOM     16  C   UNL     1      11.987   7.005   1.403  0.00  0.00    +0.006 A 
ATOM     17 CL   UNL     1      12.849   7.205   5.297  0.00  0.00    -0.084 Cl
ENDBRANCH  10  11
BRANCH   8  18
ATOM     18  N   UNL     1      14.063   2.371  -1.213  0.00  0.00    -0.328 N 
ATOM     19  H   UNL     1      14.093   1.401  -1.233  0.00  0.00    +0.145 HD
ATOM     20  H   UNL     1      14.824   2.886  -1.521  0.00  0.00    +0.145 HD
ENDBRANCH   8  18
BRANCH   9  21
ATOM     21  C   UNL     1      14.066   5.093  -1.190  0.00  0.00    +0.101 C 
ATOM     22  N   UNL     1      14.973   5.669  -1.558  0.00  0.00    -0.191 NA
ENDBRANCH   9  21
BRANCH   1  23
ATOM     23  O   UNL     1       7.187   1.781  -0.058  0.00  0.00    -0.423 OA
BRANCH  23  24
ATOM     24  C   UNL     1       6.455   1.657  -1.177  0.00  0.00    +0.350 C 
ATOM     25  O   UNL     1       6.727   2.317  -2.152  0.00  0.00    -0.247 OA
BRANCH  24  26
ATOM     26  C   UNL     1       5.295   0.696  -1.216  0.00  0.00    +0.349 C 
BRANCH  26  27
ATOM     27  O   UNL     1       4.680   0.745  -2.505  0.00  0.00    -0.481 OA
BRANCH  27  30
ATOM     28  C   UNL     1       1.877  -0.899  -4.142  0.00  0.00    +0.005 A 
ATOM     29  C   UNL     1       2.964  -0.071  -3.937  0.00  0.00    +0.046 A 
ATOM     30  C   UNL     1       3.610  -0.068  -2.709  0.00  0.00    +0.123 A 
ATOM     31  C   UNL     1       3.162  -0.896  -1.690  0.00  0.00    +0.065 A 
ATOM     32  C   UNL     1       2.074  -1.722  -1.900  0.00  0.00    +0.044 A 
ATOM     33  C   UNL     1       1.432  -1.723  -3.126  0.00  0.00    +0.020 A 
ATOM     34 CL   UNL     1       1.513  -2.759  -0.626  0.00  0.00    -0.083 Cl
ENDBRANCH  27  30
ENDBRANCH  26  27
ENDBRANCH  24  26
ENDBRANCH  23  24
ENDBRANCH   1  23
TORSDOF 8
