REMARK  Name = ZINC38894165
REMARK  8 active torsions:
REMARK  status: ('A' for Active; 'I' for Inactive)
REMARK    1  A    between atoms: N_9  and  C_10
REMARK    2  A    between atoms: C_10  and  C_11
REMARK    3  A    between atoms: C_11  and  C_12
REMARK    4  A    between atoms: C_12  and  N_13
REMARK    5  A    between atoms: C_14  and  C_16
REMARK    6  A    between atoms: N_21  and  C_23
REMARK    7  A    between atoms: C_23  and  C_24
REMARK    8  A    between atoms: C_26  and  C_29
REMARK                            x       y       z     vdW  Elec       q    Type
REMARK                         _______ _______ _______ _____ _____    ______ ____
ROOT
ATOM      1  C   UNL     1       9.118   0.817   4.406  0.00  0.00    +0.058 C 
ATOM      2  C   UNL     1       9.001  -0.531   5.123  0.00  0.00    +0.009 C 
ATOM      3  C   UNL     1       9.579  -0.399   6.535  0.00  0.00    -0.018 C 
ATOM      4  C   UNL     1      11.027   0.086   6.444  0.00  0.00    -0.078 C 
ATOM      5  N   UNL     1      11.069   1.391   5.773  0.00  0.00    +0.386 N 
ATOM      6  C   UNL     1      10.583   1.258   4.394  0.00  0.00    -0.065 C 
ATOM      7  H   UNL     1      10.484   2.044   6.273  0.00  0.00    -0.081 HD
ENDROOT
BRANCH   1   9
ATOM      8  N   UNL     1       7.352   0.295   2.754  0.00  0.00    -0.315 N 
ATOM      9  C   UNL     1       8.622   0.678   2.990  0.00  0.00    +0.214 C 
ATOM     10  O   UNL     1       9.367   0.911   2.061  0.00  0.00    -0.276 OA
ATOM     11  H   UNL     1       6.756   0.109   3.497  0.00  0.00    +0.149 HD
BRANCH   8  12
ATOM     12  C   UNL     1       6.870   0.160   1.377  0.00  0.00    +0.105 C 
BRANCH  12  13
ATOM     13  C   UNL     1       5.406  -0.283   1.390  0.00  0.00    +0.037 C 
BRANCH  13  14
ATOM     14  C   UNL     1       4.903  -0.424  -0.048  0.00  0.00    +0.106 C 
BRANCH  14  23
ATOM     15  C   UNL     1      -0.017   1.378   0.010  0.00  0.00    +0.000 A 
ATOM     16  C   UNL     1       1.174   2.082   0.002  0.00  0.00    +0.002 A 
ATOM     17  C   UNL     1       2.377   1.411  -0.013  0.00  0.00    +0.023 A 
ATOM     18  C   UNL     1       2.405   0.014  -0.021  0.00  0.00    +0.033 A 
ATOM     19  C   UNL     1       1.206  -0.682  -0.013  0.00  0.00    -0.025 A 
ATOM     20  C   UNL     1       0.002  -0.004   0.002  0.00  0.00    +0.005 A 
ATOM     21  C   UNL     1       1.510  -2.163  -0.023  0.00  0.00    +0.056 C 
ATOM     22  C   UNL     1       3.046  -2.241  -0.038  0.00  0.00    +0.110 C 
ATOM     23  N   UNL     1       3.501  -0.849  -0.036  0.00  0.00    -0.329 N 
ENDBRANCH  14  23
ENDBRANCH  13  14
ENDBRANCH  12  13
ENDBRANCH   8  12
ENDBRANCH   1   9
BRANCH   5  24
ATOM     24  C   UNL     1      12.451   1.888   5.758  0.00  0.00    +0.022 C 
BRANCH  24  25
ATOM     25  C   UNL     1      12.906   2.151   7.170  0.00  0.00    +0.211 A 
ATOM     26  N   UNL     1      13.498   1.294   7.951  0.00  0.00    -0.193 NA
ATOM     27  C   UNL     1      13.764   1.861   9.141  0.00  0.00    +0.202 A 
ATOM     28  N   UNL     1      13.335   3.099   9.120  0.00  0.00    -0.056 NA
ATOM     29  O   UNL     1      12.774   3.308   7.832  0.00  0.00    -0.340 OA
BRANCH  27  30
ATOM     30  C   UNL     1      14.431   1.197  10.288  0.00  0.00    +0.023 A 
ATOM     31  C   UNL     1      14.847  -0.129  10.181  0.00  0.00    +0.014 A 
ATOM     32  C   UNL     1      15.467  -0.743  11.249  0.00  0.00    +0.039 A 
ATOM     33  C   UNL     1      15.678  -0.044  12.427  0.00  0.00    +0.123 A 
ATOM     34  C   UNL     1      15.265   1.274  12.537  0.00  0.00    +0.039 A 
ATOM     35  C   UNL     1      14.649   1.898  11.472  0.00  0.00    +0.014 A 
ATOM     36  F   UNL     1      16.286  -0.649  13.470  0.00  0.00    -0.205 F 
ENDBRANCH  27  30
ENDBRANCH  24  25
ENDBRANCH   5  24
TORSDOF 8
