REMARK  Name = ZINC02193453
REMARK  11 active torsions:
REMARK  status: ('A' for Active; 'I' for Inactive)
REMARK    1  A    between atoms: C_1  and  C_2
REMARK    2  A    between atoms: C_2  and  C_3
REMARK    3  A    between atoms: C_3  and  C_4
REMARK    4  A    between atoms: N_17  and  C_18
REMARK    5  A    between atoms: C_18  and  C_19
REMARK    6  A    between atoms: C_19  and  C_20
REMARK    7  A    between atoms: C_20  and  N_59
REMARK    8  A    between atoms: C_21  and  N_59
REMARK    9  A    between atoms: C_22  and  N_59
REMARK   10  A    between atoms: C_24  and  C_27
REMARK   11  A    between atoms: C_24  and  C_28
REMARK                            x       y       z     vdW  Elec       q    Type
REMARK                         _______ _______ _______ _____ _____    ______ ____
ROOT
ATOM      1  C   UNL     1       0.975   1.832   3.009  0.00  0.00    +0.113 A 
ATOM      2  N   UNL     1       1.634   1.452   4.058  0.00  0.00    -0.232 NA
ATOM      3  C   UNL     1       1.374   0.270   4.688  0.00  0.00    +0.094 A 
ATOM      4  C   UNL     1       2.044  -0.277   5.880  0.00  0.00    +0.034 A 
ATOM      5  C   UNL     1       3.096   0.302   6.625  0.00  0.00    +0.020 A 
ATOM      6  C   UNL     1       3.599  -0.370   7.721  0.00  0.00    +0.000 A 
ATOM      7  C   UNL     1       3.071  -1.597   8.084  0.00  0.00    +0.051 A 
ATOM      8  N   UNL     1       2.086  -2.132   7.381  0.00  0.00    -0.244 NA
ATOM      9  C   UNL     1       1.579  -1.528   6.329  0.00  0.00    +0.111 A 
ATOM     10  S   UNL     1       0.287  -1.946   5.184  0.00  0.00    -0.062 S 
ATOM     11  C   UNL     1       0.359  -0.513   4.144  0.00  0.00    +0.105 A 
ATOM     12  C   UNL     1      -0.354  -0.093   3.013  0.00  0.00    +0.269 A 
ATOM     13  O   UNL     1      -1.246  -0.779   2.543  0.00  0.00    -0.266 OA
ATOM     14  N   UNL     1      -0.020   1.094   2.454  0.00  0.00    -0.296 N 
ATOM     15  C   UNL     1       3.594  -2.351   9.281  0.00  0.00    +0.090 C 
ATOM     16  C   UNL     1       4.959  -1.794   9.688  0.00  0.00    +0.070 C 
ATOM     17  O   UNL     1       4.860  -0.368   9.772  0.00  0.00    -0.369 OA
ATOM     18  C   UNL     1       4.725   0.262   8.499  0.00  0.00    +0.197 C 
ATOM     19  C   UNL     1       5.361  -2.363  11.050  0.00  0.00    +0.041 C 
ATOM     20  C   UNL     1       6.005  -2.180   8.640  0.00  0.00    +0.041 C 
ENDROOT
BRANCH   1  21
ATOM     21  C   UNL     1       1.329   3.153   2.376  0.00  0.00    +0.074 C 
BRANCH  21  23
ATOM     22  C   UNL     1       2.828   5.147   2.520  0.00  0.00    +0.004 C 
ATOM     23  C   UNL     1       2.468   3.805   3.162  0.00  0.00    +0.004 C 
ENDBRANCH  21  23
ENDBRANCH   1  21
BRANCH  14  24
ATOM     24  C   UNL     1      -0.729   1.579   1.267  0.00  0.00    +0.125 C 
BRANCH  24  25
ATOM     25  C   UNL     1      -0.013   1.086   0.008  0.00  0.00    +0.003 C 
BRANCH  25  26
ATOM     26  C   UNL     1      -0.753   1.593  -1.232  0.00  0.00    -0.078 C 
BRANCH  26  29
ATOM     27  C   UNL     1      -0.150  -0.343  -2.555  0.00  0.00    -0.097 C 
ATOM     28  C   UNL     1      -0.600   1.774  -3.641  0.00  0.00    -0.097 C 
ATOM     29  N   UNL     1      -0.037   1.126  -2.438  0.00  0.00    +0.376 N 
ATOM     30  H   UNL     1       0.955   1.379  -2.356  0.00  0.00    -0.083 HD
ENDBRANCH  26  29
ENDBRANCH  25  26
ENDBRANCH  24  25
ENDBRANCH  14  24
TORSDOF 6
