REMARK  Name = ZINC40858568
REMARK  5 active torsions:
REMARK  status: ('A' for Active; 'I' for Inactive)
REMARK    1  A    between atoms: C_6  and  O_7
REMARK    2  A    between atoms: O_7  and  C_8
REMARK    3  A    between atoms: C_8  and  C_9
REMARK    4  A    between atoms: N_11  and  C_12
REMARK    5  A    between atoms: C_15  and  N_19
REMARK                            x       y       z     vdW  Elec       q    Type
REMARK                         _______ _______ _______ _____ _____    ______ ____
ROOT
ATOM      1  C   UNL     1      -2.454  -2.722   0.006  0.00  0.00    +0.255 C 
ATOM      2  O   UNL     1      -3.427  -1.998   0.023  0.00  0.00    -0.272 OA
ATOM      3  N   UNL     1      -2.611  -4.061   0.006  0.00  0.00    -0.282 N 
ATOM      4  H   UNL     1      -1.837  -4.640  -0.073  0.00  0.00    +0.155 HD
ENDROOT
BRANCH   3   5
ATOM      5  C   UNL     1      -3.891  -4.615   0.122  0.00  0.00    +0.048 A 
ATOM      6  C   UNL     1      -4.981  -3.977  -0.455  0.00  0.00    +0.026 A 
ATOM      7  C   UNL     1      -6.242  -4.527  -0.340  0.00  0.00    +0.034 A 
ATOM      8  C   UNL     1      -6.422  -5.712   0.350  0.00  0.00    +0.127 A 
ATOM      9  C   UNL     1      -5.339  -6.351   0.926  0.00  0.00    +0.049 A 
ATOM     10  C   UNL     1      -4.073  -5.809   0.809  0.00  0.00    +0.041 A 
ATOM     11 BR   UNL     1      -2.592  -6.687   1.590  0.00  0.00    -0.048 Br
BRANCH   8  12
ATOM     12  N   UNL     1      -7.776  -6.297   0.473  0.00  0.00    +0.056 N 
ATOM     13  O   UNL     1      -8.723  -5.739  -0.030  0.00  0.00    -0.126 OA
ATOM     14  O   UNL     1      -7.934  -7.333   1.075  0.00  0.00    -0.126 OA
ENDBRANCH   8  12
ENDBRANCH   3   5
BRANCH   1  15
ATOM     15  C   UNL     1      -1.071  -2.126  -0.016  0.00  0.00    +0.324 C 
BRANCH  15  16
ATOM     16  O   UNL     1      -1.167  -0.700  -0.012  0.00  0.00    -0.483 OA
BRANCH  16  22
ATOM     17  C   UNL     1      -0.019   1.384  -0.028  0.00  0.00    +0.047 A 
ATOM     18  C   UNL     1       1.168   2.091  -0.046  0.00  0.00    +0.019 A 
ATOM     19  C   UNL     1       2.375   1.416  -0.067  0.00  0.00    +0.018 A 
ATOM     20  C   UNL     1       2.397   0.032  -0.070  0.00  0.00    +0.019 A 
ATOM     21  C   UNL     1       1.212  -0.678  -0.052  0.00  0.00    +0.047 A 
ATOM     22  C   UNL     1       0.000  -0.003  -0.030  0.00  0.00    +0.121 A 
ATOM     23 BR   UNL     1       3.998   2.385  -0.093  0.00  0.00    -0.050 Br
ENDBRANCH  16  22
ENDBRANCH  15  16
ENDBRANCH   1  15
TORSDOF 5
