REMARK  Name = ZINC34859868
REMARK  18 active torsions:
REMARK  status: ('A' for Active; 'I' for Inactive)
REMARK    1  A    between atoms: C_1  and  C_2
REMARK    2  A    between atoms: C_7  and  C_8
REMARK    3  A    between atoms: N_10  and  C_11
REMARK    4  A    between atoms: C_11  and  C_13
REMARK    5  A    between atoms: C_11  and  C_16
REMARK    6  A    between atoms: C_13  and  C_14
REMARK    7  A    between atoms: C_13  and  C_15
REMARK    8  A    between atoms: N_18  and  C_19
REMARK    9  A    between atoms: C_19  and  C_20
REMARK   10  A    between atoms: C_20  and  C_22
REMARK   11  A    between atoms: C_20  and  N_23
REMARK   12  A    between atoms: C_24  and  C_26
REMARK   13  A    between atoms: C_26  and  C_28
REMARK   14  A    between atoms: C_26  and  N_31
REMARK   15  A    between atoms: C_28  and  C_29
REMARK   16  A    between atoms: C_28  and  C_30
REMARK   17  A    between atoms: C_32  and  C_34
REMARK   18  A    between atoms: C_39  and  C_40
REMARK                            x       y       z     vdW  Elec       q    Type
REMARK                         _______ _______ _______ _____ _____    ______ ____
ROOT
ATOM      1  C   UNL     1       4.725   1.036   8.269  0.00  0.00    +0.087 C 
ATOM      2  C   UNL     1       6.106   0.627   8.785  0.00  0.00    +0.029 C 
ENDROOT
BRANCH   1   3
ATOM      3  N   UNL     1       4.814   2.347   7.621  0.00  0.00    -0.310 N 
ATOM      4  C   UNL     1       4.728   3.471   8.359  0.00  0.00    +0.234 C 
ATOM      5  O   UNL     1       4.676   3.399   9.569  0.00  0.00    -0.274 OA
ATOM      6  H   UNL     1       4.935   2.405   6.660  0.00  0.00    +0.149 HD
BRANCH   4   7
ATOM      7  C   UNL     1       4.698   4.817   7.682  0.00  0.00    +0.162 C 
BRANCH   7   8
ATOM      8  N   UNL     1       5.291   5.822   8.567  0.00  0.00    -0.300 N 
ATOM      9  C   UNL     1       5.833   6.941   8.048  0.00  0.00    +0.245 C 
ATOM     10  O   UNL     1       5.830   7.116   6.845  0.00  0.00    -0.270 OA
ATOM     11  H   UNL     1       5.293   5.683   9.527  0.00  0.00    +0.150 HD
BRANCH   9  12
ATOM     12  C   UNL     1       6.431   7.956   8.941  0.00  0.00    +0.040 A 
ATOM     13  C   UNL     1       6.472   7.740  10.320  0.00  0.00    +0.013 A 
ATOM     14  C   UNL     1       7.032   8.691  11.147  0.00  0.00    +0.001 A 
ATOM     15  C   UNL     1       7.553   9.857  10.614  0.00  0.00    +0.000 A 
ATOM     16  C   UNL     1       7.516  10.077   9.249  0.00  0.00    +0.004 A 
ATOM     17  C   UNL     1       6.964   9.132   8.409  0.00  0.00    -0.038 A 
ATOM     18  C   UNL     1       6.929   9.370   6.922  0.00  0.00    +0.044 C 
ENDBRANCH   9  12
ENDBRANCH   7   8
BRANCH   7  19
ATOM     19  C   UNL     1       3.249   5.200   7.374  0.00  0.00    +0.012 C 
ATOM     20  C   UNL     1       3.224   6.518   6.597  0.00  0.00    +0.009 C 
ATOM     21  C   UNL     1       2.599   4.100   6.532  0.00  0.00    +0.009 C 
ENDBRANCH   7  19
ENDBRANCH   4   7
ENDBRANCH   1   3
BRANCH   1  22
ATOM     22  C   UNL     1       4.231  -0.001   7.257  0.00  0.00    +0.126 C 
BRANCH  22  25
ATOM     23  C   UNL     1       2.339  -0.308   5.752  0.00  0.00    +0.234 C 
ATOM     24  O   UNL     1       2.776  -1.403   5.471  0.00  0.00    -0.274 OA
ATOM     25  N   UNL     1       2.965   0.450   6.675  0.00  0.00    -0.312 N 
ATOM     26  H   UNL     1       2.576   1.295   6.953  0.00  0.00    +0.149 HD
BRANCH  23  27
ATOM     27  C   UNL     1       1.097   0.206   5.071  0.00  0.00    +0.162 C 
BRANCH  27  30
ATOM     28  C   UNL     1       0.049  -0.182   2.906  0.00  0.00    +0.245 C 
ATOM     29  O   UNL     1      -0.319   0.977   2.909  0.00  0.00    -0.270 OA
ATOM     30  N   UNL     1       0.764  -0.665   3.941  0.00  0.00    -0.300 N 
ATOM     31  H   UNL     1       1.058  -1.589   3.938  0.00  0.00    +0.150 HD
BRANCH  28  38
ATOM     32  C   UNL     1      -1.423   0.890   0.658  0.00  0.00    +0.044 C 
ATOM     33  C   UNL     1      -0.997  -0.555   0.676  0.00  0.00    -0.038 A 
ATOM     34  C   UNL     1      -1.302  -1.379  -0.388  0.00  0.00    +0.004 A 
ATOM     35  C   UNL     1      -0.911  -2.706  -0.373  0.00  0.00    +0.000 A 
ATOM     36  C   UNL     1      -0.212  -3.216   0.707  0.00  0.00    +0.001 A 
ATOM     37  C   UNL     1       0.100  -2.402   1.777  0.00  0.00    +0.013 A 
ATOM     38  C   UNL     1      -0.287  -1.061   1.766  0.00  0.00    +0.040 A 
ENDBRANCH  28  38
ENDBRANCH  27  30
BRANCH  27  39
ATOM     39  C   UNL     1      -0.064   0.216   6.067  0.00  0.00    +0.012 C 
ATOM     40  C   UNL     1      -1.284   0.877   5.422  0.00  0.00    +0.009 C 
ATOM     41  C   UNL     1      -0.411  -1.222   6.460  0.00  0.00    +0.009 C 
ENDBRANCH  27  39
ENDBRANCH  23  27
ENDBRANCH  22  25
ENDBRANCH   1  22
TORSDOF 11
