REMARK  Name = ZINC36121166
REMARK  11 active torsions:
REMARK  status: ('A' for Active; 'I' for Inactive)
REMARK    1  A    between atoms: C_1  and  C_2
REMARK    2  A    between atoms: C_2  and  C_3
REMARK    3  A    between atoms: C_3  and  C_5
REMARK    4  A    between atoms: C_3  and  C_6
REMARK    5  A    between atoms: C_6  and  N_7
REMARK    6  A    between atoms: N_7  and  C_8
REMARK    7  A    between atoms: C_8  and  C_9
REMARK    8  A    between atoms: C_19  and  C_21
REMARK    9  A    between atoms: C_21  and  O_22
REMARK   10  A    between atoms: O_22  and  C_23
REMARK   11  A    between atoms: C_30  and  C_32
REMARK                            x       y       z     vdW  Elec       q    Type
REMARK                         _______ _______ _______ _____ _____    ______ ____
ROOT
ATOM      1  C   UNL     1       3.807  -2.593  -1.116  0.00  0.00    +0.234 C 
ATOM      2  O   UNL     1       2.899  -3.259  -0.666  0.00  0.00    -0.274 OA
ATOM      3  N   UNL     1       5.054  -2.735  -0.626  0.00  0.00    -0.289 N 
ATOM      4  C   UNL     1       6.162  -1.929  -1.160  0.00  0.00    +0.114 C 
ATOM      5  C   UNL     1       6.670  -1.006  -0.042  0.00  0.00    +0.061 C 
ATOM      6  C   UNL     1       6.752  -1.791   1.226  0.00  0.00    -0.004 A 
ATOM      7  C   UNL     1       6.172  -2.989   1.507  0.00  0.00    -0.014 A 
ATOM      8  C   UNL     1       6.398  -3.511   2.780  0.00  0.00    +0.013 A 
ATOM      9  C   UNL     1       7.167  -2.832   3.663  0.00  0.00    +0.046 A 
ATOM     10  S   UNL     1       7.622  -1.386   2.718  0.00  0.00    -0.101 S 
ATOM     11  C   UNL     1       5.325  -3.693   0.455  0.00  0.00    +0.144 C 
ENDROOT
BRANCH   1  12
ATOM     12  C   UNL     1       3.541  -1.608  -2.225  0.00  0.00    +0.203 C 
BRANCH  12  13
ATOM     13  N   UNL     1       2.119  -1.642  -2.578  0.00  0.00    -0.292 N 
ATOM     14  C   UNL     1       1.682  -2.489  -3.531  0.00  0.00    +0.219 C 
ATOM     15  O   UNL     1       2.476  -3.151  -4.164  0.00  0.00    -0.275 OA
BRANCH  14  16
ATOM     16  C   UNL     1       0.206  -2.612  -3.810  0.00  0.00    +0.075 C 
ATOM     17  C   UNL     1      -0.407  -3.722  -2.932  0.00  0.00    +0.013 C 
ATOM     18  C   UNL     1      -1.459  -4.394  -3.848  0.00  0.00    +0.001 C 
ATOM     19  C   UNL     1      -0.763  -4.385  -5.232  0.00  0.00    +0.001 C 
ATOM     20  C   UNL     1      -0.020  -3.033  -5.273  0.00  0.00    +0.013 C 
ENDBRANCH  14  16
BRANCH  13  21
ATOM     21  C   UNL     1       1.173  -0.756  -1.895  0.00  0.00    +0.111 C 
BRANCH  21  22
ATOM     22  C   UNL     1       1.207   0.627  -2.549  0.00  0.00    +0.003 C 
ATOM     23  C   UNL     1       0.728   0.518  -3.998  0.00  0.00    +0.009 C 
BRANCH  22  25
ATOM     24  C   UNL     1       0.416   2.989  -2.354  0.00  0.00    +0.004 C 
ATOM     25  C   UNL     1       0.288   1.577  -1.778  0.00  0.00    +0.001 C 
ENDBRANCH  22  25
ENDBRANCH  21  22
ENDBRANCH  13  21
ENDBRANCH  12  13
ENDBRANCH   1  12
BRANCH  11  26
ATOM     26  C   UNL     1       6.090  -4.896  -0.100  0.00  0.00    +0.256 C 
BRANCH  26  27
ATOM     27  O   UNL     1       7.377  -4.474  -0.556  0.00  0.00    -0.490 OA
BRANCH  27  28
ATOM     28  C   UNL     1       8.189  -5.428  -1.082  0.00  0.00    +0.123 A 
ATOM     29  C   UNL     1       7.754  -6.743  -1.161  0.00  0.00    +0.046 A 
ATOM     30  C   UNL     1       8.581  -7.713  -1.696  0.00  0.00    +0.006 A 
ATOM     31  C   UNL     1       9.841  -7.374  -2.152  0.00  0.00    +0.038 A 
ATOM     32  C   UNL     1      10.278  -6.062  -2.074  0.00  0.00    +0.127 A 
ATOM     33  C   UNL     1       9.451  -5.087  -1.545  0.00  0.00    +0.084 A 
ATOM     34  F   UNL     1      11.511  -5.733  -2.520  0.00  0.00    -0.205 F 
ENDBRANCH  27  28
ENDBRANCH  26  27
ENDBRANCH  11  26
TORSDOF 9
