REMARK  Name = ZINC19790681
REMARK  9 active torsions:
REMARK  status: ('A' for Active; 'I' for Inactive)
REMARK    1  A    between atoms: C_1  and  C_2
REMARK    2  A    between atoms: C_2  and  C_3
REMARK    3  A    between atoms: C_3  and  O_4
REMARK    4  A    between atoms: O_4  and  C_5
REMARK    5  A    between atoms: C_8  and  N_11
REMARK    6  A    between atoms: C_15  and  N_19
REMARK    7  A    between atoms: C_22  and  C_25
REMARK    8  A    between atoms: C_22  and  O_35
REMARK    9  A    between atoms: C_29  and  C_31
REMARK                            x       y       z     vdW  Elec       q    Type
REMARK                         _______ _______ _______ _____ _____    ______ ____
ROOT
ATOM      1  N   UNL     1       3.213  -6.893  -7.796  0.00  0.00    +0.388 N 
ATOM      2  C   UNL     1       3.859  -7.079  -9.101  0.00  0.00    -0.075 C 
ATOM      3  C   UNL     1       2.943  -7.895 -10.015  0.00  0.00    +0.021 C 
ATOM      4  C   UNL     1       2.678  -9.261  -9.376  0.00  0.00    +0.088 C 
ATOM      5  C   UNL     1       2.073  -9.053  -7.984  0.00  0.00    +0.021 C 
ATOM      6  C   UNL     1       3.021  -8.194  -7.145  0.00  0.00    -0.075 C 
ATOM      7  H   UNL     1       2.317  -6.447  -7.927  0.00  0.00    -0.081 HD
ENDROOT
BRANCH   1  12
ATOM      8  N   UNL     1       3.196  -4.381  -5.569  0.00  0.00    -0.212 N 
ATOM      9  C   UNL     1       3.678  -3.697  -6.614  0.00  0.00    +0.225 C 
ATOM     10  O   UNL     1       3.639  -2.493  -6.744  0.00  0.00    -0.275 OA
ATOM     11  C   UNL     1       4.281  -4.667  -7.608  0.00  0.00    +0.090 C 
ATOM     12  C   UNL     1       4.061  -6.043  -6.949  0.00  0.00    +0.029 C 
ATOM     13  C   UNL     1       3.362  -5.707  -5.649  0.00  0.00    +0.213 C 
ATOM     14  O   UNL     1       3.006  -6.511  -4.815  0.00  0.00    -0.277 OA
BRANCH   8  18
ATOM     15  C   UNL     1       1.343  -2.529  -2.322  0.00  0.00    +0.121 A 
ATOM     16  C   UNL     1       2.567  -3.159  -2.155  0.00  0.00    +0.047 A 
ATOM     17  C   UNL     1       3.181  -3.772  -3.230  0.00  0.00    +0.027 A 
ATOM     18  C   UNL     1       2.572  -3.758  -4.477  0.00  0.00    +0.044 A 
ATOM     19  C   UNL     1       1.347  -3.127  -4.644  0.00  0.00    +0.027 A 
ATOM     20  C   UNL     1       0.732  -2.519  -3.568  0.00  0.00    +0.047 A 
BRANCH  15  21
ATOM     21  O   UNL     1       0.739  -1.926  -1.264  0.00  0.00    -0.492 OA
BRANCH  21  22
ATOM     22  C   UNL     1       1.425  -1.974  -0.012  0.00  0.00    +0.229 C 
BRANCH  22  24
ATOM     23  C   UNL     1       1.332  -1.300   2.392  0.00  0.00    +0.007 C 
ATOM     24  C   UNL     1       0.598  -1.248   1.051  0.00  0.00    +0.038 C 
ENDBRANCH  22  24
ENDBRANCH  21  22
ENDBRANCH  15  21
ENDBRANCH   8  18
ENDBRANCH   1  12
BRANCH   4  25
ATOM     25  C   UNL     1       1.714 -10.041 -10.233  0.00  0.00    -0.016 A 
ATOM     26  C   UNL     1       0.771  -9.375 -10.994  0.00  0.00    +0.006 A 
ATOM     27  C   UNL     1      -0.112 -10.089 -11.780  0.00  0.00    +0.001 A 
ATOM     28  C   UNL     1      -0.053 -11.471 -11.806  0.00  0.00    +0.012 A 
ATOM     29  C   UNL     1       0.889 -12.136 -11.046  0.00  0.00    +0.055 A 
ATOM     30  C   UNL     1       1.776 -11.421 -10.262  0.00  0.00    +0.018 A 
BRANCH  29  31
ATOM     31  C   UNL     1       0.953 -13.642 -11.073  0.00  0.00    +0.417 C 
ATOM     32  F   UNL     1      -0.034 -14.135 -11.933  0.00  0.00    -0.166 F 
ATOM     33  F   UNL     1       2.213 -14.047 -11.528  0.00  0.00    -0.166 F 
ATOM     34  F   UNL     1       0.740 -14.141  -9.784  0.00  0.00    -0.166 F 
ENDBRANCH  29  31
ENDBRANCH   4  25
BRANCH   4  35
ATOM     35  O   UNL     1       3.906  -9.981  -9.259  0.00  0.00    -0.384 OA
ATOM     36  H   UNL     1       3.813 -10.858  -8.861  0.00  0.00    +0.211 HD
ENDBRANCH   4  35
TORSDOF 8
