REMARK  Name = ZINC63403753
REMARK  7 active torsions:
REMARK  status: ('A' for Active; 'I' for Inactive)
REMARK    1  A    between atoms: C_7  and  C_10
REMARK    2  A    between atoms: C_10  and  C_11
REMARK    3  A    between atoms: C_11  and  C_13
REMARK    4  A    between atoms: C_11  and  N_27
REMARK    5  A    between atoms: N_18  and  C_21
REMARK    6  A    between atoms: C_21  and  C_22
REMARK    7  A    between atoms: C_28  and  C_30
REMARK                            x       y       z     vdW  Elec       q    Type
REMARK                         _______ _______ _______ _____ _____    ______ ____
ROOT
ATOM      1  C   UNL     1       0.457  -3.653  -1.462  0.00  0.00    +0.163 C 
ENDROOT
BRANCH   1   2
ATOM      2  C   UNL     1      -0.578  -4.750  -1.471  0.00  0.00    +0.236 C 
ATOM      3  O   UNL     1      -0.231  -5.909  -1.548  0.00  0.00    -0.274 OA
ATOM      4  N   UNL     1      -1.887  -4.441  -1.394  0.00  0.00    -0.298 N 
ATOM      5  C   UNL     1      -2.329  -3.041  -1.306  0.00  0.00    +0.123 C 
ATOM      6  C   UNL     1      -3.397  -2.799  -2.378  0.00  0.00    +0.104 C 
ATOM      7  N   UNL     1      -4.465  -3.798  -2.236  0.00  0.00    -0.292 NA
ATOM      8  C   UNL     1      -3.957  -5.157  -2.465  0.00  0.00    +0.104 C 
ATOM      9  C   UNL     1      -2.913  -5.495  -1.402  0.00  0.00    +0.123 C 
BRANCH   7  10
ATOM     10  C   UNL     1      -5.589  -3.498  -3.132  0.00  0.00    +0.158 C 
BRANCH  10  11
ATOM     11  C   UNL     1      -6.757  -4.386  -2.788  0.00  0.00    +0.119 A 
ATOM     12  C   UNL     1      -7.731  -4.099  -1.907  0.00  0.00    +0.046 A 
ATOM     13  C   UNL     1      -8.614  -5.204  -1.897  0.00  0.00    +0.041 A 
ATOM     14  C   UNL     1      -8.125  -6.101  -2.773  0.00  0.00    +0.195 A 
ATOM     15  O   UNL     1      -7.003  -5.597  -3.314  0.00  0.00    -0.467 OA
ENDBRANCH  10  11
ENDBRANCH   7  10
ENDBRANCH   1   2
BRANCH   1  16
ATOM     16  N   UNL     1       1.712  -4.162  -2.020  0.00  0.00    -0.299 N 
ATOM     17  C   UNL     1       2.336  -5.203  -1.437  0.00  0.00    +0.251 C 
ATOM     18  O   UNL     1       1.857  -5.722  -0.445  0.00  0.00    -0.270 OA
ATOM     19  H   UNL     1       2.094  -3.748  -2.811  0.00  0.00    +0.150 HD
BRANCH  17  20
ATOM     20  C   UNL     1       3.592  -5.712  -1.996  0.00  0.00    +0.074 A 
ATOM     21  C   UNL     1       4.382  -6.764  -1.557  0.00  0.00    +0.021 A 
ATOM     22  C   UNL     1       5.516  -7.007  -2.294  0.00  0.00    +0.008 A 
ATOM     23  C   UNL     1       5.782  -6.227  -3.370  0.00  0.00    +0.046 A 
ATOM     24  S   UNL     1       4.499  -5.144  -3.421  0.00  0.00    -0.092 S 
ENDBRANCH  17  20
ENDBRANCH   1  16
BRANCH   1  25
ATOM     25  C   UNL     1       0.691  -3.186  -0.024  0.00  0.00    +0.065 C 
BRANCH  25  32
ATOM     26  C   UNL     1      -0.016   1.348   0.009  0.00  0.00    +0.001 A 
ATOM     27  C   UNL     1       1.166   2.101   0.002  0.00  0.00    +0.002 A 
ATOM     28  C   UNL     1       2.391   1.535  -0.013  0.00  0.00    +0.026 A 
ATOM     29  C   UNL     1       2.529   0.120  -0.022  0.00  0.00    +0.043 A 
ATOM     30  N   UNL     1       3.587  -0.654  -0.037  0.00  0.00    -0.380 N 
ATOM     31  C   UNL     1       3.143  -2.053  -0.041  0.00  0.00    +0.144 C 
ATOM     32  C   UNL     1       1.631  -2.008  -0.025  0.00  0.00    -0.039 C 
ATOM     33  C   UNL     1       1.295  -0.698  -0.014  0.00  0.00    -0.001 A 
ATOM     34  C   UNL     1       0.002  -0.004   0.002  0.00  0.00    +0.010 A 
ATOM     35  H   UNL     1       4.509  -0.353  -0.045  0.00  0.00    +0.160 HD
ENDBRANCH  25  32
ENDBRANCH   1  25
TORSDOF 7
