REMARK  Name = ZINC09505778
REMARK  7 active torsions:
REMARK  status: ('A' for Active; 'I' for Inactive)
REMARK    1  A    between atoms: C_1  and  C_2
REMARK    2  A    between atoms: C_4  and  C_31
REMARK    3  A    between atoms: C_5  and  C_9
REMARK    4  A    between atoms: C_6  and  C_8
REMARK    5  A    between atoms: C_15  and  C_17
REMARK    6  A    between atoms: N_22  and  S_23
REMARK    7  A    between atoms: S_23  and  C_26
REMARK                            x       y       z     vdW  Elec       q    Type
REMARK                         _______ _______ _______ _____ _____    ______ ____
ROOT
ATOM      1  C   UNL     1       2.268   1.985   0.292  0.00  0.00    +0.081 A 
ATOM      2  C   UNL     1       2.411   0.813   0.982  0.00  0.00    +0.076 A 
ATOM      3  S   UNL     1       0.721   0.516   1.484  0.00  0.00    -0.060 S 
ATOM      4  C   UNL     1       0.005   1.970   0.729  0.00  0.00    +0.165 A 
ATOM      5  N   UNL     1       1.067   2.533   0.184  0.00  0.00    -0.225 NA
ATOM      6  N   UNL     1      -1.319   2.392   0.716  0.00  0.00    -0.263 N 
ATOM      7  C   UNL     1      -2.266   1.661   1.336  0.00  0.00    +0.238 C 
ATOM      8  O   UNL     1      -1.962   0.634   1.906  0.00  0.00    -0.274 OA
ATOM      9  H   UNL     1      -1.561   3.213   0.259  0.00  0.00    +0.157 HD
ENDROOT
BRANCH   1  14
ATOM     10  C   UNL     1       6.844   4.514  -2.122  0.00  0.00    +0.044 C 
ATOM     11  C   UNL     1       5.647   3.852  -1.490  0.00  0.00    -0.050 A 
ATOM     12  C   UNL     1       4.495   3.658  -2.232  0.00  0.00    +0.007 A 
ATOM     13  C   UNL     1       3.396   3.052  -1.659  0.00  0.00    -0.041 A 
ATOM     14  C   UNL     1       3.447   2.636  -0.330  0.00  0.00    +0.007 A 
ATOM     15  C   UNL     1       4.608   2.839   0.415  0.00  0.00    -0.041 A 
ATOM     16  C   UNL     1       5.703   3.441  -0.170  0.00  0.00    +0.007 A 
ATOM     17  C   UNL     1       4.668   2.397   1.854  0.00  0.00    +0.044 C 
ATOM     18  C   UNL     1       2.142   2.842  -2.468  0.00  0.00    +0.044 C 
ENDBRANCH   1  14
BRANCH   7  19
ATOM     19  C   UNL     1      -3.701   2.118   1.321  0.00  0.00    +0.166 C 
ATOM     20  C   UNL     1      -3.992   3.020   2.546  0.00  0.00    +0.031 C 
ATOM     21  C   UNL     1      -5.527   2.850   2.701  0.00  0.00    +0.019 C 
ATOM     22  C   UNL     1      -5.753   1.376   2.303  0.00  0.00    +0.110 C 
ATOM     23  N   UNL     1      -4.609   0.967   1.473  0.00  0.00    -0.164 NA
BRANCH  23  24
ATOM     24  S   UNL     1      -4.378  -0.537   0.819  0.00  0.00    +0.068 S 
ATOM     25  O   UNL     1      -5.664  -1.034   0.476  0.00  0.00    -0.152 OA
ATOM     26  O   UNL     1      -3.332  -0.409  -0.135  0.00  0.00    -0.152 OA
BRANCH  24  27
ATOM     27  C   UNL     1      -3.763  -1.575   2.103  0.00  0.00    +0.143 A 
ATOM     28  C   UNL     1      -4.449  -2.243   3.063  0.00  0.00    +0.036 A 
ATOM     29  C   UNL     1      -3.750  -3.010   3.976  0.00  0.00    +0.010 A 
ATOM     30  C   UNL     1      -2.398  -3.063   3.891  0.00  0.00    +0.047 A 
ATOM     31  S   UNL     1      -2.075  -2.013   2.484  0.00  0.00    -0.077 S 
ENDBRANCH  24  27
ENDBRANCH  23  24
ENDBRANCH   7  19
TORSDOF 4
