REMARK  Name = ZINC51490051
REMARK  14 active torsions:
REMARK  status: ('A' for Active; 'I' for Inactive)
REMARK    1  A    between atoms: C_1  and  C_2
REMARK    2  A    between atoms: C_2  and  C_3
REMARK    3  A    between atoms: C_3  and  N_4
REMARK    4  A    between atoms: N_4  and  C_5
REMARK    5  A    between atoms: C_5  and  C_6
REMARK    6  A    between atoms: C_11  and  N_12
REMARK    7  A    between atoms: N_12  and  C_13
REMARK    8  A    between atoms: N_12  and  C_16
REMARK    9  A    between atoms: C_13  and  C_14
REMARK   10  A    between atoms: C_14  and  C_15
REMARK   11  A    between atoms: C_16  and  C_17
REMARK   12  A    between atoms: C_17  and  N_18
REMARK   13  A    between atoms: N_18  and  C_19
REMARK   14  A    between atoms: N_18  and  C_20
REMARK                            x       y       z     vdW  Elec       q    Type
REMARK                         _______ _______ _______ _____ _____    ______ ____
ROOT
ATOM      1  C   UNL     1       2.091  -4.262   3.144  0.00  0.00    -0.023 A 
ATOM      2  C   UNL     1       1.815  -4.944   4.316  0.00  0.00    +0.022 A 
ATOM      3  C   UNL     1       2.452  -6.158   4.541  0.00  0.00    +0.036 A 
ATOM      4  C   UNL     1       3.334  -6.644   3.596  0.00  0.00    +0.128 A 
ATOM      5  N   UNL     1       3.578  -5.971   2.488  0.00  0.00    -0.239 NA
ATOM      6  C   UNL     1       2.986  -4.814   2.234  0.00  0.00    +0.123 A 
ATOM      7 BR   UNL     1       2.115  -7.134   6.125  0.00  0.00    -0.049 Br
ENDROOT
BRANCH   1   8
ATOM      8  C   UNL     1       1.425  -2.941   2.855  0.00  0.00    -0.043 C 
BRANCH   8   9
ATOM      9  N   UNL     1       0.638  -3.050   1.619  0.00  0.00    +0.382 N 
ATOM     10  H   UNL     1      -0.208  -3.568   1.803  0.00  0.00    -0.085 HD
ATOM     11  H   UNL     1       1.180  -3.530   0.916  0.00  0.00    -0.085 HD
BRANCH   9  12
ATOM     12  C   UNL     1       0.295  -1.705   1.137  0.00  0.00    -0.082 C 
BRANCH  12  14
ATOM     13  C   UNL     1      -0.882  -0.418  -0.652  0.00  0.00    +0.002 C 
ATOM     14  C   UNL     1      -0.524  -1.818  -0.150  0.00  0.00    -0.022 C 
ENDBRANCH  12  14
ENDBRANCH   9  12
ENDBRANCH   8   9
ENDBRANCH   1   8
BRANCH   6  15
ATOM     15  N   UNL     1       3.267  -4.142   1.050  0.00  0.00    -0.317 N 
BRANCH  15  16
ATOM     16  C   UNL     1       3.451  -2.688   1.058  0.00  0.00    +0.106 C 
BRANCH  16  17
ATOM     17  C   UNL     1       4.317  -2.291   2.255  0.00  0.00    +0.016 C 
ATOM     18  C   UNL     1       4.376  -0.766   2.359  0.00  0.00    +0.005 C 
ENDBRANCH  16  17
ENDBRANCH  15  16
BRANCH  15  19
ATOM     19  C   UNL     1       3.378  -4.887  -0.207  0.00  0.00    +0.088 C 
BRANCH  19  20
ATOM     20  C   UNL     1       2.005  -4.966  -0.877  0.00  0.00    -0.060 C 
BRANCH  20  21
ATOM     21  N   UNL     1       2.116  -5.713  -2.136  0.00  0.00    +0.377 N 
ATOM     22  C   UNL     1       2.489  -7.104  -1.849  0.00  0.00    -0.097 C 
ATOM     23  C   UNL     1       0.826  -5.686  -2.838  0.00  0.00    -0.097 C 
ATOM     24  H   UNL     1       2.823  -5.288  -2.718  0.00  0.00    -0.083 HD
ENDBRANCH  20  21
ENDBRANCH  19  20
ENDBRANCH  15  19
ENDBRANCH   6  15
TORSDOF 10
