REMARK  Name = ZINC60331309
REMARK  5 active torsions:
REMARK  status: ('A' for Active; 'I' for Inactive)
REMARK    1  A    between atoms: C_1  and  N_2
REMARK    2  A    between atoms: C_6  and  S_7
REMARK    3  A    between atoms: S_7  and  C_8
REMARK    4  A    between atoms: C_13  and  N_14
REMARK    5  A    between atoms: C_15  and  C_17
REMARK                            x       y       z     vdW  Elec       q    Type
REMARK                         _______ _______ _______ _____ _____    ______ ____
ROOT
ATOM      1  C   UNL     1      -0.446  -1.787   3.927  0.00  0.00    +0.037 A 
ATOM      2  C   UNL     1      -0.279  -3.017   3.307  0.00  0.00    +0.020 A 
ATOM      3  C   UNL     1       0.390  -4.035   3.960  0.00  0.00    +0.039 A 
ATOM      4  C   UNL     1       0.896  -3.832   5.233  0.00  0.00    +0.125 A 
ATOM      5  C   UNL     1       0.733  -2.607   5.858  0.00  0.00    +0.062 A 
ATOM      6  C   UNL     1       0.068  -1.580   5.207  0.00  0.00    +0.050 A 
ATOM      7  F   UNL     1       1.549  -4.830   5.866  0.00  0.00    -0.205 F 
ENDROOT
BRANCH   6   8
ATOM      8  N   UNL     1      -0.093  -0.338   5.836  0.00  0.00    -0.284 N 
ATOM      9  C   UNL     1      -0.069  -0.256   7.181  0.00  0.00    +0.221 C 
ATOM     10  O   UNL     1      -0.007  -1.266   7.849  0.00  0.00    -0.275 OA
ATOM     11  H   UNL     1      -0.221   0.463   5.303  0.00  0.00    +0.155 HD
BRANCH   9  12
ATOM     12  C   UNL     1      -0.120   1.092   7.854  0.00  0.00    +0.079 C 
ATOM     13  C   UNL     1      -0.580   0.943   9.322  0.00  0.00    +0.016 C 
ATOM     14  C   UNL     1       0.616   1.482  10.166  0.00  0.00    -0.010 C 
ATOM     15  C   UNL     1       1.725   0.397  10.009  0.00  0.00    +0.004 C 
ATOM     16  C   UNL     1       2.193   0.526   8.542  0.00  0.00    +0.004 C 
ATOM     17  C   UNL     1       1.310   1.708   7.946  0.00  0.00    +0.001 C 
ATOM     18  C   UNL     1       1.152   2.614   9.220  0.00  0.00    +0.008 C 
ENDBRANCH   9  12
ENDBRANCH   6   8
BRANCH   1  19
ATOM     19  S   UNL     1      -1.298  -0.487   3.096  0.00  0.00    -0.050 S 
BRANCH  19  25
ATOM     20  C   UNL     1      -3.784   1.608   2.714  0.00  0.00    +0.151 C 
ATOM     21  N   UNL     1      -3.839   0.501   3.672  0.00  0.00    -0.328 N 
ATOM     22  C   UNL     1      -4.890   0.190   4.504  0.00  0.00    +0.107 A 
ATOM     23  C   UNL     1      -4.523  -0.892   5.212  0.00  0.00    +0.131 A 
ATOM     24  N   UNL     1      -3.284  -1.245   4.833  0.00  0.00    -0.230 NA
ATOM     25  C   UNL     1      -2.862  -0.419   3.904  0.00  0.00    +0.173 A 
ENDBRANCH  19  25
ENDBRANCH   1  19
TORSDOF 4
