REMARK  Name = ZINC11990777
REMARK  9 active torsions:
REMARK  status: ('A' for Active; 'I' for Inactive)
REMARK    1  A    between atoms: C_1  and  C_2
REMARK    2  A    between atoms: C_5  and  C_8
REMARK    3  A    between atoms: C_8  and  N_16
REMARK    4  A    between atoms: N_9  and  C_10
REMARK    5  A    between atoms: N_18  and  C_25
REMARK    6  A    between atoms: C_19  and  N_24
REMARK    7  A    between atoms: C_20  and  C_22
REMARK    8  A    between atoms: C_28  and  O_31
REMARK    9  A    between atoms: O_31  and  C_32
REMARK                            x       y       z     vdW  Elec       q    Type
REMARK                         _______ _______ _______ _____ _____    ______ ____
ROOT
ATOM      1  N   UNL     1       0.496  -5.496   0.801  0.00  0.00    -0.203 NA
ATOM      2  C   UNL     1      -0.455  -6.311   1.236  0.00  0.00    +0.182 A 
ATOM      3  N   UNL     1      -1.597  -6.701   0.588  0.00  0.00    -0.275 N 
ATOM      4  C   UNL     1      -2.448  -7.547   1.210  0.00  0.00    +0.127 A 
ATOM      5  C   UNL     1      -2.094  -7.960   2.470  0.00  0.00    +0.130 A 
ATOM      6  S   UNL     1      -0.540  -7.117   2.709  0.00  0.00    -0.037 S 
ENDROOT
BRANCH   3   7
ATOM      7  C   UNL     1      -1.881  -6.227  -0.701  0.00  0.00    +0.050 A 
ATOM      8  C   UNL     1      -2.344  -4.931  -0.879  0.00  0.00    +0.030 A 
ATOM      9  C   UNL     1      -2.623  -4.466  -2.149  0.00  0.00    +0.047 A 
ATOM     10  C   UNL     1      -2.440  -5.293  -3.247  0.00  0.00    +0.120 A 
ATOM     11  C   UNL     1      -1.977  -6.589  -3.070  0.00  0.00    +0.047 A 
ATOM     12  C   UNL     1      -1.692  -7.053  -1.801  0.00  0.00    +0.030 A 
BRANCH  10  13
ATOM     13  O   UNL     1      -2.715  -4.835  -4.497  0.00  0.00    -0.495 OA
ATOM     14  C   UNL     1      -2.620  -5.776  -5.568  0.00  0.00    +0.277 C 
ENDBRANCH  10  13
ENDBRANCH   3   7
BRANCH   4  15
ATOM     15  N   UNL     1      -3.615  -7.974   0.609  0.00  0.00    -0.343 N 
ATOM     16  H   UNL     1      -3.807  -7.726  -0.309  0.00  0.00    +0.144 HD
ATOM     17  H   UNL     1      -4.243  -8.523   1.104  0.00  0.00    +0.144 HD
ENDBRANCH   4  15
BRANCH   1  18
ATOM     18  C   UNL     1       0.485  -5.069  -0.472  0.00  0.00    +0.163 C 
ATOM     19  N   UNL     1       0.396  -5.941  -1.461  0.00  0.00    -0.228 NA
BRANCH  18  24
ATOM     20  C   UNL     1       0.824   0.562  -1.620  0.00  0.00    +0.044 C 
ATOM     21  C   UNL     1       0.735  -0.912  -1.320  0.00  0.00    -0.050 A 
ATOM     22  C   UNL     1      -0.210  -1.376  -0.423  0.00  0.00    +0.004 A 
ATOM     23  C   UNL     1      -0.297  -2.725  -0.144  0.00  0.00    +0.012 A 
ATOM     24  C   UNL     1       0.572  -3.620  -0.768  0.00  0.00    +0.019 A 
ATOM     25  C   UNL     1       1.522  -3.146  -1.671  0.00  0.00    +0.012 A 
ATOM     26  C   UNL     1       1.595  -1.796  -1.947  0.00  0.00    +0.004 A 
ENDBRANCH  18  24
BRANCH  19  27
ATOM     27  C   UNL     1       0.609  -5.539  -2.748  0.00  0.00    +0.066 A 
ATOM     28  C   UNL     1       0.026  -4.359  -3.221  0.00  0.00    +0.028 A 
ATOM     29  C   UNL     1       0.247  -3.959  -4.522  0.00  0.00    +0.002 A 
ATOM     30  C   UNL     1       1.043  -4.721  -5.359  0.00  0.00    +0.000 A 
ATOM     31  C   UNL     1       1.624  -5.889  -4.898  0.00  0.00    +0.002 A 
ATOM     32  C   UNL     1       1.417  -6.300  -3.598  0.00  0.00    +0.028 A 
ENDBRANCH  19  27
ENDBRANCH   1  18
BRANCH   5  33
ATOM     33  C   UNL     1      -2.787  -8.842   3.359  0.00  0.00    +0.110 C 
ATOM     34  N   UNL     1      -3.337  -9.543   4.064  0.00  0.00    -0.190 NA
ENDBRANCH   5  33
TORSDOF 7
