REMARK  Name = ZINC36274146
REMARK  6 active torsions:
REMARK  status: ('A' for Active; 'I' for Inactive)
REMARK    1  A    between atoms: C_1  and  C_2
REMARK    2  A    between atoms: C_4  and  C_9
REMARK    3  A    between atoms: C_10  and  C_19
REMARK    4  A    between atoms: C_13  and  N_18
REMARK    5  A    between atoms: C_19  and  N_20
REMARK    6  A    between atoms: C_24  and  C_27
REMARK                            x       y       z     vdW  Elec       q    Type
REMARK                         _______ _______ _______ _____ _____    ______ ____
ROOT
ATOM      1  C   UNL     1       0.050  -2.803  -2.501  0.00  0.00    +0.091 A 
ATOM      2  C   UNL     1       0.749  -3.942  -2.764  0.00  0.00    +0.035 A 
ATOM      3  N   UNL     1       0.444  -4.313  -4.044  0.00  0.00    -0.303 N 
ATOM      4  C   UNL     1       0.851  -5.363  -4.819  0.00  0.00    +0.115 A 
ATOM      5  C   UNL     1       0.388  -5.504  -6.085  0.00  0.00    +0.041 A 
ATOM      6  C   UNL     1      -0.520  -4.566  -6.616  0.00  0.00    +0.028 A 
ATOM      7  C   UNL     1      -0.929  -3.519  -5.851  0.00  0.00    +0.048 A 
ATOM      8  C   UNL     1      -0.438  -3.387  -4.536  0.00  0.00    +0.138 A 
ATOM      9  N   UNL     1      -0.668  -2.487  -3.589  0.00  0.00    -0.228 NA
ENDROOT
BRANCH   1  13
ATOM     10  C   UNL     1       0.268   1.552  -0.068  0.00  0.00    +0.045 C 
ATOM     11  C   UNL     1       0.178   0.048  -0.052  0.00  0.00    -0.032 A 
ATOM     12  C   UNL     1       0.157  -0.653  -1.241  0.00  0.00    +0.015 A 
ATOM     13  C   UNL     1       0.074  -2.044  -1.225  0.00  0.00    +0.002 A 
ATOM     14  C   UNL     1       0.013  -2.720  -0.008  0.00  0.00    +0.011 A 
ATOM     15  C   UNL     1       0.036  -2.010   1.175  0.00  0.00    +0.021 A 
ATOM     16  C   UNL     1       0.123  -0.628   1.154  0.00  0.00    +0.044 A 
ATOM     17 CL   UNL     1       0.157   0.259   2.646  0.00  0.00    -0.083 Cl
ENDBRANCH   1  13
BRANCH   5  18
ATOM     18  N   UNL     1       0.813  -6.585  -6.869  0.00  0.00    -0.357 N 
ATOM     19  H   UNL     1       1.438  -7.232  -6.505  0.00  0.00    +0.142 HD
ATOM     20  H   UNL     1       0.483  -6.687  -7.775  0.00  0.00    +0.142 HD
ENDBRANCH   5  18
BRANCH   2  21
ATOM     21  C   UNL     1       1.682  -4.659  -1.823  0.00  0.00    -0.022 C 
BRANCH  21  22
ATOM     22  N   UNL     1       3.009  -4.031  -1.876  0.00  0.00    +0.384 N 
ATOM     23  C   UNL     1       3.581  -4.212  -3.216  0.00  0.00    -0.078 C 
ATOM     24  C   UNL     1       4.927  -3.490  -3.302  0.00  0.00    -0.018 C 
ATOM     25  C   UNL     1       5.881  -4.073  -2.255  0.00  0.00    +0.011 C 
ATOM     26  C   UNL     1       5.241  -3.946  -0.869  0.00  0.00    +0.086 C 
ATOM     27  C   UNL     1       3.883  -4.651  -0.874  0.00  0.00    -0.064 C 
ATOM     28  H   UNL     1       2.921  -3.045  -1.681  0.00  0.00    -0.081 HD
BRANCH  26  29
ATOM     29  C   UNL     1       6.138  -4.585   0.159  0.00  0.00    +0.357 C 
ATOM     30  O   UNL     1       7.273  -4.171   0.320  0.00  0.00    -0.246 OA
ATOM     31  O   UNL     1       5.728  -5.517   0.831  0.00  0.00    -0.246 OA
ENDBRANCH  26  29
ENDBRANCH  21  22
ENDBRANCH   2  21
TORSDOF 5
