REMARK  Name = ZINC34715813
REMARK  8 active torsions:
REMARK  status: ('A' for Active; 'I' for Inactive)
REMARK    1  A    between atoms: C_1  and  C_2
REMARK    2  A    between atoms: C_4  and  C_9
REMARK    3  A    between atoms: C_12  and  C_23
REMARK    4  A    between atoms: N_19  and  C_20
REMARK    5  A    between atoms: C_20  and  C_21
REMARK    6  A    between atoms: C_20  and  C_22
REMARK    7  A    between atoms: N_25  and  C_26
REMARK    8  A    between atoms: C_26  and  C_27
REMARK                            x       y       z     vdW  Elec       q    Type
REMARK                         _______ _______ _______ _____ _____    ______ ____
ROOT
ATOM      1  C   UNL     1       0.033  -2.815  -2.522  0.00  0.00    +0.037 C 
ATOM      2  C   UNL     1       1.290  -3.682  -2.612  0.00  0.00    +0.024 C 
ATOM      3  C   UNL     1       1.309  -4.419  -3.953  0.00  0.00    +0.093 C 
ATOM      4  C   UNL     1       0.084  -5.333  -4.046  0.00  0.00    +0.122 C 
ATOM      5  N   UNL     1      -1.125  -4.530  -3.816  0.00  0.00    -0.284 N 
ATOM      6  C   UNL     1      -1.208  -3.711  -2.599  0.00  0.00    +0.117 C 
ATOM      7  C   UNL     1      -2.138  -4.543  -4.705  0.00  0.00    +0.302 C 
ATOM      8  O   UNL     1      -2.019  -5.148  -5.753  0.00  0.00    -0.253 OA
ATOM      9  N   UNL     1      -3.282  -3.885  -4.432  0.00  0.00    -0.297 N 
ATOM     10  H   UNL     1      -3.351  -3.344  -3.630  0.00  0.00    +0.150 HD
ENDROOT
BRANCH   1  14
ATOM     11  C   UNL     1      -0.002   1.512  -0.009  0.00  0.00    +0.047 C 
ATOM     12  C   UNL     1       0.014   0.005  -0.013  0.00  0.00    -0.015 A 
ATOM     13  C   UNL     1       0.016  -0.683  -1.211  0.00  0.00    +0.010 A 
ATOM     14  C   UNL     1       0.031  -2.065  -1.215  0.00  0.00    -0.042 A 
ATOM     15  C   UNL     1       0.045  -2.761  -0.020  0.00  0.00    +0.007 A 
ATOM     16  C   UNL     1       0.043  -2.074   1.180  0.00  0.00    +0.039 A 
ATOM     17  C   UNL     1       0.033  -0.690   1.184  0.00  0.00    +0.126 A 
ATOM     18  F   UNL     1       0.037  -0.018   2.356  0.00  0.00    -0.205 F 
ENDBRANCH   1  14
BRANCH   3  19
ATOM     19  C   UNL     1       2.564  -5.247  -4.055  0.00  0.00    +0.218 C 
ATOM     20  O   UNL     1       3.365  -5.248  -3.144  0.00  0.00    -0.275 OA
ATOM     21  N   UNL     1       2.797  -5.986  -5.158  0.00  0.00    -0.311 N 
ATOM     22  H   UNL     1       2.156  -5.985  -5.886  0.00  0.00    +0.149 HD
BRANCH  21  23
ATOM     23  C   UNL     1       4.017  -6.791  -5.256  0.00  0.00    +0.142 C 
BRANCH  23  24
ATOM     24  C   UNL     1       4.035  -7.516  -6.577  0.00  0.00    +0.005 A 
ATOM     25  C   UNL     1       3.659  -8.844  -6.642  0.00  0.00    +0.008 A 
ATOM     26  C   UNL     1       3.675  -9.510  -7.854  0.00  0.00    +0.000 A 
ATOM     27  C   UNL     1       4.067  -8.847  -9.002  0.00  0.00    +0.003 A 
ATOM     28  C   UNL     1       4.443  -7.519  -8.940  0.00  0.00    +0.038 A 
ATOM     29  C   UNL     1       4.422  -6.850  -7.728  0.00  0.00    +0.128 A 
ATOM     30  F   UNL     1       4.785  -5.550  -7.667  0.00  0.00    -0.205 F 
ENDBRANCH  23  24
ENDBRANCH  21  23
ENDBRANCH   3  19
BRANCH   9  31
ATOM     31  C   UNL     1      -4.422  -3.989  -5.346  0.00  0.00    +0.068 C 
ATOM     32  C   UNL     1      -5.234  -5.242  -5.009  0.00  0.00    +0.027 C 
ATOM     33  C   UNL     1      -5.309  -2.752  -5.197  0.00  0.00    +0.027 C 
ENDBRANCH   9  31
TORSDOF 5
