REMARK  Name = ZINC49183111
REMARK  6 active torsions:
REMARK  status: ('A' for Active; 'I' for Inactive)
REMARK    1  A    between atoms: C_1  and  C_2
REMARK    2  A    between atoms: C_2  and  C_3
REMARK    3  A    between atoms: C_2  and  C_4
REMARK    4  A    between atoms: C_4  and  N_5
REMARK    5  A    between atoms: N_8  and  N_9
REMARK    6  A    between atoms: C_10  and  C_12
REMARK                            x       y       z     vdW  Elec       q    Type
REMARK                         _______ _______ _______ _____ _____    ______ ____
ROOT
ATOM      1  N   UNL     1      -1.339  -4.704  -0.356  0.00  0.00    -0.229 N 
ATOM      2  C   UNL     1      -1.323  -6.046  -0.474  0.00  0.00    +0.261 C 
ATOM      3  O   UNL     1      -2.368  -6.667  -0.487  0.00  0.00    -0.269 OA
ATOM      4  H   UNL     1      -0.505  -4.208  -0.346  0.00  0.00    +0.173 HD
ENDROOT
BRANCH   2   5
ATOM      5  C   UNL     1      -0.036  -6.763  -0.588  0.00  0.00    +0.054 A 
ATOM      6  C   UNL     1       1.166  -6.053  -0.568  0.00  0.00    +0.034 A 
ATOM      7  C   UNL     1       2.365  -6.728  -0.675  0.00  0.00    +0.043 A 
ATOM      8  C   UNL     1       2.378  -8.107  -0.802  0.00  0.00    +0.041 A 
ATOM      9  C   UNL     1       1.190  -8.818  -0.823  0.00  0.00    +0.056 A 
ATOM     10  C   UNL     1      -0.016  -8.154  -0.711  0.00  0.00    +0.044 A 
ATOM     11  I   UNL     1      -1.813  -9.231  -0.732  0.00  0.00    -0.042 I 
ATOM     12 CL   UNL     1       1.217 -10.546  -0.983  0.00  0.00    -0.082 Cl
ATOM     13 CL   UNL     1       3.861  -5.847  -0.651  0.00  0.00    -0.083 Cl
ENDBRANCH   2   5
BRANCH   1  17
ATOM     14  N   UNL     1      -1.416  -1.993  -0.116  0.00  0.00    -0.298 N 
ATOM     15  C   UNL     1      -2.575  -2.682  -0.130  0.00  0.00    +0.316 C 
ATOM     16  O   UNL     1      -3.634  -2.092  -0.036  0.00  0.00    -0.251 OA
ATOM     17  N   UNL     1      -2.559  -4.024  -0.248  0.00  0.00    -0.218 N 
ATOM     18  H   UNL     1      -0.572  -2.463  -0.190  0.00  0.00    +0.150 HD
ATOM     19  H   UNL     1      -3.393  -4.520  -0.258  0.00  0.00    +0.174 HD
BRANCH  14  20
ATOM     20  C   UNL     1      -1.433  -0.534   0.013  0.00  0.00    +0.108 C 
BRANCH  20  22
ATOM     21  C   UNL     1      -0.019   1.526   0.010  0.00  0.00    +0.009 C 
ATOM     22  C   UNL     1       0.002  -0.004   0.002  0.00  0.00    -0.000 C 
ATOM     23  C   UNL     1       0.742  -0.511   1.242  0.00  0.00    +0.009 C 
ENDBRANCH  20  22
ENDBRANCH  14  20
ENDBRANCH   1  17
TORSDOF 4
