REMARK  Name = ZINC10342025
REMARK  5 active torsions:
REMARK  status: ('A' for Active; 'I' for Inactive)
REMARK    1  A    between atoms: C_9  and  C_10
REMARK    2  A    between atoms: C_9  and  N_42
REMARK    3  A    between atoms: C_10  and  C_12
REMARK    4  A    between atoms: C_13  and  N_24
REMARK    5  A    between atoms: N_14  and  C_21
REMARK                            x       y       z     vdW  Elec       q    Type
REMARK                         _______ _______ _______ _____ _____    ______ ____
ROOT
ATOM      1  C   UNL     1       1.272   3.514   0.105  0.00  0.00    +0.118 A 
ATOM      2  C   UNL     1      -0.035   3.934   0.411  0.00  0.00    +0.116 A 
ATOM      3  N   UNL     1      -1.033   3.003   0.461  0.00  0.00    -0.278 N 
ATOM      4  C   UNL     1      -0.789   1.705   0.221  0.00  0.00    +0.331 A 
ATOM      5  O   UNL     1      -1.712   0.917   0.273  0.00  0.00    -0.246 OA
ATOM      6  N   UNL     1       0.439   1.245  -0.071  0.00  0.00    -0.274 N 
ATOM      7  H   UNL     1       0.573   0.268  -0.235  0.00  0.00    +0.173 HD
ATOM      8  C   UNL     1       1.492   2.084  -0.145  0.00  0.00    +0.266 A 
ATOM      9  O   UNL     1       2.603   1.665  -0.414  0.00  0.00    -0.267 OA
ENDROOT
BRANCH   3  10
ATOM     10  C   UNL     1      -2.397   3.430   0.780  0.00  0.00    +0.094 C 
ATOM     11  C   UNL     1      -3.526   2.911  -0.113  0.00  0.00    +0.027 C 
ATOM     12  C   UNL     1      -3.089   4.375  -0.205  0.00  0.00    +0.027 C 
ENDBRANCH   3  10
BRANCH   2  13
ATOM     13  N   UNL     1      -0.300   5.246   0.653  0.00  0.00    -0.344 N 
ATOM     14  H   UNL     1       0.427   5.885   0.716  0.00  0.00    +0.144 HD
ATOM     15  H   UNL     1      -1.217   5.543   0.763  0.00  0.00    +0.144 HD
ENDBRANCH   2  13
BRANCH   1  16
ATOM     16  C   UNL     1       2.337   4.438   0.041  0.00  0.00    +0.155 C 
ATOM     17  O   UNL     1       2.116   5.628   0.139  0.00  0.00    -0.294 OA
BRANCH  16  18
ATOM     18  C   UNL     1       3.749   3.947  -0.149  0.00  0.00    +0.003 C 
BRANCH  18  27
ATOM     19  C   UNL     1       8.293   5.902   0.234  0.00  0.00    +0.009 A 
ATOM     20  C   UNL     1       9.021   7.039   0.132  0.00  0.00    +0.045 A 
ATOM     21  S   UNL     1       7.836   8.173  -0.578  0.00  0.00    -0.101 S 
ATOM     22  C   UNL     1       6.469   7.053  -0.684  0.00  0.00    -0.011 A 
ATOM     23  C   UNL     1       6.964   5.886  -0.183  0.00  0.00    -0.054 A 
ATOM     24  C   UNL     1       6.063   4.657  -0.106  0.00  0.00    -0.042 C 
ATOM     25  C   UNL     1       4.419   5.916  -1.391  0.00  0.00    -0.073 C 
ATOM     26  C   UNL     1       5.085   7.288  -1.195  0.00  0.00    +0.024 C 
ATOM     27  N   UNL     1       4.654   5.113  -0.167  0.00  0.00    +0.387 N 
ATOM     28  H   UNL     1       4.460   5.697   0.655  0.00  0.00    -0.081 HD
ENDBRANCH  18  27
ENDBRANCH  16  18
ENDBRANCH   1  16
TORSDOF 5
