REMARK  Name = ZINC38728210
REMARK  8 active torsions:
REMARK  status: ('A' for Active; 'I' for Inactive)
REMARK    1  A    between atoms: C_1  and  C_2
REMARK    2  A    between atoms: C_2  and  C_3
REMARK    3  A    between atoms: N_16  and  C_26
REMARK    4  A    between atoms: C_17  and  C_19
REMARK    5  A    between atoms: C_26  and  C_27
REMARK    6  A    between atoms: C_27  and  N_28
REMARK    7  A    between atoms: N_28  and  C_29
REMARK    8  A    between atoms: N_28  and  C_30
REMARK                            x       y       z     vdW  Elec       q    Type
REMARK                         _______ _______ _______ _____ _____    ______ ____
ROOT
ATOM      1  C   UNL     1      -1.412  -0.526   0.013  0.00  0.00    -0.047 A 
ATOM      2  C   UNL     1      -2.051  -0.766   1.221  0.00  0.00    +0.007 A 
ATOM      3  C   UNL     1      -3.341  -1.246   1.253  0.00  0.00    +0.047 A 
ATOM      4  C   UNL     1      -4.024  -1.495   0.062  0.00  0.00    +0.139 A 
ATOM      5  C   UNL     1      -3.369  -1.242  -1.154  0.00  0.00    +0.065 A 
ATOM      6  C   UNL     1      -2.062  -0.755  -1.168  0.00  0.00    +0.019 A 
ATOM      7  C   UNL     1      -4.093  -1.489  -2.426  0.00  0.00    +0.199 A 
ATOM      8  O   UNL     1      -3.553  -1.459  -3.518  0.00  0.00    -0.287 OA
ATOM      9  C   UNL     1      -5.521  -1.774  -2.244  0.00  0.00    +0.072 A 
ATOM     10  C   UNL     1      -6.041  -1.994  -1.000  0.00  0.00    +0.199 A 
ATOM     11  O   UNL     1      -5.288  -1.972   0.117  0.00  0.00    -0.450 OA
ATOM     12  C   UNL     1      -7.487  -2.241  -1.141  0.00  0.00    +0.283 C 
ATOM     13  O   UNL     1      -8.247  -2.468  -0.221  0.00  0.00    -0.267 OA
ATOM     14  N   UNL     1      -7.843  -2.178  -2.441  0.00  0.00    -0.285 N 
ATOM     15  C   UNL     1      -6.636  -1.882  -3.230  0.00  0.00    +0.144 C 
ENDROOT
BRANCH  15  16
ATOM     16  C   UNL     1      -6.364  -3.001  -4.202  0.00  0.00    -0.020 A 
ATOM     17  C   UNL     1      -6.594  -4.312  -3.828  0.00  0.00    +0.006 A 
ATOM     18  C   UNL     1      -6.345  -5.340  -4.719  0.00  0.00    +0.003 A 
ATOM     19  C   UNL     1      -5.864  -5.058  -5.984  0.00  0.00    +0.038 A 
ATOM     20  C   UNL     1      -5.634  -3.745  -6.359  0.00  0.00    +0.124 A 
ATOM     21  C   UNL     1      -5.890  -2.716  -5.468  0.00  0.00    +0.044 A 
ATOM     22  F   UNL     1      -5.164  -3.468  -7.595  0.00  0.00    -0.205 F 
ENDBRANCH  15  16
BRANCH   1  24
ATOM     23  C   UNL     1      -0.019   1.526   0.010  0.00  0.00    +0.009 C 
ATOM     24  C   UNL     1       0.002  -0.004   0.002  0.00  0.00    +0.032 C 
ENDBRANCH   1  24
BRANCH  14  25
ATOM     25  C   UNL     1      -9.194  -2.371  -2.973  0.00  0.00    +0.090 C 
BRANCH  25  26
ATOM     26  C   UNL     1      -9.921  -1.025  -3.020  0.00  0.00    -0.060 C 
BRANCH  26  27
ATOM     27  N   UNL     1     -11.275  -1.218  -3.554  0.00  0.00    +0.377 N 
ATOM     28  C   UNL     1     -12.013   0.050  -3.488  0.00  0.00    -0.097 C 
ATOM     29  C   UNL     1     -11.192  -1.664  -4.951  0.00  0.00    -0.097 C 
ATOM     30  H   UNL     1     -11.756  -1.916  -3.006  0.00  0.00    -0.083 HD
ENDBRANCH  26  27
ENDBRANCH  25  26
ENDBRANCH  14  25
TORSDOF 5
