REMARK  Name = ZINC67102426
REMARK  7 active torsions:
REMARK  status: ('A' for Active; 'I' for Inactive)
REMARK    1  A    between atoms: C_1  and  C_2
REMARK    2  A    between atoms: C_6  and  C_7
REMARK    3  A    between atoms: N_9  and  N_10
REMARK    4  A    between atoms: N_13  and  C_14
REMARK    5  A    between atoms: N_13  and  C_15
REMARK    6  A    between atoms: C_15  and  C_17
REMARK    7  A    between atoms: C_15  and  C_18
REMARK                            x       y       z     vdW  Elec       q    Type
REMARK                         _______ _______ _______ _____ _____    ______ ____
ROOT
ATOM      1  N   UNL     1       0.111  -1.191   7.158  0.00  0.00    -0.218 N 
ATOM      2  C   UNL     1      -0.020  -1.640   5.894  0.00  0.00    +0.319 C 
ATOM      3  O   UNL     1      -0.052  -0.851   4.969  0.00  0.00    -0.251 OA
ATOM      4  N   UNL     1      -0.115  -2.963   5.655  0.00  0.00    -0.281 N 
ATOM      5  C   UNL     1      -0.138  -3.458   4.277  0.00  0.00    +0.134 C 
ATOM      6  H   UNL     1       0.213  -1.821   7.888  0.00  0.00    +0.174 HD
ENDROOT
BRANCH   1   9
ATOM      7  C   UNL     1       0.128   0.633   8.689  0.00  0.00    +0.267 C 
ATOM      8  O   UNL     1       0.165  -0.160   9.611  0.00  0.00    -0.268 OA
ATOM      9  N   UNL     1       0.099   0.186   7.417  0.00  0.00    -0.229 N 
ATOM     10  H   UNL     1       0.070   0.818   6.682  0.00  0.00    +0.173 HD
BRANCH   7  16
ATOM     11  C   UNL     1       0.188   1.992  11.491  0.00  0.00    +0.045 C 
ATOM     12  C   UNL     1       0.141   2.733  10.179  0.00  0.00    -0.031 A 
ATOM     13  C   UNL     1       0.127   4.106  10.115  0.00  0.00    +0.011 A 
ATOM     14  C   UNL     1       0.085   4.709   8.901  0.00  0.00    +0.046 A 
ATOM     15  S   UNL     1       0.064   3.433   7.808  0.00  0.00    -0.092 S 
ATOM     16  C   UNL     1       0.116   2.073   8.960  0.00  0.00    +0.078 A 
ENDBRANCH   7  16
ENDBRANCH   1   9
BRANCH   4  17
ATOM     17  C   UNL     1      -0.196  -3.905   6.774  0.00  0.00    +0.104 C 
ATOM     18  C   UNL     1       1.049  -4.795   6.782  0.00  0.00    +0.033 C 
BRANCH  17  19
ATOM     19  C   UNL     1      -1.425  -4.763   6.621  0.00  0.00    -0.024 A 
ATOM     20  C   UNL     1      -1.432  -6.054   7.115  0.00  0.00    +0.008 A 
ATOM     21  C   UNL     1      -2.559  -6.843   6.976  0.00  0.00    +0.041 A 
ATOM     22  C   UNL     1      -3.681  -6.340   6.341  0.00  0.00    +0.158 A 
ATOM     23  C   UNL     1      -3.674  -5.045   5.846  0.00  0.00    +0.159 A 
ATOM     24  C   UNL     1      -2.546  -4.256   5.991  0.00  0.00    +0.046 A 
ATOM     25  F   UNL     1      -4.769  -4.553   5.225  0.00  0.00    -0.202 F 
ATOM     26  F   UNL     1      -4.783  -7.111   6.204  0.00  0.00    -0.202 F 
ENDBRANCH  17  19
ENDBRANCH   4  17
TORSDOF 4
