REMARK  Name = ZINC30578157
REMARK  10 active torsions:
REMARK  status: ('A' for Active; 'I' for Inactive)
REMARK    1  A    between atoms: C_1  and  C_2
REMARK    2  A    between atoms: C_5  and  C_33
REMARK    3  A    between atoms: C_6  and  N_8
REMARK    4  A    between atoms: C_9  and  C_11
REMARK    5  A    between atoms: C_11  and  C_13
REMARK    6  A    between atoms: C_11  and  N_14
REMARK    7  A    between atoms: N_17  and  S_20
REMARK    8  A    between atoms: S_20  and  C_23
REMARK    9  A    between atoms: C_25  and  N_30
REMARK   10  A    between atoms: C_28  and  C_29
REMARK                            x       y       z     vdW  Elec       q    Type
REMARK                         _______ _______ _______ _____ _____    ______ ____
ROOT
ATOM      1  N   UNL     1      -1.856   4.966   0.540  0.00  0.00    +0.389 N 
ATOM      2  C   UNL     1      -1.083   5.497   1.670  0.00  0.00    -0.060 C 
ATOM      3  C   UNL     1      -0.697   6.952   1.382  0.00  0.00    +0.091 C 
ATOM      4  N   UNL     1      -1.918   7.704   1.056  0.00  0.00    -0.180 NA
ATOM      5  C   UNL     1      -2.816   7.160   0.026  0.00  0.00    +0.091 C 
ATOM      6  C   UNL     1      -3.119   5.697   0.367  0.00  0.00    -0.060 C 
ATOM      7  H   UNL     1      -1.258   5.112  -0.372  0.00  0.00    -0.081 HD
ENDROOT
BRANCH   4   8
ATOM      8  S   UNL     1      -2.273   9.125   1.828  0.00  0.00    +0.061 S 
ATOM      9  O   UNL     1      -1.031   9.707   2.200  0.00  0.00    -0.153 OA
ATOM     10  O   UNL     1      -3.219   9.805   1.014  0.00  0.00    -0.153 OA
BRANCH   8  11
ATOM     11  C   UNL     1      -3.104   8.711   3.326  0.00  0.00    +0.111 A 
ATOM     12  C   UNL     1      -2.483   8.925   4.543  0.00  0.00    +0.061 A 
ATOM     13  C   UNL     1      -3.136   8.603   5.718  0.00  0.00    +0.128 A 
ATOM     14  C   UNL     1      -4.407   8.059   5.676  0.00  0.00    +0.033 A 
ATOM     15  C   UNL     1      -5.025   7.841   4.459  0.00  0.00    +0.007 A 
ATOM     16  C   UNL     1      -4.374   8.166   3.284  0.00  0.00    -0.024 A 
ATOM     17  C   UNL     1      -5.048   7.928   1.958  0.00  0.00    +0.046 C 
BRANCH  13  18
ATOM     18  N   UNL     1      -2.473   8.836   7.020  0.00  0.00    +0.056 N 
ATOM     19  O   UNL     1      -3.047   8.550   8.056  0.00  0.00    -0.126 OA
ATOM     20  O   UNL     1      -1.354   9.315   7.057  0.00  0.00    -0.126 OA
ENDBRANCH  13  18
ENDBRANCH   8  11
ENDBRANCH   4   8
BRANCH   1  21
ATOM     21  C   UNL     1      -2.099   3.526   0.698  0.00  0.00    +0.017 C 
ATOM     22  C   UNL     1      -3.197   3.306   1.740  0.00  0.00    -0.004 C 
BRANCH  21  24
ATOM     23  N   UNL     1      -2.539   1.605  -0.797  0.00  0.00    -0.287 N 
ATOM     24  C   UNL     1      -2.533   2.942  -0.621  0.00  0.00    +0.203 C 
ATOM     25  O   UNL     1      -2.876   3.674  -1.525  0.00  0.00    -0.277 OA
ATOM     26  H   UNL     1      -2.301   0.939   0.045  0.00  0.00    +0.155 HD
BRANCH  23  32
ATOM     27  C   UNL     1      -4.889   1.975  -5.099  0.00  0.00    +0.044 C 
ATOM     28  C   UNL     1      -3.989   1.222  -4.154  0.00  0.00    -0.049 A 
ATOM     29  C   UNL     1      -3.473  -0.007  -4.523  0.00  0.00    +0.004 A 
ATOM     30  C   UNL     1      -2.646  -0.701  -3.659  0.00  0.00    +0.005 A 
ATOM     31  C   UNL     1      -2.334  -0.168  -2.423  0.00  0.00    -0.029 A 
ATOM     32  C   UNL     1      -2.850   1.066  -2.050  0.00  0.00    +0.036 A 
ATOM     33  C   UNL     1      -3.679   1.760  -2.921  0.00  0.00    +0.027 A 
ATOM     34  C   UNL     1      -1.434  -0.926  -1.481  0.00  0.00    +0.045 C 
ENDBRANCH  23  32
ENDBRANCH  21  24
ENDBRANCH   1  21
TORSDOF 6
