REMARK  Name = ZINC08860921
REMARK  6 active torsions:
REMARK  status: ('A' for Active; 'I' for Inactive)
REMARK    1  A    between atoms: C_4  and  C_7
REMARK    2  A    between atoms: C_13  and  C_15
REMARK    3  A    between atoms: N_17  and  N_18
REMARK    4  A    between atoms: N_18  and  C_19
REMARK    5  A    between atoms: C_22  and  C_27
REMARK    6  A    between atoms: C_27  and  C_28
REMARK                            x       y       z     vdW  Elec       q    Type
REMARK                         _______ _______ _______ _____ _____    ______ ____
ROOT
ATOM      1  N   UNL     1       1.295  -3.407   3.343  0.00  0.00    -0.271 N 
ATOM      2  H   UNL     1       0.519  -3.358   2.763  0.00  0.00    +0.169 HD
ENDROOT
BRANCH   1   3
ATOM      3  C   UNL     1       1.224  -4.077   4.503  0.00  0.00    +0.099 C 
ATOM      4  C   UNL     1       0.003  -4.602   4.933  0.00  0.00    +0.037 C 
ATOM      5  C   UNL     1      -0.063  -5.439   6.068  0.00  0.00    +0.017 C 
ATOM      6  C   UNL     1      -1.261  -5.940   6.471  0.00  0.00    -0.042 C 
ATOM      7  C   UNL     1      -2.438  -5.647   5.789  0.00  0.00    +0.008 C 
ATOM      8  C   UNL     1      -2.444  -4.847   4.688  0.00  0.00    +0.052 C 
ATOM      9  C   UNL     1      -1.242  -4.290   4.218  0.00  0.00    +0.187 C 
ATOM     10  O   UNL     1      -1.232  -3.564   3.233  0.00  0.00    -0.287 OA
BRANCH   6  11
ATOM     11  C   UNL     1      -1.315  -6.833   7.684  0.00  0.00    +0.071 C 
BRANCH  11  12
ATOM     12  C   UNL     1      -1.651  -6.009   8.900  0.00  0.00    -0.025 A 
ATOM     13  C   UNL     1      -0.640  -5.521   9.706  0.00  0.00    +0.005 A 
ATOM     14  C   UNL     1      -0.948  -4.765  10.821  0.00  0.00    +0.000 A 
ATOM     15  C   UNL     1      -2.269  -4.496  11.131  0.00  0.00    +0.001 A 
ATOM     16  C   UNL     1      -3.281  -4.983  10.326  0.00  0.00    +0.020 A 
ATOM     17  C   UNL     1      -2.972  -5.735   9.206  0.00  0.00    +0.044 A 
ATOM     18 CL   UNL     1      -4.243  -6.342   8.191  0.00  0.00    -0.083 Cl
ENDBRANCH  11  12
ENDBRANCH   6  11
ENDBRANCH   1   3
BRANCH   1  21
ATOM     19  C   UNL     1       2.560  -2.104   1.804  0.00  0.00    +0.242 C 
ATOM     20  O   UNL     1       1.590  -2.043   1.079  0.00  0.00    -0.273 OA
ATOM     21  N   UNL     1       2.489  -2.777   2.969  0.00  0.00    -0.236 N 
ATOM     22  H   UNL     1       3.265  -2.826   3.549  0.00  0.00    +0.173 HD
BRANCH  19  28
ATOM     23  C   UNL     1       3.843   0.051   1.858  0.00  0.00    +0.057 C 
ATOM     24  C   UNL     1       3.313   0.770   0.597  0.00  0.00    +0.113 C 
ATOM     25  N   UNL     1       3.656  -0.108  -0.528  0.00  0.00    -0.314 N 
ATOM     26  C   UNL     1       3.954  -1.349  -0.105  0.00  0.00    +0.226 C 
ATOM     27  O   UNL     1       4.265  -2.272  -0.828  0.00  0.00    -0.275 OA
ATOM     28  C   UNL     1       3.845  -1.427   1.402  0.00  0.00    +0.171 C 
ATOM     29  H   UNL     1       3.667   0.171  -1.456  0.00  0.00    +0.149 HD
BRANCH  23  33
ATOM     30  C   UNL     1       1.207   0.624   5.170  0.00  0.00    +0.000 A 
ATOM     31  C   UNL     1       0.692   0.410   3.905  0.00  0.00    +0.000 A 
ATOM     32  C   UNL     1       1.545   0.225   2.833  0.00  0.00    +0.004 A 
ATOM     33  C   UNL     1       2.913   0.254   3.026  0.00  0.00    -0.042 A 
ATOM     34  C   UNL     1       3.429   0.469   4.290  0.00  0.00    +0.004 A 
ATOM     35  C   UNL     1       2.575   0.653   5.362  0.00  0.00    +0.000 A 
ENDBRANCH  23  33
ENDBRANCH  19  28
ENDBRANCH   1  21
TORSDOF 6
