REMARK  Name = ZINC22187470
REMARK  12 active torsions:
REMARK  status: ('A' for Active; 'I' for Inactive)
REMARK    1  A    between atoms: C_1  and  C_2
REMARK    2  A    between atoms: C_2  and  C_3
REMARK    3  A    between atoms: C_2  and  N_4
REMARK    4  A    between atoms: N_4  and  C_5
REMARK    5  A    between atoms: N_4  and  C_32
REMARK    6  A    between atoms: C_5  and  C_6
REMARK    7  A    between atoms: C_6  and  N_7
REMARK    8  A    between atoms: C_17  and  S_18
REMARK    9  A    between atoms: S_18  and  C_19
REMARK   10  A    between atoms: C_19  and  C_20
REMARK   11  A    between atoms: C_32  and  C_33
REMARK   12  A    between atoms: C_32  and  C_34
REMARK                            x       y       z     vdW  Elec       q    Type
REMARK                         _______ _______ _______ _____ _____    ______ ____
ROOT
ATOM      1  N   UNL     1      -0.685   1.931   2.659  0.00  0.00    -0.289 N 
ATOM      2  C   UNL     1      -0.763   0.768   3.346  0.00  0.00    +0.262 A 
ATOM      3  O   UNL     1      -1.332  -0.203   2.881  0.00  0.00    -0.267 OA
ATOM      4  C   UNL     1      -0.131   0.719   4.671  0.00  0.00    +0.065 A 
ATOM      5  C   UNL     1      -0.152  -0.434   5.455  0.00  0.00    +0.015 A 
ATOM      6  C   UNL     1       0.448  -0.424   6.684  0.00  0.00    +0.001 A 
ATOM      7  C   UNL     1       1.076   0.721   7.158  0.00  0.00    +0.002 A 
ATOM      8  C   UNL     1       1.111   1.864   6.410  0.00  0.00    +0.028 A 
ATOM      9  C   UNL     1       0.507   1.886   5.150  0.00  0.00    +0.079 A 
ATOM     10  N   UNL     1       0.518   2.992   4.380  0.00  0.00    -0.223 NA
ATOM     11  C   UNL     1      -0.048   3.012   3.198  0.00  0.00    +0.172 A 
ENDROOT
BRANCH   1  12
ATOM     12  C   UNL     1      -1.294   2.034   1.330  0.00  0.00    +0.109 C 
BRANCH  12  13
ATOM     13  C   UNL     1      -0.267   1.639   0.267  0.00  0.00    -0.056 C 
BRANCH  13  14
ATOM     14  N   UNL     1      -0.877   1.742  -1.065  0.00  0.00    +0.384 N 
ATOM     15  H   UNL     1      -1.324   2.743  -1.156  0.00  0.00    -0.081 HD
BRANCH  14  17
ATOM     16  C   UNL     1       0.778   2.964  -2.394  0.00  0.00    -0.014 C 
ATOM     17  C   UNL     1       0.135   1.602  -2.120  0.00  0.00    -0.074 C 
ATOM     18  C   UNL     1       1.210   0.613  -1.668  0.00  0.00    -0.014 C 
ENDBRANCH  14  17
BRANCH  14  19
ATOM     19  C   UNL     1      -1.950   0.752  -1.231  0.00  0.00    -0.074 C 
ATOM     20  C   UNL     1      -2.741   1.065  -2.502  0.00  0.00    -0.014 C 
ATOM     21  C   UNL     1      -1.341  -0.647  -1.341  0.00  0.00    -0.014 C 
ENDBRANCH  14  19
ENDBRANCH  13  14
ENDBRANCH  12  13
ENDBRANCH   1  12
BRANCH  11  22
ATOM     22  S   UNL     1       0.016   4.503   2.261  0.00  0.00    -0.080 S 
BRANCH  22  23
ATOM     23  C   UNL     1       0.938   5.556   3.409  0.00  0.00    +0.151 C 
BRANCH  23  24
ATOM     24  C   UNL     1       1.119   6.923   2.801  0.00  0.00    +0.121 A 
ATOM     25  N   UNL     1       1.787   7.864   3.518  0.00  0.00    -0.310 N 
ATOM     26  H   UNL     1       2.177   7.619   4.518  0.00  0.00    +0.170 HD
ATOM     27  C   UNL     1       1.981   9.105   3.015  0.00  0.00    +0.259 A 
ATOM     28  O   UNL     1       2.581   9.956   3.645  0.00  0.00    -0.267 OA
ATOM     29  C   UNL     1       1.432   9.387   1.681  0.00  0.00    +0.065 A 
ATOM     30  C   UNL     1       1.572  10.634   1.075  0.00  0.00    +0.015 A 
ATOM     31  C   UNL     1       1.037  10.845  -0.177  0.00  0.00    +0.001 A 
ATOM     32  C   UNL     1       0.363   9.825  -0.838  0.00  0.00    +0.002 A 
ATOM     33  C   UNL     1       0.215   8.586  -0.257  0.00  0.00    +0.028 A 
ATOM     34  C   UNL     1       0.748   8.349   1.012  0.00  0.00    +0.078 A 
ATOM     35  N   UNL     1       0.624   7.143   1.621  0.00  0.00    -0.233 NA
ENDBRANCH  23  24
ENDBRANCH  22  23
ENDBRANCH  11  22
TORSDOF 8
