REMARK  Name = ZINC10055528
REMARK  9 active torsions:
REMARK  status: ('A' for Active; 'I' for Inactive)
REMARK    1  A    between atoms: C_1  and  C_2
REMARK    2  A    between atoms: N_10  and  C_14
REMARK    3  A    between atoms: C_14  and  C_15
REMARK    4  A    between atoms: C_15  and  O_17
REMARK    5  A    between atoms: O_17  and  C_18
REMARK    6  A    between atoms: C_18  and  C_20
REMARK    7  A    between atoms: C_18  and  C_21
REMARK    8  A    between atoms: N_23  and  C_24
REMARK    9  A    between atoms: C_24  and  C_30
REMARK                            x       y       z     vdW  Elec       q    Type
REMARK                         _______ _______ _______ _____ _____    ______ ____
ROOT
ATOM      1  C   UNL     1       2.274   0.831  -0.613  0.00  0.00    +0.326 C 
ATOM      2  O   UNL     1       1.955  -0.217  -1.123  0.00  0.00    -0.249 OA
ENDROOT
BRANCH   1   3
ATOM      3  C   UNL     1       3.709   1.288  -0.664  0.00  0.00    +0.238 C 
BRANCH   3  13
ATOM      4  C   UNL     1       7.985  -3.850  -5.060  0.00  0.00    +0.007 C 
ATOM      5  C   UNL     1       7.101  -2.629  -4.799  0.00  0.00    -0.014 C 
ATOM      6  C   UNL     1       5.777  -3.082  -4.179  0.00  0.00    +0.006 C 
ATOM      7  C   UNL     1       4.888  -1.861  -3.929  0.00  0.00    +0.035 C 
ATOM      8  C   UNL     1       5.601  -0.892  -2.993  0.00  0.00    +0.113 C 
ATOM      9  C   UNL     1       6.935  -0.451  -3.586  0.00  0.00    +0.035 C 
ATOM     10  C   UNL     1       7.816  -1.678  -3.837  0.00  0.00    +0.006 C 
ATOM     11  C   UNL     1       4.727   0.308  -2.711  0.00  0.00    +0.247 C 
ATOM     12  O   UNL     1       4.306   1.114  -3.514  0.00  0.00    -0.273 OA
ATOM     13  N   UNL     1       4.513   0.294  -1.379  0.00  0.00    -0.213 N 
ATOM     14  C   UNL     1       5.131  -0.738  -0.792  0.00  0.00    +0.310 C 
ATOM     15  O   UNL     1       5.091  -0.959   0.403  0.00  0.00    -0.252 OA
ATOM     16  N   UNL     1       5.801  -1.505  -1.673  0.00  0.00    -0.285 N 
ATOM     17  H   UNL     1       6.317  -2.302  -1.475  0.00  0.00    +0.151 HD
ENDBRANCH   3  13
ENDBRANCH   1   3
BRANCH   1  18
ATOM     18  O   UNL     1       1.349   1.588  -0.002  0.00  0.00    -0.451 OA
BRANCH  18  19
ATOM     19  C   UNL     1      -0.013   1.086   0.008  0.00  0.00    +0.259 C 
ATOM     20  C   UNL     1      -0.753   1.593  -1.232  0.00  0.00    +0.062 C 
BRANCH  19  21
ATOM     21  C   UNL     1      -0.718   1.572   1.248  0.00  0.00    +0.255 C 
ATOM     22  O   UNL     1      -0.162   2.345   1.998  0.00  0.00    -0.272 OA
ATOM     23  N   UNL     1      -1.967   1.147   1.523  0.00  0.00    -0.294 N 
ATOM     24  H   UNL     1      -2.412   0.528   0.923  0.00  0.00    +0.150 HD
BRANCH  23  25
ATOM     25  C   UNL     1      -2.653   1.619   2.728  0.00  0.00    +0.121 C 
ATOM     26  C   UNL     1      -1.845   1.219   3.965  0.00  0.00    +0.041 C 
ATOM     27  C   UNL     1      -2.562   1.712   5.223  0.00  0.00    +0.003 C 
ATOM     28  C   UNL     1      -3.954   1.083   5.298  0.00  0.00    +0.000 C 
ATOM     29  C   UNL     1      -4.761   1.483   4.061  0.00  0.00    +0.003 C 
ATOM     30  C   UNL     1      -4.045   0.990   2.803  0.00  0.00    +0.041 C 
BRANCH  25  31
ATOM     31  C   UNL     1      -2.779   3.085   2.678  0.00  0.00    +0.088 C 
ATOM     32  N   UNL     1      -2.876   4.216   2.640  0.00  0.00    -0.194 NA
ENDBRANCH  25  31
ENDBRANCH  23  25
ENDBRANCH  19  21
ENDBRANCH  18  19
ENDBRANCH   1  18
TORSDOF 7
