REMARK  Name = ZINC36301964
REMARK  17 active torsions:
REMARK  status: ('A' for Active; 'I' for Inactive)
REMARK    1  A    between atoms: C_1  and  C_2
REMARK    2  A    between atoms: C_3  and  C_22
REMARK    3  A    between atoms: C_4  and  O_14
REMARK    4  A    between atoms: N_5  and  C_7
REMARK    5  A    between atoms: O_14  and  C_15
REMARK    6  A    between atoms: C_22  and  N_23
REMARK    7  A    between atoms: N_23  and  C_24
REMARK    8  A    between atoms: N_23  and  C_28
REMARK    9  A    between atoms: C_24  and  C_25
REMARK   10  A    between atoms: C_25  and  O_26
REMARK   11  A    between atoms: O_26  and  C_27
REMARK   12  A    between atoms: C_28  and  C_29
REMARK   13  A    between atoms: C_29  and  C_31
REMARK   14  A    between atoms: C_29  and  O_36
REMARK   15  A    between atoms: C_31  and  O_32
REMARK   16  A    between atoms: O_32  and  C_33
REMARK   17  A    between atoms: C_33  and  C_34
REMARK                            x       y       z     vdW  Elec       q    Type
REMARK                         _______ _______ _______ _____ _____    ______ ____
ROOT
ATOM      1  C   UNL     1       0.340   2.170   0.389  0.00  0.00    +0.068 C 
ATOM      2  C   UNL     1       0.640   0.694   0.448  0.00  0.00    +0.065 A 
ATOM      3  C   UNL     1       0.600  -0.192  -0.633  0.00  0.00    +0.021 A 
ATOM      4  C   UNL     1       0.932  -1.427  -0.173  0.00  0.00    +0.225 A 
ATOM      5  N   UNL     1       1.174  -1.315   1.160  0.00  0.00    -0.200 N 
ATOM      6  N   UNL     1       0.988   0.026   1.518  0.00  0.00    -0.168 NA
ENDROOT
BRANCH   5   7
ATOM      7  C   UNL     1       1.548  -2.356   2.022  0.00  0.00    +0.069 A 
ATOM      8  C   UNL     1       0.936  -3.598   1.920  0.00  0.00    +0.029 A 
ATOM      9  C   UNL     1       1.306  -4.621   2.770  0.00  0.00    +0.022 A 
ATOM     10  C   UNL     1       2.286  -4.409   3.724  0.00  0.00    +0.041 A 
ATOM     11  C   UNL     1       2.898  -3.172   3.828  0.00  0.00    +0.022 A 
ATOM     12  C   UNL     1       2.535  -2.147   2.976  0.00  0.00    +0.029 A 
ATOM     13 CL   UNL     1       2.749  -5.697   4.792  0.00  0.00    -0.084 Cl
ENDBRANCH   5   7
BRANCH   4  14
ATOM     14  O   UNL     1       1.009  -2.565  -0.910  0.00  0.00    -0.438 OA
BRANCH  14  15
ATOM     15  C   UNL     1      -0.131  -3.280  -1.099  0.00  0.00    +0.133 A 
ATOM     16  C   UNL     1      -1.345  -2.787  -0.642  0.00  0.00    +0.046 A 
ATOM     17  C   UNL     1      -2.503  -3.515  -0.834  0.00  0.00    +0.006 A 
ATOM     18  C   UNL     1      -2.454  -4.736  -1.481  0.00  0.00    +0.038 A 
ATOM     19  C   UNL     1      -1.244  -5.232  -1.937  0.00  0.00    +0.127 A 
ATOM     20  C   UNL     1      -0.083  -4.503  -1.752  0.00  0.00    +0.084 A 
ATOM     21  F   UNL     1      -1.199  -6.426  -2.568  0.00  0.00    -0.205 F 
ENDBRANCH  14  15
ENDBRANCH   4  14
BRANCH   3  22
ATOM     22  C   UNL     1       0.248   0.160  -2.056  0.00  0.00    -0.036 C 
BRANCH  22  23
ATOM     23  N   UNL     1       1.469   0.536  -2.783  0.00  0.00    +0.386 N 
ATOM     24  H   UNL     1       1.939   1.279  -2.289  0.00  0.00    -0.081 HD
BRANCH  23  25
ATOM     25  C   UNL     1       2.359  -0.628  -2.879  0.00  0.00    -0.050 C 
BRANCH  25  26
ATOM     26  C   UNL     1       3.689  -0.203  -3.504  0.00  0.00    +0.141 C 
BRANCH  26  27
ATOM     27  O   UNL     1       4.341   0.734  -2.644  0.00  0.00    -0.385 OA
ATOM     28  C   UNL     1       5.600   1.198  -3.138  0.00  0.00    +0.193 C 
ENDBRANCH  26  27
ENDBRANCH  25  26
ENDBRANCH  23  25
BRANCH  23  29
ATOM     29  C   UNL     1       1.113   0.993  -4.133  0.00  0.00    -0.044 C 
BRANCH  29  30
ATOM     30  C   UNL     1       0.309   2.291  -4.036  0.00  0.00    +0.124 C 
BRANCH  30  31
ATOM     31  O   UNL     1       1.108   3.301  -3.415  0.00  0.00    -0.391 OA
ATOM     32  H   UNL     1       1.885   3.559  -3.929  0.00  0.00    +0.210 HD
ENDBRANCH  30  31
BRANCH  30  33
ATOM     33  C   UNL     1      -0.091   2.749  -5.440  0.00  0.00    +0.190 C 
BRANCH  33  34
ATOM     34  O   UNL     1      -0.938   3.896  -5.344  0.00  0.00    -0.365 OA
BRANCH  34  35
ATOM     35  C   UNL     1      -1.371   4.406  -6.607  0.00  0.00    +0.248 C 
BRANCH  35  36
ATOM     36  C   UNL     1      -2.234   5.579  -6.392  0.00  0.00    -0.077 C 
ATOM     37  C   UNL     1      -2.922   6.515  -6.221  0.00  0.00    +0.006 C 
ENDBRANCH  35  36
ENDBRANCH  34  35
ENDBRANCH  33  34
ENDBRANCH  30  33
ENDBRANCH  29  30
ENDBRANCH  23  29
ENDBRANCH  22  23
ENDBRANCH   3  22
TORSDOF 15
