REMARK  Name = ZINC66815573
REMARK  3 active torsions:
REMARK  status: ('A' for Active; 'I' for Inactive)
REMARK    1  A    between atoms: C_6  and  C_7
REMARK    2  A    between atoms: C_17  and  S_19
REMARK    3  A    between atoms: S_19  and  N_22
REMARK                            x       y       z     vdW  Elec       q    Type
REMARK                         _______ _______ _______ _____ _____    ______ ____
ROOT
ATOM      1  C   UNL     1      -1.293  -0.775   0.011  0.00  0.00    +0.166 C 
ATOM      2  C   UNL     1      -1.653  -1.155   1.452  0.00  0.00    +0.143 C 
ATOM      3  N   UNL     1      -2.812  -2.061   1.417  0.00  0.00    -0.305 N 
ATOM      4  C   UNL     1      -2.751  -3.228   0.523  0.00  0.00    +0.135 C 
ATOM      5  C   UNL     1      -2.338  -2.747  -0.873  0.00  0.00    +0.179 C 
ATOM      6  O   UNL     1      -1.146  -1.965  -0.768  0.00  0.00    -0.369 OA
ATOM      7  C   UNL     1      -3.928  -1.822   2.203  0.00  0.00    +0.163 A 
ATOM      8  N   UNL     1      -4.140  -0.831   3.043  0.00  0.00    -0.231 NA
ATOM      9  C   UNL     1      -5.269  -0.744   3.724  0.00  0.00    +0.149 A 
ATOM     10  C   UNL     1      -6.189  -1.717   3.519  0.00  0.00    +0.163 A 
ATOM     11  S   UNL     1      -5.344  -2.725   2.311  0.00  0.00    -0.032 S 
ENDROOT
BRANCH   1  17
ATOM     12  C   UNL     1      -0.017   1.378   0.010  0.00  0.00    +0.008 A 
ATOM     13  C   UNL     1       1.171   2.086   0.002  0.00  0.00    +0.022 A 
ATOM     14  C   UNL     1       2.378   1.412  -0.013  0.00  0.00    +0.059 A 
ATOM     15  C   UNL     1       2.397   0.027  -0.021  0.00  0.00    +0.060 A 
ATOM     16  C   UNL     1       1.208  -0.680  -0.013  0.00  0.00    +0.027 A 
ATOM     17  C   UNL     1       0.002  -0.004   0.002  0.00  0.00    -0.016 A 
ATOM     18 CL   UNL     1       3.912  -0.821  -0.040  0.00  0.00    -0.082 Cl
ATOM     19 CL   UNL     1       3.869   2.301  -0.023  0.00  0.00    -0.082 Cl
ENDBRANCH   1  17
BRANCH  10  20
ATOM     20  S   UNL     1      -7.783  -1.926   4.240  0.00  0.00    +0.064 S 
ATOM     21  O   UNL     1      -8.092  -3.310   4.146  0.00  0.00    -0.153 OA
ATOM     22  O   UNL     1      -7.762  -1.233   5.480  0.00  0.00    -0.153 OA
BRANCH  20  23
ATOM     23  N   UNL     1      -8.867  -1.132   3.272  0.00  0.00    -0.203 NA
ATOM     24  H   UNL     1      -8.559  -0.670   2.476  0.00  0.00    +0.144 HD
ATOM     25  H   UNL     1      -9.809  -1.129   3.500  0.00  0.00    +0.144 HD
ENDBRANCH  20  23
ENDBRANCH  10  20
TORSDOF 3
