REMARK  Name = ZINC09090431
REMARK  6 active torsions:
REMARK  status: ('A' for Active; 'I' for Inactive)
REMARK    1  A    between atoms: C_1  and  C_2
REMARK    2  A    between atoms: C_6  and  C_9
REMARK    3  A    between atoms: N_17  and  N_18
REMARK    4  A    between atoms: N_18  and  C_19
REMARK    5  A    between atoms: C_19  and  N_21
REMARK    6  A    between atoms: C_22  and  C_24
REMARK                            x       y       z     vdW  Elec       q    Type
REMARK                         _______ _______ _______ _____ _____    ______ ____
ROOT
ATOM      1  N   UNL     1      -1.633   5.091   2.803  0.00  0.00    -0.230 N 
ATOM      2  H   UNL     1      -2.087   5.404   3.601  0.00  0.00    +0.175 HD
ENDROOT
BRANCH   1  13
ATOM      3  C   UNL     1      -3.454   6.396   1.146  0.00  0.00    +0.088 C 
ATOM      4  C   UNL     1      -1.975   6.671   1.055  0.00  0.00    +0.129 A 
ATOM      5  N   UNL     1      -1.536   7.539   0.183  0.00  0.00    -0.225 NA
ATOM      6  C   UNL     1      -0.237   7.806   0.075  0.00  0.00    +0.116 A 
ATOM      7  C   UNL     1       0.720   7.174   0.886  0.00  0.00    +0.081 A 
ATOM      8  C   UNL     1       2.099   7.578   0.642  0.00  0.00    +0.004 A 
ATOM      9  C   UNL     1       2.348   8.502  -0.317  0.00  0.00    +0.056 A 
ATOM     10  S   UNL     1       0.727   8.884  -0.952  0.00  0.00    -0.076 S 
ATOM     11  C   UNL     1       0.205   6.233   1.834  0.00  0.00    +0.280 A 
ATOM     12  O   UNL     1       0.958   5.638   2.586  0.00  0.00    -0.265 OA
ATOM     13  N   UNL     1      -1.122   6.013   1.880  0.00  0.00    -0.210 N 
BRANCH   8  14
ATOM     14  C   UNL     1       3.209   6.988   1.429  0.00  0.00    -0.017 A 
ATOM     15  C   UNL     1       3.140   6.956   2.821  0.00  0.00    +0.008 A 
ATOM     16  C   UNL     1       4.173   6.401   3.547  0.00  0.00    +0.001 A 
ATOM     17  C   UNL     1       5.281   5.887   2.897  0.00  0.00    +0.000 A 
ATOM     18  C   UNL     1       5.358   5.921   1.516  0.00  0.00    +0.001 A 
ATOM     19  C   UNL     1       4.328   6.469   0.779  0.00  0.00    +0.008 A 
ENDBRANCH   8  14
ENDBRANCH   1  13
BRANCH   1  20
ATOM     20  C   UNL     1      -1.494   3.768   2.581  0.00  0.00    +0.155 C 
ATOM     21  S   UNL     1      -2.119   2.641   3.708  0.00  0.00    -0.017 S 
BRANCH  20  22
ATOM     22  N   UNL     1      -0.863   3.334   1.472  0.00  0.00    -0.266 N 
ATOM     23  C   UNL     1      -0.724   2.012   1.250  0.00  0.00    +0.225 C 
ATOM     24  O   UNL     1      -1.167   1.213   2.048  0.00  0.00    -0.275 OA
ATOM     25  H   UNL     1      -0.509   3.973   0.834  0.00  0.00    +0.157 HD
BRANCH  23  26
ATOM     26  C   UNL     1      -0.019   1.526   0.010  0.00  0.00    +0.048 C 
ATOM     27  C   UNL     1       1.417   2.055  -0.000  0.00  0.00    +0.019 C 
ATOM     28  C   UNL     1       2.133   1.562  -1.259  0.00  0.00    -0.009 C 
ATOM     29  C   UNL     1       2.154   0.032  -1.268  0.00  0.00    +0.007 C 
ATOM     30  C   UNL     1       0.718  -0.497  -1.257  0.00  0.00    -0.009 C 
ATOM     31  C   UNL     1       0.002  -0.004   0.002  0.00  0.00    +0.019 C 
ATOM     32  C   UNL     1      -0.022   0.009  -2.496  0.00  0.00    +0.007 C 
ATOM     33  C   UNL     1      -0.043   1.539  -2.488  0.00  0.00    -0.009 C 
ATOM     34  C   UNL     1       1.393   2.069  -2.499  0.00  0.00    +0.007 C 
ATOM     35  C   UNL     1      -0.759   2.033  -1.229  0.00  0.00    +0.019 C 
ENDBRANCH  23  26
ENDBRANCH  20  22
ENDBRANCH   1  20
TORSDOF 5
