REMARK  Name = ZINC08773129
REMARK  5 active torsions:
REMARK  status: ('A' for Active; 'I' for Inactive)
REMARK    1  A    between atoms: C_1  and  C_2
REMARK    2  A    between atoms: C_9  and  C_27
REMARK    3  A    between atoms: C_11  and  C_18
REMARK    4  A    between atoms: C_22  and  N_24
REMARK    5  A    between atoms: C_27  and  C_29
REMARK                            x       y       z     vdW  Elec       q    Type
REMARK                         _______ _______ _______ _____ _____    ______ ____
ROOT
ATOM      1  C   UNL     1       5.254   4.569   2.937  0.00  0.00    +0.044 C 
ATOM      2  C   UNL     1       5.414   3.472   1.916  0.00  0.00    -0.050 A 
ATOM      3  C   UNL     1       6.615   2.792   1.812  0.00  0.00    +0.005 A 
ATOM      4  C   UNL     1       6.767   1.787   0.880  0.00  0.00    +0.024 A 
ATOM      5  C   UNL     1       5.712   1.448   0.036  0.00  0.00    +0.036 A 
ATOM      6  C   UNL     1       4.509   2.139   0.150  0.00  0.00    -0.027 A 
ATOM      7  C   UNL     1       4.361   3.142   1.082  0.00  0.00    +0.008 A 
ATOM      8  C   UNL     1       3.593   1.544  -0.883  0.00  0.00    +0.052 C 
ATOM      9  C   UNL     1       3.116   2.600  -1.886  0.00  0.00    +0.069 C 
ATOM     10  C   UNL     1       1.774   3.096  -1.304  0.00  0.00    +0.016 C 
ATOM     11  C   UNL     1       1.376   2.050  -0.258  0.00  0.00    -0.047 C 
ATOM     12  C   UNL     1       1.954  -0.201  -1.080  0.00  0.00    -0.005 C 
ATOM     13  S   UNL     1       0.148  -0.233  -0.698  0.00  0.00    -0.181 S 
ATOM     14  C   UNL     1      -0.073   1.584  -0.470  0.00  0.00    +0.052 C 
ATOM     15  C   UNL     1       4.410   0.476  -1.559  0.00  0.00    +0.212 C 
ATOM     16  O   UNL     1       4.048  -0.252  -2.459  0.00  0.00    -0.277 OA
ATOM     17  N   UNL     1       5.622   0.485  -0.971  0.00  0.00    -0.286 N 
ATOM     18  H   UNL     1       6.348  -0.109  -1.218  0.00  0.00    +0.155 HD
ATOM     19  N   UNL     1       2.401   0.991  -0.274  0.00  0.00    +0.401 N 
ATOM     20  H   UNL     1       2.601   0.694   0.688  0.00  0.00    -0.078 HD
ENDROOT
BRANCH  10  21
ATOM     21  C   UNL     1       0.731   3.174  -2.389  0.00  0.00    -0.043 A 
ATOM     22  C   UNL     1       0.589   2.132  -3.287  0.00  0.00    +0.004 A 
ATOM     23  C   UNL     1      -0.368   2.204  -4.282  0.00  0.00    +0.002 A 
ATOM     24  C   UNL     1      -1.183   3.316  -4.379  0.00  0.00    +0.033 A 
ATOM     25  C   UNL     1      -1.041   4.357  -3.481  0.00  0.00    +0.126 A 
ATOM     26  C   UNL     1      -0.087   4.284  -2.482  0.00  0.00    +0.036 A 
BRANCH  25  27
ATOM     27  N   UNL     1      -1.913   5.548  -3.585  0.00  0.00    +0.056 N 
ATOM     28  O   UNL     1      -2.756   5.611  -4.462  0.00  0.00    -0.126 OA
ATOM     29  O   UNL     1      -1.788   6.466  -2.793  0.00  0.00    -0.126 OA
ENDBRANCH  25  27
ENDBRANCH  10  21
BRANCH   9  30
ATOM     30  C   UNL     1       4.106   3.733  -1.970  0.00  0.00    +0.166 C 
ATOM     31  O   UNL     1       3.988   4.696  -1.243  0.00  0.00    -0.292 OA
BRANCH  30  32
ATOM     32  C   UNL     1       5.216   3.671  -2.934  0.00  0.00    +0.018 A 
ATOM     33  C   UNL     1       5.359   2.559  -3.770  0.00  0.00    +0.011 A 
ATOM     34  C   UNL     1       6.399   2.510  -4.674  0.00  0.00    +0.001 A 
ATOM     35  C   UNL     1       7.306   3.553  -4.749  0.00  0.00    +0.000 A 
ATOM     36  C   UNL     1       7.174   4.654  -3.921  0.00  0.00    +0.001 A 
ATOM     37  C   UNL     1       6.137   4.720  -3.015  0.00  0.00    +0.011 A 
ENDBRANCH  30  32
ENDBRANCH   9  30
TORSDOF 4
