REMARK  Name = ZINC39229439
REMARK  6 active torsions:
REMARK  status: ('A' for Active; 'I' for Inactive)
REMARK    1  A    between atoms: C_1  and  C_2
REMARK    2  A    between atoms: C_9  and  C_10
REMARK    3  A    between atoms: C_9  and  C_11
REMARK    4  A    between atoms: C_13  and  N_15
REMARK    5  A    between atoms: C_16  and  C_18
REMARK    6  A    between atoms: C_28  and  C_31
REMARK                            x       y       z     vdW  Elec       q    Type
REMARK                         _______ _______ _______ _____ _____    ______ ____
ROOT
ATOM      1  C   UNL     1      -2.048  -0.277   3.660  0.00  0.00    +0.055 A 
ATOM      2  C   UNL     1      -1.992  -0.201   5.061  0.00  0.00    +0.018 A 
ATOM      3  C   UNL     1      -3.163  -0.266   5.765  0.00  0.00    +0.044 A 
ATOM      4  C   UNL     1      -4.368  -0.404   5.078  0.00  0.00    +0.121 A 
ATOM      5  N   UNL     1      -4.393  -0.473   3.754  0.00  0.00    -0.240 NA
ATOM      6  C   UNL     1      -3.290  -0.409   3.038  0.00  0.00    +0.126 A 
ATOM      7  N   UNL     1      -5.555  -0.469   5.788  0.00  0.00    -0.318 N 
ATOM      8  C   UNL     1      -6.812  -0.851   5.126  0.00  0.00    +0.087 C 
ATOM      9  C   UNL     1      -7.880   0.192   5.474  0.00  0.00    -0.062 C 
ATOM     10  N   UNL     1      -7.979   0.321   6.933  0.00  0.00    +0.386 N 
ATOM     11  C   UNL     1      -6.720   0.849   7.474  0.00  0.00    -0.023 C 
ATOM     12  C   UNL     1      -5.594  -0.166   7.227  0.00  0.00    +0.095 C 
ATOM     13  H   UNL     1      -8.733   0.951   7.163  0.00  0.00    -0.085 HD
ATOM     14  H   UNL     1      -8.164  -0.584   7.338  0.00  0.00    -0.085 HD
ENDROOT
BRANCH  11  15
ATOM     15  C   UNL     1      -6.869   1.082   8.956  0.00  0.00    -0.060 A 
ATOM     16  C   UNL     1      -7.555   0.168   9.733  0.00  0.00    +0.002 A 
ATOM     17  C   UNL     1      -7.692   0.381  11.092  0.00  0.00    +0.000 A 
ATOM     18  C   UNL     1      -7.141   1.507  11.674  0.00  0.00    +0.000 A 
ATOM     19  C   UNL     1      -6.453   2.421  10.897  0.00  0.00    +0.000 A 
ATOM     20  C   UNL     1      -6.313   2.205   9.539  0.00  0.00    +0.002 A 
ENDBRANCH  11  15
BRANCH   1  22
ATOM     21  N   UNL     1      -0.877  -0.279   1.513  0.00  0.00    -0.308 N 
ATOM     22  C   UNL     1      -0.812  -0.211   2.857  0.00  0.00    +0.246 C 
ATOM     23  O   UNL     1       0.266  -0.096   3.408  0.00  0.00    -0.270 OA
ATOM     24  H   UNL     1      -1.737  -0.371   1.073  0.00  0.00    +0.149 HD
BRANCH  21  34
ATOM     25  C   UNL     1       0.140   1.830  -0.735  0.00  0.00    +0.009 C 
ATOM     26  C   UNL     1       0.014   0.305  -0.680  0.00  0.00    +0.010 C 
ATOM     27  C   UNL     1       0.862  -0.349  -1.771  0.00  0.00    -0.000 C 
ATOM     28  C   UNL     1       0.569  -1.870  -1.803  0.00  0.00    +0.008 C 
ATOM     29  C   UNL     1       1.617  -1.937  -0.672  0.00  0.00    -0.003 C 
ATOM     30  C   UNL     1       2.284  -0.742  -1.368  0.00  0.00    -0.029 C 
ATOM     31  C   UNL     1       3.036   0.215  -0.449  0.00  0.00    +0.011 C 
ATOM     32  C   UNL     1       3.162  -1.156  -2.566  0.00  0.00    +0.011 C 
ATOM     33  C   UNL     1       0.999  -1.598   0.683  0.00  0.00    +0.026 C 
ATOM     34  C   UNL     1       0.359  -0.214   0.709  0.00  0.00    +0.077 C 
ENDBRANCH  21  34
ENDBRANCH   1  22
TORSDOF 3
