REMARK  Name = ZINC09075570
REMARK  10 active torsions:
REMARK  status: ('A' for Active; 'I' for Inactive)
REMARK    1  A    between atoms: C_1  and  C_2
REMARK    2  A    between atoms: C_2  and  O_3
REMARK    3  A    between atoms: O_3  and  C_4
REMARK    4  A    between atoms: C_4  and  C_6
REMARK    5  A    between atoms: C_10  and  N_11
REMARK    6  A    between atoms: N_11  and  C_12
REMARK    7  A    between atoms: C_13  and  C_14
REMARK    8  A    between atoms: C_13  and  C_16
REMARK    9  A    between atoms: C_18  and  C_21
REMARK   10  A    between atoms: C_24  and  C_27
REMARK                            x       y       z     vdW  Elec       q    Type
REMARK                         _______ _______ _______ _____ _____    ______ ____
ROOT
ATOM      1  C   UNL     1      -1.123  -2.788  -5.145  0.00  0.00    +0.094 C 
ATOM      2  C   UNL     1      -2.454  -2.622  -5.384  0.00  0.00    +0.098 C 
ENDROOT
BRANCH   2   3
ATOM      3  C   UNL     1      -3.017  -2.980  -6.700  0.00  0.00    +0.120 A 
ATOM      4  N   UNL     1      -4.267  -2.890  -7.130  0.00  0.00    -0.238 NA
ATOM      5  C   UNL     1      -4.599  -3.261  -8.355  0.00  0.00    +0.079 A 
ATOM      6  C   UNL     1      -3.633  -3.746  -9.195  0.00  0.00    +0.075 A 
ATOM      7  S   UNL     1      -2.193  -3.644  -8.141  0.00  0.00    -0.074 S 
BRANCH   5   8
ATOM      8  C   UNL     1      -6.005  -3.152  -8.814  0.00  0.00    +0.001 A 
ATOM      9  C   UNL     1      -6.352  -3.550 -10.104  0.00  0.00    +0.010 A 
ATOM     10  C   UNL     1      -7.662  -3.446 -10.527  0.00  0.00    +0.004 A 
ATOM     11  C   UNL     1      -8.629  -2.948  -9.672  0.00  0.00    -0.044 A 
ATOM     12  C   UNL     1      -8.290  -2.552  -8.391  0.00  0.00    +0.004 A 
ATOM     13  C   UNL     1      -6.985  -2.657  -7.956  0.00  0.00    +0.010 A 
BRANCH  11  14
ATOM     14  C   UNL     1     -10.058  -2.837 -10.139  0.00  0.00    +0.019 C 
ATOM     15  C   UNL     1     -10.504  -1.375 -10.072  0.00  0.00    +0.008 C 
ATOM     16  C   UNL     1     -11.954  -1.263 -10.547  0.00  0.00    +0.001 C 
ATOM     17  C   UNL     1     -12.853  -2.112  -9.646  0.00  0.00    +0.000 C 
ATOM     18  C   UNL     1     -12.407  -3.574  -9.713  0.00  0.00    +0.001 C 
ATOM     19  C   UNL     1     -10.956  -3.687  -9.239  0.00  0.00    +0.008 C 
ENDBRANCH  11  14
ENDBRANCH   5   8
ENDBRANCH   2   3
BRANCH   1  20
ATOM     20  N   UNL     1      -0.601  -2.455  -3.925  0.00  0.00    -0.313 N 
ATOM     21  H   UNL     1      -1.178  -2.101  -3.231  0.00  0.00    +0.152 HD
BRANCH  20  26
ATOM     22  C   UNL     1       1.449  -2.344  -2.516  0.00  0.00    +0.091 A 
ATOM     23  C   UNL     1       2.875  -2.619  -2.515  0.00  0.00    -0.021 A 
ATOM     24  C   UNL     1       3.342  -3.118  -3.680  0.00  0.00    -0.004 A 
ATOM     25  S   UNL     1       1.922  -3.212  -4.731  0.00  0.00    -0.077 S 
ATOM     26  C   UNL     1       0.750  -2.624  -3.682  0.00  0.00    +0.084 A 
ATOM     27  C   UNL     1       4.756  -3.499  -3.993  0.00  0.00    +0.043 C 
ATOM     28  C   UNL     1       5.669  -2.888  -2.919  0.00  0.00    +0.005 C 
ATOM     29  C   UNL     1       5.082  -3.191  -1.538  0.00  0.00    +0.005 C 
ATOM     30  C   UNL     1       3.799  -2.383  -1.329  0.00  0.00    +0.037 C 
BRANCH  22  31
ATOM     31  C   UNL     1       0.776  -1.800  -1.335  0.00  0.00    +0.342 C 
ATOM     32  O   UNL     1       0.312  -2.552  -0.499  0.00  0.00    -0.245 OA
BRANCH  31  33
ATOM     33  O   UNL     1       0.671  -0.465  -1.174  0.00  0.00    -0.461 OA
BRANCH  33  35
ATOM     34  C   UNL     1      -0.019   1.526   0.010  0.00  0.00    +0.048 C 
ATOM     35  C   UNL     1       0.002  -0.004   0.002  0.00  0.00    +0.229 C 
ENDBRANCH  33  35
ENDBRANCH  31  33
ENDBRANCH  22  31
ENDBRANCH  20  26
ENDBRANCH   1  20
BRANCH   2  36
ATOM     36  C   UNL     1      -3.306  -2.099  -4.359  0.00  0.00    +0.103 C 
ATOM     37  N   UNL     1      -3.982  -1.684  -3.546  0.00  0.00    -0.191 NA
ENDBRANCH   2  36
TORSDOF 9
