REMARK  Name = ZINC35790743
REMARK  7 active torsions:
REMARK  status: ('A' for Active; 'I' for Inactive)
REMARK    1  A    between atoms: C_1  and  O_2
REMARK    2  A    between atoms: O_2  and  C_3
REMARK    3  A    between atoms: C_5  and  C_11
REMARK    4  A    between atoms: C_7  and  O_9
REMARK    5  A    between atoms: O_9  and  C_10
REMARK    6  A    between atoms: C_11  and  N_12
REMARK    7  A    between atoms: C_21  and  C_23
REMARK                            x       y       z     vdW  Elec       q    Type
REMARK                         _______ _______ _______ _____ _____    ______ ____
ROOT
ATOM      1  N   UNL     1      -0.066  -4.637  -2.882  0.00  0.00    +0.391 N 
ATOM      2  C   UNL     1      -0.103  -3.962  -4.182  0.00  0.00    -0.075 C 
ATOM      3  C   UNL     1      -1.244  -4.492  -5.041  0.00  0.00    +0.003 C 
ATOM      4  C   UNL     1      -2.433  -4.866  -4.151  0.00  0.00    +0.119 C 
ATOM      5  N   UNL     1      -2.279  -6.257  -3.711  0.00  0.00    -0.352 N 
ATOM      6  C   UNL     1      -3.244  -7.218  -3.717  0.00  0.00    +0.086 A 
ATOM      7  C   UNL     1      -2.711  -8.354  -3.220  0.00  0.00    +0.019 A 
ATOM      8  C   UNL     1      -1.365  -8.084  -2.900  0.00  0.00    +0.021 A 
ATOM      9  C   UNL     1      -1.126  -6.797  -3.217  0.00  0.00    +0.010 A 
ATOM     10  C   UNL     1       0.190  -6.072  -3.067  0.00  0.00    +0.013 C 
ATOM     11  H   UNL     1      -0.952  -4.512  -2.416  0.00  0.00    -0.080 HD
ENDROOT
BRANCH  10  12
ATOM     12  C   UNL     1       0.927  -6.610  -1.867  0.00  0.00    -0.020 A 
ATOM     13  C   UNL     1       0.398  -6.448  -0.601  0.00  0.00    +0.005 A 
ATOM     14  C   UNL     1       1.074  -6.941   0.499  0.00  0.00    +0.000 A 
ATOM     15  C   UNL     1       2.280  -7.598   0.334  0.00  0.00    +0.003 A 
ATOM     16  C   UNL     1       2.810  -7.762  -0.931  0.00  0.00    +0.038 A 
ATOM     17  C   UNL     1       2.131  -7.272  -2.035  0.00  0.00    +0.125 A 
ATOM     18  F   UNL     1       2.646  -7.436  -3.273  0.00  0.00    -0.205 F 
ENDBRANCH  10  12
BRANCH   1  19
ATOM     19  C   UNL     1       1.004  -4.053  -2.061  0.00  0.00    -0.041 C 
BRANCH  19  22
ATOM     20  C   UNL     1      -0.318  -0.906  -0.438  0.00  0.00    +0.124 A 
ATOM     21  C   UNL     1      -0.036  -2.242  -0.684  0.00  0.00    +0.047 A 
ATOM     22  C   UNL     1       0.699  -2.601  -1.797  0.00  0.00    -0.057 A 
ATOM     23  C   UNL     1       1.155  -1.631  -2.669  0.00  0.00    +0.047 A 
ATOM     24  C   UNL     1       0.875  -0.293  -2.428  0.00  0.00    +0.124 A 
ATOM     25  C   UNL     1       0.133   0.069  -1.315  0.00  0.00    +0.091 A 
BRANCH  20  27
ATOM     26  C   UNL     1      -1.298   0.840   0.844  0.00  0.00    +0.277 C 
ATOM     27  O   UNL     1      -1.041  -0.553   0.657  0.00  0.00    -0.495 OA
ENDBRANCH  20  27
BRANCH  24  28
ATOM     28  O   UNL     1       1.325   0.660  -3.286  0.00  0.00    -0.495 OA
ATOM     29  C   UNL     1       0.999   2.017  -2.976  0.00  0.00    +0.277 C 
ENDBRANCH  24  28
ENDBRANCH  19  22
ENDBRANCH   1  19
TORSDOF 5
