REMARK  Name = ZINC36310285
REMARK  16 active torsions:
REMARK  status: ('A' for Active; 'I' for Inactive)
REMARK    1  A    between atoms: C_1  and  C_2
REMARK    2  A    between atoms: C_2  and  C_3
REMARK    3  A    between atoms: C_3  and  N_4
REMARK    4  A    between atoms: N_4  and  C_5
REMARK    5  A    between atoms: N_4  and  C_28
REMARK    6  A    between atoms: C_5  and  C_6
REMARK    7  A    between atoms: C_16  and  C_18
REMARK    8  A    between atoms: C_18  and  O_19
REMARK    9  A    between atoms: O_19  and  C_20
REMARK   10  A    between atoms: C_23  and  C_27
REMARK   11  A    between atoms: C_25  and  C_26
REMARK   12  A    between atoms: C_28  and  C_30
REMARK   13  A    between atoms: C_28  and  C_31
REMARK   14  A    between atoms: C_31  and  C_32
REMARK   15  A    between atoms: C_31  and  C_33
REMARK   16  A    between atoms: C_31  and  O_34
REMARK                            x       y       z     vdW  Elec       q    Type
REMARK                         _______ _______ _______ _____ _____    ______ ____
ROOT
ATOM      1  C   UNL     1      -1.040  -2.544   0.606  0.00  0.00    +0.200 C 
ATOM      2  O   UNL     1      -0.460  -1.889   1.446  0.00  0.00    -0.278 OA
ATOM      3  N   UNL     1      -2.100  -3.299   0.956  0.00  0.00    -0.292 N 
ATOM      4  C   UNL     1      -2.809  -4.102  -0.053  0.00  0.00    +0.113 C 
ATOM      5  C   UNL     1      -4.237  -3.554  -0.189  0.00  0.00    +0.061 C 
ATOM      6  C   UNL     1      -4.776  -3.274   1.176  0.00  0.00    -0.004 A 
ATOM      7  C   UNL     1      -4.082  -3.158   2.341  0.00  0.00    -0.014 A 
ATOM      8  C   UNL     1      -4.825  -2.883   3.487  0.00  0.00    +0.013 A 
ATOM      9  C   UNL     1      -6.169  -2.752   3.407  0.00  0.00    +0.046 A 
ATOM     10  S   UNL     1      -6.461  -3.014   1.664  0.00  0.00    -0.101 S 
ATOM     11  C   UNL     1      -2.561  -3.337   2.350  0.00  0.00    +0.144 C 
ENDROOT
BRANCH   1  12
ATOM     12  C   UNL     1      -0.577  -2.512  -0.828  0.00  0.00    +0.019 C 
BRANCH  12  13
ATOM     13  N   UNL     1       0.667  -1.738  -0.923  0.00  0.00    +0.389 N 
ATOM     14  H   UNL     1       0.533  -0.831  -0.502  0.00  0.00    -0.081 HD
BRANCH  13  15
ATOM     15  C   UNL     1       1.742  -2.450  -0.218  0.00  0.00    -0.039 C 
ATOM     16  C   UNL     1       2.059  -3.753  -0.954  0.00  0.00    -0.010 C 
BRANCH  15  17
ATOM     17  C   UNL     1       2.994  -1.571  -0.176  0.00  0.00    +0.049 C 
ATOM     18  C   UNL     1       2.627  -0.187   0.363  0.00  0.00    +0.039 C 
ATOM     19  C   UNL     1       4.038  -2.214   0.738  0.00  0.00    +0.039 C 
BRANCH  17  20
ATOM     20  O   UNL     1       3.530  -1.442  -1.495  0.00  0.00    -0.391 OA
ATOM     21  H   UNL     1       4.327  -0.896  -1.544  0.00  0.00    +0.210 HD
ENDBRANCH  17  20
ENDBRANCH  15  17
ENDBRANCH  13  15
BRANCH  13  22
ATOM     22  C   UNL     1       1.034  -1.573  -2.336  0.00  0.00    -0.078 C 
BRANCH  22  24
ATOM     23  C   UNL     1       0.393  -0.480  -4.489  0.00  0.00    +0.002 C 
ATOM     24  C   UNL     1      -0.052  -0.769  -3.054  0.00  0.00    -0.022 C 
ENDBRANCH  22  24
ENDBRANCH  13  22
ENDBRANCH  12  13
ENDBRANCH   1  12
BRANCH  11  25
ATOM     25  C   UNL     1      -2.198  -4.684   2.979  0.00  0.00    +0.256 C 
BRANCH  25  26
ATOM     26  O   UNL     1      -2.917  -5.728   2.318  0.00  0.00    -0.490 OA
BRANCH  26  27
ATOM     27  C   UNL     1      -2.707  -6.996   2.759  0.00  0.00    +0.124 A 
ATOM     28  C   UNL     1      -1.831  -7.231   3.809  0.00  0.00    +0.046 A 
ATOM     29  C   UNL     1      -1.620  -8.521   4.255  0.00  0.00    +0.007 A 
ATOM     30  C   UNL     1      -2.281  -9.578   3.656  0.00  0.00    -0.050 A 
ATOM     31  C   UNL     1      -3.154  -9.346   2.609  0.00  0.00    +0.010 A 
ATOM     32  C   UNL     1      -3.373  -8.057   2.163  0.00  0.00    -0.009 A 
ATOM     33  C   UNL     1      -4.329  -7.805   1.026  0.00  0.00    +0.047 C 
ATOM     34  C   UNL     1      -2.049 -10.985   4.145  0.00  0.00    +0.044 C 
ENDBRANCH  26  27
ENDBRANCH  25  26
ENDBRANCH  11  25
TORSDOF 10
