REMARK  Name = ZINC04942628
REMARK  3 active torsions:
REMARK  status: ('A' for Active; 'I' for Inactive)
REMARK    1  A    between atoms: C_3  and  C_6
REMARK    2  A    between atoms: C_9  and  C_11
REMARK    3  A    between atoms: C_9  and  O_15
REMARK                            x       y       z     vdW  Elec       q    Type
REMARK                         _______ _______ _______ _____ _____    ______ ____
ROOT
ATOM      1  C   UNL     1       3.236   1.905  -0.282  0.00  0.00    +0.106 C 
ATOM      2  N   UNL     1       3.720   0.719  -0.111  0.00  0.00    -0.175 NA
ATOM      3  N   UNL     1       2.788  -0.304  -0.274  0.00  0.00    -0.149 N 
ATOM      4  C   UNL     1       1.483   0.290  -0.604  0.00  0.00    +0.257 C 
ATOM      5  C   UNL     1       1.765   1.805  -0.615  0.00  0.00    +0.127 C 
ATOM      6  C   UNL     1       3.047  -1.657  -0.146  0.00  0.00    +0.258 C 
ATOM      7  N   UNL     1       2.040  -2.412  -0.340  0.00  0.00    -0.143 NA
ATOM      8  N   UNL     1       2.075  -3.797  -0.381  0.00  0.00    -0.223 N 
ATOM      9  C   UNL     1       2.922  -4.537   0.376  0.00  0.00    +0.093 C 
ATOM     10  C   UNL     1       4.397  -4.523   0.112  0.00  0.00    +0.146 C 
ATOM     11  C   UNL     1       4.965  -3.148   0.342  0.00  0.00    +0.143 A 
ATOM     12  N   UNL     1       4.352  -1.965   0.164  0.00  0.00    -0.183 N 
ATOM     13  N   UNL     1       5.338  -0.982   0.422  0.00  0.00    -0.151 NA
ATOM     14  C   UNL     1       6.421  -1.610   0.786  0.00  0.00    +0.245 A 
ATOM     15  N   UNL     1       6.193  -2.919   0.750  0.00  0.00    -0.218 NA
ATOM     16  H   UNL     1       1.466  -4.258  -0.978  0.00  0.00    +0.176 HD
ATOM     17  H   UNL     1       1.512  -5.344   1.593  0.00  0.00    +0.157 HD
ATOM     18  N   UNL     1       2.506  -5.297   1.369  0.00  0.00    -0.389 N 
ATOM     19  H   UNL     1       3.183  -5.841   1.917  0.00  0.00    +0.157 HD
ENDROOT
BRANCH   1  22
ATOM     20  C   UNL     1       5.629   4.634   0.132  0.00  0.00    +0.042 A 
ATOM     21  C   UNL     1       5.324   3.260   0.130  0.00  0.00    +0.051 A 
ATOM     22  C   UNL     1       3.997   3.153  -0.169  0.00  0.00    +0.150 A 
ATOM     23  O   UNL     1       3.508   4.397  -0.350  0.00  0.00    -0.462 OA
ATOM     24  C   UNL     1       4.491   5.294  -0.163  0.00  0.00    +0.196 A 
ENDBRANCH   1  22
BRANCH   4  25
ATOM     25  C   UNL     1       1.007  -0.179  -1.981  0.00  0.00    +0.438 C 
ATOM     26  F   UNL     1       1.996   0.091  -2.932  0.00  0.00    -0.166 F 
ATOM     27  F   UNL     1       0.758  -1.555  -1.944  0.00  0.00    -0.166 F 
ATOM     28  F   UNL     1      -0.168   0.499  -2.324  0.00  0.00    -0.166 F 
ENDBRANCH   4  25
BRANCH   4  29
ATOM     29  O   UNL     1       0.516  -0.034   0.397  0.00  0.00    -0.363 OA
ATOM     30  H   UNL     1       0.301  -0.976   0.447  0.00  0.00    +0.212 HD
ENDBRANCH   4  29
TORSDOF 3
