REMARK  Name = ZINC39355340
REMARK  10 active torsions:
REMARK  status: ('A' for Active; 'I' for Inactive)
REMARK    1  A    between atoms: C_1  and  C_2
REMARK    2  A    between atoms: C_7  and  C_12
REMARK    3  A    between atoms: N_17  and  C_18
REMARK    4  A    between atoms: C_18  and  C_19
REMARK    5  A    between atoms: C_22  and  S_29
REMARK    6  A    between atoms: N_24  and  C_25
REMARK    7  A    between atoms: C_25  and  C_26
REMARK    8  A    between atoms: C_26  and  C_27
REMARK    9  A    between atoms: C_26  and  C_28
REMARK   10  A    between atoms: S_29  and  C_32
REMARK                            x       y       z     vdW  Elec       q    Type
REMARK                         _______ _______ _______ _____ _____    ______ ____
ROOT
ATOM      1  C   UNL     1      -5.771   3.730  -3.901  0.00  0.00    +0.123 C 
ATOM      2  C   UNL     1      -6.635   2.567  -4.432  0.00  0.00    +0.028 C 
ATOM      3  C   UNL     1      -7.086   3.075  -5.827  0.00  0.00    +0.017 C 
ATOM      4  C   UNL     1      -5.834   3.859  -6.294  0.00  0.00    +0.085 C 
ATOM      5  N   UNL     1      -5.314   4.508  -5.067  0.00  0.00    -0.291 NA
ENDROOT
BRANCH   1  12
ATOM      6  C   UNL     1      -0.308   1.852   0.790  0.00  0.00    +0.044 C 
ATOM      7  C   UNL     1      -1.191   1.923  -0.429  0.00  0.00    -0.048 A 
ATOM      8  C   UNL     1      -0.900   1.140  -1.537  0.00  0.00    +0.005 A 
ATOM      9  C   UNL     1      -1.688   1.190  -2.652  0.00  0.00    +0.030 A 
ATOM     10  C   UNL     1      -2.799   2.037  -2.682  0.00  0.00    +0.089 A 
ATOM     11  N   UNL     1      -3.748   2.304  -3.615  0.00  0.00    -0.231 NA
ATOM     12  C   UNL     1      -4.583   3.186  -3.150  0.00  0.00    +0.125 A 
ATOM     13  H   UNL     1      -4.687   4.186  -1.321  0.00  0.00    +0.167 HD
ATOM     14  N   UNL     1      -4.228   3.545  -1.887  0.00  0.00    -0.341 N 
ATOM     15  C   UNL     1      -3.094   2.830  -1.560  0.00  0.00    +0.066 A 
ATOM     16  C   UNL     1      -2.285   2.762  -0.434  0.00  0.00    +0.031 A 
ENDBRANCH   1  12
BRANCH   5  17
ATOM     17  C   UNL     1      -3.848   4.596  -5.099  0.00  0.00    +0.109 C 
BRANCH  17  18
ATOM     18  C   UNL     1      -3.424   5.707  -6.062  0.00  0.00    +0.115 C 
ATOM     19  C   UNL     1      -1.950   6.006  -5.908  0.00  0.00    +0.101 C 
ATOM     20  N   UNL     1      -1.769   7.270  -5.879  0.00  0.00    -0.254 NA
ATOM     21  C   UNL     1      -3.046   7.983  -6.007  0.00  0.00    +0.318 C 
ATOM     22  N   UNL     1      -4.099   6.982  -5.711  0.00  0.00    -0.254 NA
BRANCH  21  23
ATOM     23  S   UNL     1      -3.123   9.347  -4.813  0.00  0.00    +0.003 S 
ATOM     24  O   UNL     1      -1.914  10.089  -4.900  0.00  0.00    -0.171 OA
ATOM     25  O   UNL     1      -4.362  10.022  -4.981  0.00  0.00    -0.171 OA
ATOM     26  C   UNL     1      -3.152   8.482  -3.219  0.00  0.00    +0.198 C 
ENDBRANCH  21  23
BRANCH  22  27
ATOM     27  C   UNL     1      -5.283   7.200  -6.553  0.00  0.00    +0.091 C 
BRANCH  27  28
ATOM     28  C   UNL     1      -6.176   8.263  -5.910  0.00  0.00    -0.003 C 
ATOM     29  C   UNL     1      -7.495   8.354  -6.680  0.00  0.00    +0.008 C 
ATOM     30  C   UNL     1      -6.459   7.881  -4.456  0.00  0.00    +0.008 C 
ENDBRANCH  27  28
ENDBRANCH  22  27
ENDBRANCH  17  18
ENDBRANCH   5  17
TORSDOF 6
