REMARK  Name = ZINC65469210
REMARK  8 active torsions:
REMARK  status: ('A' for Active; 'I' for Inactive)
REMARK    1  A    between atoms: C_1  and  C_2
REMARK    2  A    between atoms: C_2  and  C_26
REMARK    3  A    between atoms: C_4  and  C_10
REMARK    4  A    between atoms: C_6  and  C_8
REMARK    5  A    between atoms: C_6  and  C_9
REMARK    6  A    between atoms: C_10  and  C_11
REMARK    7  A    between atoms: N_18  and  C_25
REMARK    8  A    between atoms: C_20  and  C_22
REMARK                            x       y       z     vdW  Elec       q    Type
REMARK                         _______ _______ _______ _____ _____    ______ ____
ROOT
ATOM      1  C   UNL     1       4.111  -0.532  -2.777  0.00  0.00    +0.216 C 
ATOM      2  O   UNL     1       4.666   0.060  -1.876  0.00  0.00    -0.276 OA
ATOM      3  N   UNL     1       4.811  -0.915  -3.863  0.00  0.00    -0.300 N 
ATOM      4  C   UNL     1       4.313  -1.636  -5.058  0.00  0.00    +0.110 C 
ATOM      5  C   UNL     1       5.037  -0.970  -6.247  0.00  0.00    +0.006 C 
ATOM      6  C   UNL     1       5.527  -2.071  -7.210  0.00  0.00    -0.073 C 
ATOM      7  N   UNL     1       6.914  -1.674  -7.563  0.00  0.00    +0.379 N 
ATOM      8  C   UNL     1       7.482  -1.164  -6.289  0.00  0.00    -0.059 C 
ATOM      9  C   UNL     1       6.324  -0.356  -5.634  0.00  0.00    +0.076 C 
ATOM     10  C   UNL     1       6.251  -0.705  -4.137  0.00  0.00    +0.124 C 
ATOM     11  C   UNL     1       7.677  -2.836  -8.038  0.00  0.00    -0.096 C 
ATOM     12  H   UNL     1       6.905  -0.946  -8.262  0.00  0.00    -0.082 HD
ENDROOT
BRANCH   9  13
ATOM     13  C   UNL     1       6.431   1.127  -5.881  0.00  0.00    +0.362 C 
ATOM     14  O   UNL     1       7.009   1.839  -5.078  0.00  0.00    -0.246 OA
ATOM     15  O   UNL     1       5.940   1.615  -6.885  0.00  0.00    -0.246 OA
ENDBRANCH   9  13
BRANCH   1  16
ATOM     16  C   UNL     1       2.639  -0.841  -2.682  0.00  0.00    +0.099 C 
BRANCH  16  20
ATOM     17  C   UNL     1      -0.019   1.528   0.010  0.00  0.00    -0.010 C 
ATOM     18  C   UNL     1       0.002  -0.004   0.002  0.00  0.00    -0.073 C 
ATOM     19  C   UNL     1       0.573  -0.505  -1.320  0.00  0.00    -0.009 C 
ATOM     20  C   UNL     1       2.088  -0.301  -1.357  0.00  0.00    -0.005 C 
ATOM     21  C   UNL     1       2.703  -1.086  -0.198  0.00  0.00    -0.009 C 
ATOM     22  C   UNL     1       2.147  -0.590   1.133  0.00  0.00    -0.073 C 
ATOM     23  N   UNL     1       0.697  -0.529   1.164  0.00  0.00    +0.386 N 
ATOM     24  C   UNL     1       2.600  -1.589   2.223  0.00  0.00    -0.010 C 
ATOM     25  C   UNL     1       2.769   0.766   1.481  0.00  0.00    -0.010 C 
ATOM     26  C   UNL     1      -1.468  -0.478   0.079  0.00  0.00    -0.010 C 
ATOM     27  H   UNL     1       0.416   0.021   1.982  0.00  0.00    -0.084 HD
ATOM     28  H   UNL     1       0.341  -1.472   1.351  0.00  0.00    -0.084 HD
ENDBRANCH  16  20
ENDBRANCH   1  16
TORSDOF 3
