REMARK  Name = ZINC38725722
REMARK  14 active torsions:
REMARK  status: ('A' for Active; 'I' for Inactive)
REMARK    1  A    between atoms: C_1  and  C_2
REMARK    2  A    between atoms: C_2  and  N_3
REMARK    3  A    between atoms: N_3  and  C_4
REMARK    4  A    between atoms: N_3  and  C_6
REMARK    5  A    between atoms: C_4  and  C_5
REMARK    6  A    between atoms: C_6  and  C_7
REMARK    7  A    between atoms: C_7  and  C_8
REMARK    8  A    between atoms: C_8  and  N_9
REMARK    9  A    between atoms: C_10  and  C_27
REMARK   10  A    between atoms: C_18  and  O_25
REMARK   11  A    between atoms: O_25  and  C_26
REMARK   12  A    between atoms: C_30  and  O_33
REMARK   13  A    between atoms: O_33  and  C_34
REMARK   14  A    between atoms: C_34  and  C_35
REMARK                            x       y       z     vdW  Elec       q    Type
REMARK                         _______ _______ _______ _____ _____    ______ ____
ROOT
ATOM      1  N   UNL     1       2.339  -4.587   3.665  0.00  0.00    -0.284 N 
ATOM      2  C   UNL     1       3.779  -4.704   3.950  0.00  0.00    +0.144 C 
ATOM      3  C   UNL     1       3.876  -5.249   5.337  0.00  0.00    +0.072 A 
ATOM      4  C   UNL     1       5.041  -5.587   6.163  0.00  0.00    +0.199 A 
ATOM      5  O   UNL     1       6.183  -5.290   5.858  0.00  0.00    -0.287 OA
ATOM      6  C   UNL     1       4.697  -6.322   7.404  0.00  0.00    +0.065 A 
ATOM      7  C   UNL     1       5.702  -6.887   8.191  0.00  0.00    +0.019 A 
ATOM      8  C   UNL     1       5.371  -7.566   9.328  0.00  0.00    +0.046 A 
ATOM      9  C   UNL     1       4.035  -7.697   9.703  0.00  0.00    +0.124 A 
ATOM     10  C   UNL     1       3.029  -7.142   8.933  0.00  0.00    +0.092 A 
ATOM     11  C   UNL     1       3.345  -6.443   7.772  0.00  0.00    +0.143 A 
ATOM     12  O   UNL     1       2.345  -5.899   7.040  0.00  0.00    -0.449 OA
ATOM     13  C   UNL     1       2.606  -5.424   5.806  0.00  0.00    +0.199 A 
ATOM     14  C   UNL     1       1.663  -5.005   4.754  0.00  0.00    +0.283 C 
ATOM     15  O   UNL     1       0.452  -5.035   4.853  0.00  0.00    -0.267 OA
ENDROOT
BRANCH   2  16
ATOM     16  C   UNL     1       4.435  -3.349   3.875  0.00  0.00    -0.022 A 
ATOM     17  C   UNL     1       3.788  -2.240   4.389  0.00  0.00    +0.009 A 
ATOM     18  C   UNL     1       4.387  -0.997   4.321  0.00  0.00    +0.046 A 
ATOM     19  C   UNL     1       5.638  -0.862   3.737  0.00  0.00    +0.121 A 
ATOM     20  C   UNL     1       6.285  -1.976   3.223  0.00  0.00    +0.046 A 
ATOM     21  C   UNL     1       5.684  -3.218   3.298  0.00  0.00    +0.009 A 
BRANCH  19  22
ATOM     22  O   UNL     1       6.229   0.360   3.669  0.00  0.00    -0.488 OA
BRANCH  22  23
ATOM     23  C   UNL     1       7.518   0.424   3.054  0.00  0.00    +0.256 C 
BRANCH  23  24
ATOM     24  C   UNL     1       8.011   1.848   3.070  0.00  0.00    +0.006 C 
ATOM     25  C   UNL     1       9.246   2.109   3.420  0.00  0.00    +0.007 C 
ENDBRANCH  23  24
ENDBRANCH  22  23
ENDBRANCH  19  22
ENDBRANCH   2  16
BRANCH   9  26
ATOM     26  O   UNL     1       3.718  -8.377  10.834  0.00  0.00    -0.495 OA
ATOM     27  C   UNL     1       4.801  -8.928  11.585  0.00  0.00    +0.277 C 
ENDBRANCH   9  26
BRANCH   1  28
ATOM     28  C   UNL     1       1.746  -4.098   2.418  0.00  0.00    +0.107 C 
BRANCH  28  29
ATOM     29  C   UNL     1       1.550  -2.583   2.507  0.00  0.00    +0.000 C 
BRANCH  29  30
ATOM     30  C   UNL     1       0.930  -2.072   1.205  0.00  0.00    -0.077 C 
BRANCH  30  31
ATOM     31  N   UNL     1       0.628  -0.640   1.336  0.00  0.00    +0.379 N 
ATOM     32  H   UNL     1       0.046  -0.491   2.146  0.00  0.00    -0.082 HD
BRANCH  31  34
ATOM     33  C   UNL     1       1.562   1.586   1.748  0.00  0.00    -0.017 C 
ATOM     34  C   UNL     1       1.881   0.112   1.488  0.00  0.00    -0.082 C 
ENDBRANCH  31  34
BRANCH  31  35
ATOM     35  C   UNL     1      -0.079  -0.177   0.134  0.00  0.00    -0.082 C 
ATOM     36  C   UNL     1      -1.453  -0.845   0.061  0.00  0.00    -0.017 C 
ENDBRANCH  31  35
ENDBRANCH  30  31
ENDBRANCH  29  30
ENDBRANCH  28  29
ENDBRANCH   1  28
TORSDOF 11
