REMARK  Name = ZINC11663324
REMARK  7 active torsions:
REMARK  status: ('A' for Active; 'I' for Inactive)
REMARK    1  A    between atoms: C_1  and  O_2
REMARK    2  A    between atoms: O_2  and  C_3
REMARK    3  A    between atoms: C_7  and  C_9
REMARK    4  A    between atoms: C_9  and  N_59
REMARK    5  A    between atoms: C_10  and  C_11
REMARK    6  A    between atoms: C_10  and  N_59
REMARK    7  A    between atoms: C_12  and  C_21
REMARK                            x       y       z     vdW  Elec       q    Type
REMARK                         _______ _______ _______ _____ _____    ______ ____
ROOT
ATOM      1  C   UNL     1       3.438  -0.847  -0.035  0.00  0.00    +0.039 A 
ATOM      2  C   UNL     1       2.888  -2.097  -0.036  0.00  0.00    +0.146 A 
ATOM      3  N   UNL     1       1.549  -1.966  -0.023  0.00  0.00    -0.223 NA
ATOM      4  C   UNL     1       1.242  -0.680  -0.013  0.00  0.00    +0.139 A 
ATOM      5  N   UNL     1       2.408   0.044  -0.021  0.00  0.00    -0.303 N 
ATOM      6  C   UNL     1       2.374   1.411  -0.013  0.00  0.00    +0.113 A 
ATOM      7  C   UNL     1       1.195   2.069   0.002  0.00  0.00    +0.058 A 
ATOM      8  C   UNL     1      -0.016   1.355   0.009  0.00  0.00    +0.025 A 
ATOM      9  C   UNL     1       0.002  -0.004   0.002  0.00  0.00    +0.048 A 
ATOM     10 CL   UNL     1       1.175   3.804   0.011  0.00  0.00    -0.082 Cl
ENDROOT
BRANCH   2  11
ATOM     11  C   UNL     1       3.634  -3.371  -0.049  0.00  0.00    +0.267 C 
ATOM     12  O   UNL     1       4.849  -3.364  -0.060  0.00  0.00    -0.268 OA
ATOM     13  N   UNL     1       2.967  -4.542  -0.049  0.00  0.00    -0.296 N 
ATOM     14  C   UNL     1       1.497  -4.560  -0.029  0.00  0.00    +0.108 C 
ATOM     15  C   UNL     1       0.980  -4.029  -1.366  0.00  0.00    +0.019 C 
ATOM     16  C   UNL     1       1.225  -5.082  -2.460  0.00  0.00    +0.002 C 
ATOM     17  C   UNL     1       2.691  -5.045  -2.878  0.00  0.00    +0.000 C 
ATOM     18  C   UNL     1       3.403  -6.352  -2.483  0.00  0.00    +0.002 C 
ATOM     19  C   UNL     1       3.008  -6.745  -1.059  0.00  0.00    +0.019 C 
ATOM     20  C   UNL     1       3.693  -5.801  -0.062  0.00  0.00    +0.108 C 
ENDBRANCH   2  11
BRANCH   1  21
ATOM     21  C   UNL     1       4.908  -0.515  -0.047  0.00  0.00    -0.025 C 
BRANCH  21  22
ATOM     22  N   UNL     1       5.393  -0.415   1.342  0.00  0.00    +0.385 N 
ATOM     23  H   UNL     1       4.873   0.324   1.830  0.00  0.00    -0.085 HD
ATOM     24  H   UNL     1       5.242  -1.312   1.819  0.00  0.00    -0.085 HD
BRANCH  22  25
ATOM     25  C   UNL     1       6.832  -0.091   1.360  0.00  0.00    -0.046 C 
BRANCH  25  30
ATOM     26  C   UNL     1       8.205  -1.031   4.753  0.00  0.00    +0.120 A 
ATOM     27  C   UNL     1       8.155   0.186   5.416  0.00  0.00    +0.045 A 
ATOM     28  C   UNL     1       7.677   1.307   4.765  0.00  0.00    +0.004 A 
ATOM     29  C   UNL     1       7.254   1.217   3.452  0.00  0.00    +0.002 A 
ATOM     30  C   UNL     1       7.299   0.004   2.790  0.00  0.00    -0.061 A 
ATOM     31  C   UNL     1       7.776  -1.120   3.437  0.00  0.00    +0.047 A 
BRANCH  26  33
ATOM     32  C   UNL     1       9.101  -1.970   6.745  0.00  0.00    +0.277 C 
ATOM     33  O   UNL     1       8.675  -2.135   5.391  0.00  0.00    -0.495 OA
ENDBRANCH  26  33
ENDBRANCH  25  30
ENDBRANCH  22  25
ENDBRANCH  21  22
ENDBRANCH   1  21
TORSDOF 6
