REMARK  Name = ZINC37017352
REMARK  9 active torsions:
REMARK  status: ('A' for Active; 'I' for Inactive)
REMARK    1  A    between atoms: C_1  and  C_2
REMARK    2  A    between atoms: C_2  and  C_4
REMARK    3  A    between atoms: C_2  and  N_12
REMARK    4  A    between atoms: C_7  and  O_11
REMARK    5  A    between atoms: C_9  and  O_10
REMARK    6  A    between atoms: N_12  and  C_13
REMARK    7  A    between atoms: C_13  and  C_15
REMARK    8  A    between atoms: C_13  and  C_16
REMARK    9  A    between atoms: N_20  and  C_21
REMARK                            x       y       z     vdW  Elec       q    Type
REMARK                         _______ _______ _______ _____ _____    ______ ____
ROOT
ATOM      1  C   UNL     1      -0.019   1.526   0.010  0.00  0.00    -0.009 C 
ATOM      2  C   UNL     1       0.002  -0.004   0.002  0.00  0.00    -0.040 C 
ENDROOT
BRANCH   2   3
ATOM      3  C   UNL     1      -1.412  -0.526   0.013  0.00  0.00    -0.020 A 
ATOM      4  C   UNL     1      -2.014  -0.864   1.210  0.00  0.00    +0.009 A 
ATOM      5  C   UNL     1      -3.310  -1.342   1.223  0.00  0.00    +0.046 A 
ATOM      6  C   UNL     1      -4.010  -1.484   0.033  0.00  0.00    +0.120 A 
ATOM      7  C   UNL     1      -3.409  -1.146  -1.169  0.00  0.00    +0.091 A 
ATOM      8  C   UNL     1      -2.110  -0.661  -1.179  0.00  0.00    +0.122 A 
BRANCH   8   9
ATOM      9  O   UNL     1      -1.519  -0.323  -2.355  0.00  0.00    -0.506 OA
ATOM     10  H   UNL     1      -1.044  -1.050  -2.780  0.00  0.00    +0.292 HD
ENDBRANCH   8   9
BRANCH   6  11
ATOM     11  O   UNL     1      -5.285  -1.956   0.047  0.00  0.00    -0.507 OA
ATOM     12  H   UNL     1      -5.958  -1.266   0.131  0.00  0.00    +0.292 HD
ENDBRANCH   6  11
ENDBRANCH   2   3
BRANCH   2  13
ATOM     13  N   UNL     1       0.713  -0.491   1.192  0.00  0.00    +0.390 N 
ATOM     14  H   UNL     1       0.290  -0.099   2.020  0.00  0.00    -0.084 HD
ATOM     15  H   UNL     1       0.655  -1.497   1.230  0.00  0.00    -0.084 HD
BRANCH  13  16
ATOM     16  C   UNL     1       2.122  -0.083   1.122  0.00  0.00    -0.005 C 
ATOM     17  C   UNL     1       2.796  -0.777  -0.064  0.00  0.00    -0.006 C 
BRANCH  16  18
ATOM     18  C   UNL     1       2.822  -0.474   2.398  0.00  0.00    +0.119 A 
ATOM     19  N   UNL     1       2.728  -1.622   3.011  0.00  0.00    -0.136 NA
ATOM     20  N   UNL     1       3.460  -1.610   4.068  0.00  0.00    -0.138 NA
ATOM     21  C   UNL     1       4.056  -0.454   4.177  0.00  0.00    +0.224 A 
ATOM     22  N   UNL     1       3.672   0.298   3.117  0.00  0.00    -0.322 N 
ATOM     23  C   UNL     1       4.088   1.669   2.813  0.00  0.00    +0.151 C 
ENDBRANCH  16  18
ENDBRANCH  13  16
ENDBRANCH   2  13
TORSDOF 6
