REMARK  Name = ZINC39934938
REMARK  11 active torsions:
REMARK  status: ('A' for Active; 'I' for Inactive)
REMARK    1  A    between atoms: C_1  and  C_2
REMARK    2  A    between atoms: C_2  and  O_3
REMARK    3  A    between atoms: O_3  and  C_4
REMARK    4  A    between atoms: C_6  and  C_14
REMARK    5  A    between atoms: C_9  and  O_10
REMARK    6  A    between atoms: O_10  and  C_11
REMARK    7  A    between atoms: C_11  and  C_12
REMARK    8  A    between atoms: C_15  and  C_16
REMARK    9  A    between atoms: C_15  and  C_18
REMARK   10  A    between atoms: C_24  and  O_28
REMARK   11  A    between atoms: O_28  and  C_29
REMARK                            x       y       z     vdW  Elec       q    Type
REMARK                         _______ _______ _______ _____ _____    ______ ____
ROOT
ATOM      1  C   UNL     1      -0.198  -4.958  -0.501  0.00  0.00    +0.026 C 
ATOM      2  C   UNL     1      -0.000  -6.289  -0.405  0.00  0.00    +0.072 C 
ENDROOT
BRANCH   2   3
ATOM      3  C   UNL     1      -0.491  -7.204  -1.498  0.00  0.00    +0.216 C 
ATOM      4  N   UNL     1       0.629  -7.978  -2.048  0.00  0.00    -0.359 N 
ATOM      5  C   UNL     1       0.371  -9.238  -1.847  0.00  0.00    +0.061 A 
ATOM      6  C   UNL     1       1.114 -10.464  -2.176  0.00  0.00    +0.031 A 
ATOM      7  C   UNL     1       0.603 -11.665  -1.846  0.00  0.00    +0.048 A 
ATOM      8  C   UNL     1      -0.678 -11.795  -1.165  0.00  0.00    +0.122 A 
ATOM      9  C   UNL     1      -1.422 -10.713  -0.829  0.00  0.00    +0.073 A 
ATOM     10  C   UNL     1      -0.937  -9.369  -1.152  0.00  0.00    +0.064 A 
ATOM     11  N   UNL     1      -1.440  -8.181  -0.949  0.00  0.00    -0.359 N 
ATOM     12  H   UNL     1       1.417  -7.615  -2.482  0.00  0.00    +0.162 HD
ATOM     13  H   UNL     1      -2.284  -7.979  -0.515  0.00  0.00    +0.162 HD
BRANCH   8  14
ATOM     14  O   UNL     1      -1.140 -13.033  -0.860  0.00  0.00    -0.495 OA
ATOM     15  C   UNL     1      -0.321 -14.142  -1.236  0.00  0.00    +0.277 C 
ENDBRANCH   8  14
ENDBRANCH   2   3
BRANCH   1  18
ATOM     16  C   UNL     1       0.996  -1.997   1.470  0.00  0.00    +0.163 A 
ATOM     17  C   UNL     1       0.686  -2.816   0.402  0.00  0.00    +0.057 A 
ATOM     18  C   UNL     1       0.135  -4.082   0.632  0.00  0.00    -0.019 A 
ATOM     19  C   UNL     1      -0.098  -4.511   1.943  0.00  0.00    +0.026 A 
ATOM     20  C   UNL     1       0.214  -3.687   3.003  0.00  0.00    +0.059 A 
ATOM     21  C   UNL     1       0.766  -2.433   2.774  0.00  0.00    +0.175 A 
ATOM     22  I   UNL     1      -0.136  -4.332   4.965  0.00  0.00    -0.040 I 
BRANCH  16  23
ATOM     23  O   UNL     1       1.532  -0.766   1.250  0.00  0.00    -0.489 OA
BRANCH  23  25
ATOM     24  C   UNL     1       2.346   1.021  -0.158  0.00  0.00    +0.048 C 
ATOM     25  C   UNL     1       1.741  -0.384  -0.111  0.00  0.00    +0.226 C 
ENDBRANCH  23  25
ENDBRANCH  16  23
BRANCH  21  26
ATOM     26  O   UNL     1       1.077  -1.628   3.823  0.00  0.00    -0.488 OA
BRANCH  26  27
ATOM     27  C   UNL     1       0.056  -0.742   4.285  0.00  0.00    +0.226 C 
ATOM     28  C   UNL     1       0.588   0.079   5.463  0.00  0.00    +0.048 C 
ENDBRANCH  26  27
ENDBRANCH  21  26
ENDBRANCH   1  18
BRANCH   2  29
ATOM     29  C   UNL     1       0.676  -6.832   0.734  0.00  0.00    +0.099 C 
ATOM     30  N   UNL     1       1.212  -7.263   1.638  0.00  0.00    -0.191 NA
ENDBRANCH   2  29
TORSDOF 8
