REMARK  Name = ZINC09944418
REMARK  12 active torsions:
REMARK  status: ('A' for Active; 'I' for Inactive)
REMARK    1  A    between atoms: C_1  and  C_2
REMARK    2  A    between atoms: C_2  and  C_3
REMARK    3  A    between atoms: C_3  and  N_4
REMARK    4  A    between atoms: C_8  and  C_10
REMARK    5  A    between atoms: C_10  and  S_11
REMARK    6  A    between atoms: S_11  and  C_12
REMARK    7  A    between atoms: C_15  and  C_18
REMARK    8  A    between atoms: N_16  and  C_17
REMARK    9  A    between atoms: C_25  and  C_28
REMARK   10  A    between atoms: C_28  and  C_29
REMARK   11  A    between atoms: C_28  and  C_30
REMARK   12  A    between atoms: C_28  and  C_31
REMARK                            x       y       z     vdW  Elec       q    Type
REMARK                         _______ _______ _______ _____ _____    ______ ____
ROOT
ATOM      1  C   UNL     1      -5.986   1.637   0.231  0.00  0.00    +0.192 A 
ATOM      2  N   UNL     1      -5.549   2.829  -0.107  0.00  0.00    -0.122 NA
ATOM      3  N   UNL     1      -4.268   2.817  -0.215  0.00  0.00    -0.128 NA
ATOM      4  C   UNL     1      -3.807   1.614   0.049  0.00  0.00    +0.171 A 
ATOM      5  N   UNL     1      -4.895   0.820   0.338  0.00  0.00    -0.305 N 
ATOM      6  C   UNL     1      -4.884  -0.602   0.689  0.00  0.00    +0.153 C 
ENDROOT
BRANCH   4   7
ATOM      7  C   UNL     1      -2.397   1.194   0.033  0.00  0.00    +0.057 A 
ATOM      8  C   UNL     1      -1.266   1.967   0.030  0.00  0.00    +0.023 A 
ATOM      9  C   UNL     1      -0.016   1.359   0.009  0.00  0.00    -0.036 A 
ATOM     10  C   UNL     1       0.002  -0.004   0.002  0.00  0.00    -0.006 A 
ATOM     11  S   UNL     1      -1.712  -0.456   0.018  0.00  0.00    -0.090 S 
ATOM     12  C   UNL     1       1.200  -0.898  -0.016  0.00  0.00    +0.043 C 
ATOM     13  C   UNL     1       2.426  -0.054  -0.397  0.00  0.00    +0.009 C 
ATOM     14  C   UNL     1       2.425   1.223   0.448  0.00  0.00    -0.001 C 
ATOM     15  C   UNL     1       1.291   2.147   0.001  0.00  0.00    +0.040 C 
BRANCH  14  16
ATOM     16  C   UNL     1       3.764   1.945   0.280  0.00  0.00    -0.035 C 
ATOM     17  C   UNL     1       3.966   2.307  -1.193  0.00  0.00    +0.011 C 
ATOM     18  C   UNL     1       3.765   3.221   1.123  0.00  0.00    +0.011 C 
ATOM     19  C   UNL     1       4.899   1.028   0.740  0.00  0.00    +0.011 C 
ENDBRANCH  14  16
ENDBRANCH   4   7
BRANCH   1  20
ATOM     20  S   UNL     1      -7.666   1.176   0.492  0.00  0.00    -0.077 S 
BRANCH  20  21
ATOM     21  C   UNL     1      -8.481   2.758   0.162  0.00  0.00    +0.173 C 
BRANCH  21  26
ATOM     22  N   UNL     1     -12.934   4.569   0.087  0.00  0.00    -0.299 N 
ATOM     23  C   UNL     1     -12.118   3.514   0.284  0.00  0.00    +0.306 C 
ATOM     24  O   UNL     1     -12.584   2.436   0.597  0.00  0.00    -0.252 OA
ATOM     25  N   UNL     1     -10.786   3.655   0.134  0.00  0.00    -0.240 N 
ATOM     26  C   UNL     1      -9.971   2.600   0.330  0.00  0.00    +0.231 C 
ATOM     27  O   UNL     1     -10.435   1.524   0.642  0.00  0.00    -0.274 OA
ATOM     28  H   UNL     1     -12.512   5.545  -0.196  0.00  0.00    +0.150 HD
ATOM     29  H   UNL     1     -10.365   4.631  -0.149  0.00  0.00    +0.159 HD
BRANCH  22  30
ATOM     30  C   UNL     1     -14.382   4.415   0.251  0.00  0.00    +0.105 C 
BRANCH  30  32
ATOM     31  C   UNL     1     -16.583   5.593   0.142  0.00  0.00    +0.005 C 
ATOM     32  C   UNL     1     -15.071   5.753  -0.028  0.00  0.00    +0.015 C 
ENDBRANCH  30  32
ENDBRANCH  22  30
ENDBRANCH  21  26
ENDBRANCH  20  21
ENDBRANCH   1  20
TORSDOF 7
