REMARK  Name = ZINC09509816
REMARK  9 active torsions:
REMARK  status: ('A' for Active; 'I' for Inactive)
REMARK    1  A    between atoms: C_1  and  C_2
REMARK    2  A    between atoms: C_4  and  C_30
REMARK    3  A    between atoms: C_8  and  C_29
REMARK    4  A    between atoms: C_10  and  S_12
REMARK    5  A    between atoms: S_12  and  C_13
REMARK    6  A    between atoms: C_13  and  C_14
REMARK    7  A    between atoms: N_16  and  N_17
REMARK    8  A    between atoms: C_18  and  C_20
REMARK    9  A    between atoms: C_23  and  N_26
REMARK                            x       y       z     vdW  Elec       q    Type
REMARK                         _______ _______ _______ _____ _____    ______ ____
ROOT
ATOM      1  C   UNL     1       4.198   5.108  -0.010  0.00  0.00    +0.239 C 
ATOM      2  O   UNL     1       5.352   4.737  -0.023  0.00  0.00    -0.273 OA
ATOM      3  N   UNL     1       3.914   6.426  -0.001  0.00  0.00    -0.233 N 
ATOM      4  H   UNL     1       2.990   6.723   0.010  0.00  0.00    +0.173 HD
ENDROOT
BRANCH   3   5
ATOM      5  N   UNL     1       4.952   7.366  -0.005  0.00  0.00    -0.230 N 
ATOM      6  C   UNL     1       4.668   8.683   0.004  0.00  0.00    +0.260 C 
ATOM      7  O   UNL     1       3.511   9.056   0.017  0.00  0.00    -0.269 OA
ATOM      8  H   UNL     1       5.875   7.069  -0.016  0.00  0.00    +0.173 HD
BRANCH   6   9
ATOM      9  C   UNL     1       5.764   9.676  -0.001  0.00  0.00    +0.038 A 
ATOM     10  C   UNL     1       7.094   9.252  -0.010  0.00  0.00    +0.015 A 
ATOM     11  C   UNL     1       8.111  10.183  -0.019  0.00  0.00    +0.033 A 
ATOM     12  C   UNL     1       7.816  11.535  -0.009  0.00  0.00    +0.126 A 
ATOM     13  C   UNL     1       6.500  11.962   0.005  0.00  0.00    +0.033 A 
ATOM     14  C   UNL     1       5.473  11.041   0.009  0.00  0.00    +0.015 A 
BRANCH  12  15
ATOM     15  N   UNL     1       8.914  12.528  -0.013  0.00  0.00    +0.056 N 
ATOM     16  O   UNL     1       8.657  13.719  -0.005  0.00  0.00    -0.126 OA
ATOM     17  O   UNL     1      10.073  12.155  -0.025  0.00  0.00    -0.126 OA
ENDBRANCH  12  15
ENDBRANCH   6   9
ENDBRANCH   3   5
BRANCH   1  18
ATOM     18  C   UNL     1       3.081   4.096  -0.005  0.00  0.00    +0.173 C 
BRANCH  18  19
ATOM     19  S   UNL     1       3.779   2.426  -0.021  0.00  0.00    -0.096 S 
BRANCH  19  29
ATOM     20  C   UNL     1      -3.687  -0.797   0.034  0.00  0.00    +0.044 C 
ATOM     21  C   UNL     1      -2.388  -0.034   0.025  0.00  0.00    -0.050 A 
ATOM     22  C   UNL     1      -2.410   1.359   0.033  0.00  0.00    +0.008 A 
ATOM     23  C   UNL     1      -1.254   2.079   0.031  0.00  0.00    -0.024 A 
ATOM     24  C   UNL     1      -0.017   1.412   0.010  0.00  0.00    +0.075 A 
ATOM     25  C   UNL     1       0.002  -0.004   0.002  0.00  0.00    +0.004 A 
ATOM     26  C   UNL     1      -1.208  -0.714   0.010  0.00  0.00    +0.013 A 
ATOM     27  C   UNL     1       1.243  -0.674  -0.013  0.00  0.00    -0.039 A 
ATOM     28  C   UNL     1       2.381   0.075  -0.020  0.00  0.00    +0.038 A 
ATOM     29  C   UNL     1       2.296   1.475  -0.012  0.00  0.00    +0.098 A 
ATOM     30  N   UNL     1       1.133   2.095   0.003  0.00  0.00    -0.240 NA
ATOM     31  C   UNL     1       1.308  -2.179  -0.022  0.00  0.00    +0.044 C 
ATOM     32  C   UNL     1      -1.301   3.585   0.040  0.00  0.00    +0.046 C 
ENDBRANCH  19  29
ENDBRANCH  18  19
ENDBRANCH   1  18
TORSDOF 6
