REMARK  Name = ZINC09408762
REMARK  4 active torsions:
REMARK  status: ('A' for Active; 'I' for Inactive)
REMARK    1  A    between atoms: C_12  and  N_55
REMARK    2  A    between atoms: C_18  and  N_20
REMARK    3  A    between atoms: N_20  and  S_21
REMARK    4  A    between atoms: S_21  and  C_24
REMARK                            x       y       z     vdW  Elec       q    Type
REMARK                         _______ _______ _______ _____ _____    ______ ____
ROOT
ATOM      1  C   UNL     1      -0.678   9.172   1.120  0.00  0.00    -0.050 C 
ATOM      2  C   UNL     1      -2.109   9.662   1.357  0.00  0.00    -0.014 C 
ATOM      3  C   UNL     1      -2.129  11.191   1.365  0.00  0.00    -0.001 C 
ATOM      4  C   UNL     1      -1.222  11.707   2.484  0.00  0.00    +0.001 C 
ATOM      5  C   UNL     1       0.208  11.218   2.247  0.00  0.00    +0.019 C 
ATOM      6  C   UNL     1       0.229   9.688   2.238  0.00  0.00    +0.063 C 
ENDROOT
BRANCH   1  18
ATOM      7  C   UNL     1      -1.766   1.045   1.149  0.00  0.00    +0.039 A 
ATOM      8  C   UNL     1      -1.153   1.756   2.169  0.00  0.00    +0.116 A 
ATOM      9  N   UNL     1      -1.185   3.078   2.144  0.00  0.00    -0.223 NA
ATOM     10  C   UNL     1      -1.804   3.722   1.165  0.00  0.00    +0.218 A 
ATOM     11  N   UNL     1      -2.404   3.073   0.179  0.00  0.00    -0.223 NA
ATOM     12  C   UNL     1      -2.404   1.751   0.141  0.00  0.00    +0.116 A 
ATOM     13  N   UNL     1      -1.822   5.106   1.173  0.00  0.00    -0.303 N 
ATOM     14  C   UNL     1      -1.263   5.648  -0.073  0.00  0.00    +0.089 C 
ATOM     15  C   UNL     1      -1.375   7.174  -0.058  0.00  0.00    -0.059 C 
ATOM     16  C   UNL     1      -1.218   7.162   2.357  0.00  0.00    -0.059 C 
ATOM     17  C   UNL     1      -1.106   5.636   2.342  0.00  0.00    +0.089 C 
ATOM     18  N   UNL     1      -0.632   7.695   1.109  0.00  0.00    +0.385 N 
ATOM     19  H   UNL     1       0.347   7.392   1.044  0.00  0.00    -0.081 HD
ENDBRANCH   1  18
BRANCH   6  20
ATOM     20  N   UNL     1       1.598   9.220   2.011  0.00  0.00    -0.188 NA
ATOM     21  H   UNL     1       1.939   9.137   1.107  0.00  0.00    +0.148 HD
BRANCH  20  22
ATOM     22  S   UNL     1       2.565   8.831   3.299  0.00  0.00    +0.059 S 
ATOM     23  O   UNL     1       3.804   8.392   2.759  0.00  0.00    -0.153 OA
ATOM     24  O   UNL     1       2.474   9.913   4.216  0.00  0.00    -0.153 OA
BRANCH  22  25
ATOM     25  C   UNL     1       1.839   7.436   4.093  0.00  0.00    +0.105 A 
ATOM     26  C   UNL     1       0.919   7.620   5.109  0.00  0.00    +0.030 A 
ATOM     27  C   UNL     1       0.344   6.526   5.728  0.00  0.00    +0.022 A 
ATOM     28  C   UNL     1       0.699   5.247   5.340  0.00  0.00    +0.041 A 
ATOM     29  C   UNL     1       1.624   5.063   4.327  0.00  0.00    +0.022 A 
ATOM     30  C   UNL     1       2.193   6.158   3.704  0.00  0.00    +0.030 A 
ATOM     31 CL   UNL     1      -0.017   3.872   6.122  0.00  0.00    -0.084 Cl
ENDBRANCH  22  25
ENDBRANCH  20  22
ENDBRANCH   6  20
TORSDOF 4
