REMARK  Name = ZINC15588899
REMARK  7 active torsions:
REMARK  status: ('A' for Active; 'I' for Inactive)
REMARK    1  A    between atoms: C_8  and  C_11
REMARK    2  A    between atoms: N_13  and  C_14
REMARK    3  A    between atoms: C_16  and  S_26
REMARK    4  A    between atoms: C_19  and  O_20
REMARK    5  A    between atoms: O_20  and  C_21
REMARK    6  A    between atoms: C_21  and  C_22
REMARK    7  A    between atoms: S_26  and  N_29
REMARK                            x       y       z     vdW  Elec       q    Type
REMARK                         _______ _______ _______ _____ _____    ______ ____
ROOT
ATOM      1  C   UNL     1      -0.019   1.379  -0.001  0.00  0.00    +0.078 A 
ATOM      2  C   UNL     1      -0.005  -0.008  -0.015  0.00  0.00    +0.055 A 
ATOM      3  C   UNL     1       1.199  -0.686  -0.040  0.00  0.00    +0.107 A 
ATOM      4  C   UNL     1       2.391   0.014  -0.051  0.00  0.00    +0.032 A 
ATOM      5  C   UNL     1       2.385   1.397  -0.037  0.00  0.00    +0.049 A 
ATOM      6  C   UNL     1       1.182   2.084  -0.011  0.00  0.00    +0.142 A 
ENDROOT
BRANCH   1   9
ATOM      7  C   UNL     1      -2.342   1.474   0.514  0.00  0.00    +0.258 C 
ATOM      8  O   UNL     1      -2.260   0.381   1.034  0.00  0.00    -0.271 OA
ATOM      9  N   UNL     1      -1.238   2.069   0.019  0.00  0.00    -0.279 N 
ATOM     10  H   UNL     1      -1.289   2.975  -0.324  0.00  0.00    +0.155 HD
BRANCH   7  18
ATOM     11  C   UNL     1      -7.214   4.091   2.795  0.00  0.00    +0.000 A 
ATOM     12  C   UNL     1      -7.739   2.838   2.536  0.00  0.00    +0.004 A 
ATOM     13  C   UNL     1      -6.965   1.870   1.931  0.00  0.00    +0.046 A 
ATOM     14  C   UNL     1      -5.646   2.146   1.576  0.00  0.00    +0.125 A 
ATOM     15  C   UNL     1      -5.133   3.411   1.834  0.00  0.00    -0.002 A 
ATOM     16  C   UNL     1      -5.907   4.375   2.442  0.00  0.00    +0.007 A 
ATOM     17  C   UNL     1      -3.704   3.426   1.319  0.00  0.00    +0.093 C 
ATOM     18  C   UNL     1      -3.677   2.166   0.422  0.00  0.00    +0.263 C 
ATOM     19  O   UNL     1      -4.715   1.347   0.987  0.00  0.00    -0.479 OA
ENDBRANCH   7  18
ENDBRANCH   1   9
BRANCH   3  20
ATOM     20  S   UNL     1       1.215  -2.448  -0.058  0.00  0.00    +0.061 S 
ATOM     21  O   UNL     1       2.472  -2.848   0.470  0.00  0.00    -0.153 OA
ATOM     22  O   UNL     1      -0.018  -2.871   0.508  0.00  0.00    -0.153 OA
BRANCH  20  23
ATOM     23  N   UNL     1       1.195  -2.922  -1.644  0.00  0.00    -0.177 NA
ATOM     24  C   UNL     1      -0.082  -3.138  -2.287  0.00  0.00    +0.109 C 
ATOM     25  C   UNL     1      -0.530  -4.601  -2.088  0.00  0.00    +0.017 C 
ATOM     26  C   UNL     1       0.304  -5.505  -2.894  0.00  0.00    +0.001 C 
ATOM     27  C   UNL     1       1.781  -5.505  -2.512  0.00  0.00    +0.001 C 
ATOM     28  C   UNL     1       2.482  -4.375  -3.224  0.00  0.00    +0.017 C 
ATOM     29  C   UNL     1       2.482  -3.113  -2.342  0.00  0.00    +0.109 C 
ENDBRANCH  20  23
ENDBRANCH   3  20
BRANCH   6  30
ATOM     30  O   UNL     1       1.175   3.444   0.003  0.00  0.00    -0.481 OA
BRANCH  30  31
ATOM     31  C   UNL     1       2.444   4.100  -0.010  0.00  0.00    +0.342 C 
BRANCH  31  32
ATOM     32  C   UNL     1       2.235   5.615   0.009  0.00  0.00    +0.424 C 
ATOM     33  F   UNL     1       1.535   5.975   1.165  0.00  0.00    -0.167 F 
ATOM     34  F   UNL     1       3.478   6.258  -0.004  0.00  0.00    -0.167 F 
ATOM     35  F   UNL     1       1.501   5.999  -1.119  0.00  0.00    -0.167 F 
ENDBRANCH  31  32
ENDBRANCH  30  31
ENDBRANCH   6  30
TORSDOF 7
