REMARK  Name = ZINC35513589
REMARK  6 active torsions:
REMARK  status: ('A' for Active; 'I' for Inactive)
REMARK    1  A    between atoms: C_1  and  C_2
REMARK    2  A    between atoms: C_3  and  C_31
REMARK    3  A    between atoms: C_8  and  C_24
REMARK    4  A    between atoms: C_31  and  O_33
REMARK    5  A    between atoms: O_33  and  C_34
REMARK    6  A    between atoms: C_34  and  C_35
REMARK                            x       y       z     vdW  Elec       q    Type
REMARK                         _______ _______ _______ _____ _____    ______ ____
ROOT
ATOM      1  C   UNL     1      -0.018   1.503   0.010  0.00  0.00    +0.067 C 
ATOM      2  C   UNL     1       0.002  -0.004   0.002  0.00  0.00    +0.062 A 
ATOM      3  C   UNL     1       0.006  -0.730  -1.182  0.00  0.00    +0.120 A 
ATOM      4  S   UNL     1       0.032  -2.398  -0.545  0.00  0.00    -0.045 S 
ATOM      5  C   UNL     1       0.035  -2.021   1.095  0.00  0.00    +0.169 A 
ATOM      6  N   UNL     1       0.022  -0.700   1.110  0.00  0.00    -0.229 NA
ATOM      7  N   UNL     1       0.051  -2.888   2.172  0.00  0.00    -0.232 N 
ATOM      8  C   UNL     1       0.077  -4.357   2.099  0.00  0.00    +0.151 C 
ATOM      9  C   UNL     1       0.086  -4.835   3.513  0.00  0.00    +0.072 A 
ATOM     10  C   UNL     1       0.100  -6.189   4.076  0.00  0.00    +0.199 A 
ATOM     11  O   UNL     1       0.283  -7.189   3.404  0.00  0.00    -0.287 OA
ATOM     12  C   UNL     1      -0.131  -6.226   5.542  0.00  0.00    +0.067 A 
ATOM     13  C   UNL     1      -0.345  -7.442   6.192  0.00  0.00    +0.053 A 
ATOM     14  C   UNL     1      -0.563  -7.457   7.554  0.00  0.00    +0.124 A 
ATOM     15  C   UNL     1      -0.570  -6.266   8.271  0.00  0.00    +0.042 A 
ATOM     16  C   UNL     1      -0.359  -5.062   7.638  0.00  0.00    +0.050 A 
ATOM     17  C   UNL     1      -0.133  -5.021   6.263  0.00  0.00    +0.140 A 
ATOM     18  O   UNL     1       0.082  -3.824   5.669  0.00  0.00    -0.450 OA
ATOM     19  C   UNL     1       0.072  -3.736   4.324  0.00  0.00    +0.199 A 
ATOM     20  C   UNL     1       0.053  -2.534   3.474  0.00  0.00    +0.289 C 
ATOM     21  O   UNL     1       0.039  -1.391   3.884  0.00  0.00    -0.266 OA
ATOM     22  F   UNL     1      -0.770  -8.630   8.191  0.00  0.00    -0.205 F 
ENDROOT
BRANCH   8  23
ATOM     23  C   UNL     1       1.320  -4.821   1.384  0.00  0.00    -0.021 A 
ATOM     24  C   UNL     1       2.523  -4.173   1.598  0.00  0.00    +0.006 A 
ATOM     25  C   UNL     1       3.663  -4.597   0.943  0.00  0.00    +0.002 A 
ATOM     26  C   UNL     1       3.603  -5.670   0.073  0.00  0.00    +0.020 A 
ATOM     27  C   UNL     1       2.400  -6.319  -0.141  0.00  0.00    +0.041 A 
ATOM     28  C   UNL     1       1.260  -5.897   0.519  0.00  0.00    +0.025 A 
ATOM     29 CL   UNL     1       2.323  -7.666  -1.233  0.00  0.00    -0.084 Cl
ENDBRANCH   8  23
BRANCH   3  30
ATOM     30  C   UNL     1      -0.008  -0.260  -2.566  0.00  0.00    +0.348 C 
ATOM     31  O   UNL     1      -0.025   0.934  -2.803  0.00  0.00    -0.244 OA
BRANCH  30  32
ATOM     32  O   UNL     1      -0.000  -1.149  -3.581  0.00  0.00    -0.457 OA
BRANCH  32  33
ATOM     33  C   UNL     1      -0.015  -0.619  -4.908  0.00  0.00    +0.259 C 
BRANCH  33  34
ATOM     34  C   UNL     1      -0.004  -1.751  -5.902  0.00  0.00    +0.006 C 
ATOM     35  C   UNL     1      -0.812  -1.726  -6.932  0.00  0.00    +0.007 C 
ENDBRANCH  33  34
ENDBRANCH  32  33
ENDBRANCH  30  32
ENDBRANCH   3  30
TORSDOF 5
