REMARK  Name = ZINC11122734
REMARK  8 active torsions:
REMARK  status: ('A' for Active; 'I' for Inactive)
REMARK    1  A    between atoms: C_1  and  C_2
REMARK    2  A    between atoms: C_2  and  C_4
REMARK    3  A    between atoms: C_2  and  S_16
REMARK    4  A    between atoms: N_6  and  C_7
REMARK    5  A    between atoms: N_6  and  C_8
REMARK    6  A    between atoms: S_16  and  C_17
REMARK    7  A    between atoms: N_27  and  C_28
REMARK    8  A    between atoms: C_28  and  C_29
REMARK                            x       y       z     vdW  Elec       q    Type
REMARK                         _______ _______ _______ _____ _____    ______ ____
ROOT
ATOM      1  C   UNL     1       1.708   2.135  -0.003  0.00  0.00    +0.173 A 
ATOM      2  N   UNL     1       2.537   1.121  -0.011  0.00  0.00    -0.223 NA
ATOM      3  C   UNL     1       3.873   1.300  -0.027  0.00  0.00    +0.079 A 
ATOM      4  C   UNL     1       4.758   0.217  -0.041  0.00  0.00    +0.028 A 
ATOM      5  C   UNL     1       6.105   0.445  -0.050  0.00  0.00    +0.002 A 
ATOM      6  C   UNL     1       6.612   1.738  -0.048  0.00  0.00    +0.001 A 
ATOM      7  C   UNL     1       5.772   2.817  -0.035  0.00  0.00    +0.015 A 
ATOM      8  C   UNL     1       4.393   2.615  -0.024  0.00  0.00    +0.065 A 
ATOM      9  C   UNL     1       3.443   3.736  -0.010  0.00  0.00    +0.263 A 
ATOM     10  O   UNL     1       3.829   4.890  -0.007  0.00  0.00    -0.267 OA
ATOM     11  N   UNL     1       2.123   3.437   0.000  0.00  0.00    -0.280 N 
ENDROOT
BRANCH   1  12
ATOM     12  S   UNL     1      -0.022   1.806   0.012  0.00  0.00    -0.075 S 
BRANCH  12  14
ATOM     13  C   UNL     1       0.606  -0.499  -1.314  0.00  0.00    +0.029 C 
ATOM     14  C   UNL     1       0.002  -0.004   0.002  0.00  0.00    +0.137 C 
BRANCH  14  15
ATOM     15  C   UNL     1      -1.405  -0.526   0.137  0.00  0.00    +0.229 C 
ATOM     16  O   UNL     1      -2.342   0.158  -0.216  0.00  0.00    -0.274 OA
ATOM     17  N   UNL     1      -1.622  -1.754   0.648  0.00  0.00    -0.299 N 
ATOM     18  C   UNL     1      -0.490  -2.581   1.073  0.00  0.00    +0.132 C 
BRANCH  17  19
ATOM     19  C   UNL     1      -2.990  -2.262   0.779  0.00  0.00    +0.098 C 
ATOM     20  C   UNL     1      -3.147  -3.550  -0.045  0.00  0.00    +0.046 C 
ATOM     21  C   UNL     1      -4.468  -4.262   0.334  0.00  0.00    +0.168 C 
ATOM     22  S   UNL     1      -4.724  -3.735   2.077  0.00  0.00    -0.029 S 
ATOM     23  O   UNL     1      -5.924  -2.977   2.159  0.00  0.00    -0.174 OA
ATOM     24  O   UNL     1      -4.546  -4.857   2.931  0.00  0.00    -0.174 OA
ATOM     25  C   UNL     1      -3.285  -2.601   2.268  0.00  0.00    +0.188 C 
ENDBRANCH  17  19
ENDBRANCH  14  15
ENDBRANCH  12  14
ENDBRANCH   1  12
BRANCH  11  26
ATOM     26  C   UNL     1       1.133   4.516   0.015  0.00  0.00    +0.201 C 
BRANCH  26  27
ATOM     27  C   UNL     1       0.806   4.878   1.441  0.00  0.00    +0.125 A 
ATOM     28  C   UNL     1       1.443   5.802   2.183  0.00  0.00    +0.046 A 
ATOM     29  C   UNL     1       0.812   5.817   3.448  0.00  0.00    +0.041 A 
ATOM     30  C   UNL     1      -0.168   4.896   3.406  0.00  0.00    +0.195 A 
ATOM     31  O   UNL     1      -0.166   4.331   2.188  0.00  0.00    -0.466 OA
ENDBRANCH  26  27
ENDBRANCH  11  26
TORSDOF 6
