REMARK  Name = ZINC35888302
REMARK  9 active torsions:
REMARK  status: ('A' for Active; 'I' for Inactive)
REMARK    1  A    between atoms: C_1  and  O_2
REMARK    2  A    between atoms: O_2  and  C_3
REMARK    3  A    between atoms: C_7  and  C_9
REMARK    4  A    between atoms: C_9  and  N_10
REMARK    5  A    between atoms: C_12  and  C_24
REMARK    6  A    between atoms: C_14  and  C_17
REMARK    7  A    between atoms: C_24  and  N_25
REMARK    8  A    between atoms: N_25  and  C_26
REMARK    9  A    between atoms: C_29  and  C_31
REMARK                            x       y       z     vdW  Elec       q    Type
REMARK                         _______ _______ _______ _____ _____    ______ ____
ROOT
ATOM      1  N   UNL     1       3.253  -4.668  -0.735  0.00  0.00    +0.383 N 
ATOM      2  C   UNL     1       3.471  -6.091  -1.100  0.00  0.00    -0.073 C 
ATOM      3  C   UNL     1       3.736  -6.801   0.245  0.00  0.00    -0.005 C 
ATOM      4  C   UNL     1       3.070  -5.906   1.309  0.00  0.00    +0.005 C 
ATOM      5  C   UNL     1       2.458  -4.730   0.518  0.00  0.00    -0.070 C 
ATOM      6  H   UNL     1       4.134  -4.205  -0.571  0.00  0.00    -0.081 HD
ENDROOT
BRANCH   4   7
ATOM      7  C   UNL     1       1.992  -6.669   2.034  0.00  0.00    -0.046 A 
ATOM      8  C   UNL     1       0.713  -6.724   1.511  0.00  0.00    +0.006 A 
ATOM      9  C   UNL     1      -0.276  -7.424   2.175  0.00  0.00    +0.038 A 
ATOM     10  C   UNL     1       0.013  -8.070   3.365  0.00  0.00    +0.123 A 
ATOM     11  C   UNL     1       1.294  -8.015   3.888  0.00  0.00    +0.038 A 
ATOM     12  C   UNL     1       2.283  -7.319   3.220  0.00  0.00    +0.006 A 
ATOM     13  F   UNL     1      -0.954  -8.755   4.015  0.00  0.00    -0.205 F 
ENDBRANCH   4   7
BRANCH   1  14
ATOM     14  C   UNL     1       2.498  -3.977  -1.789  0.00  0.00    -0.043 C 
BRANCH  14  19
ATOM     15  C   UNL     1       1.040  -0.810  -0.335  0.00  0.00    +0.120 A 
ATOM     16  C   UNL     1       1.986   0.130  -0.718  0.00  0.00    +0.045 A 
ATOM     17  C   UNL     1       3.092  -0.264  -1.446  0.00  0.00    +0.004 A 
ATOM     18  C   UNL     1       3.257  -1.593  -1.792  0.00  0.00    +0.002 A 
ATOM     19  C   UNL     1       2.316  -2.530  -1.411  0.00  0.00    -0.060 A 
ATOM     20  C   UNL     1       1.210  -2.143  -0.678  0.00  0.00    +0.047 A 
BRANCH  15  22
ATOM     21  C   UNL     1      -0.160   0.964   0.700  0.00  0.00    +0.277 C 
ATOM     22  O   UNL     1      -0.050  -0.425   0.382  0.00  0.00    -0.495 OA
ENDBRANCH  15  22
ENDBRANCH  14  19
ENDBRANCH   1  14
BRANCH   3  23
ATOM     23  C   UNL     1       3.102  -8.194   0.245  0.00  0.00    +0.110 C 
BRANCH  23  24
ATOM     24  N   UNL     1       3.469  -8.898  -0.986  0.00  0.00    -0.294 N 
ATOM     25  C   UNL     1       2.624  -8.904  -2.036  0.00  0.00    +0.247 C 
ATOM     26  O   UNL     1       2.866  -9.594  -3.007  0.00  0.00    -0.270 OA
BRANCH  25  27
ATOM     27  C   UNL     1       1.402  -8.072  -2.007  0.00  0.00    +0.040 A 
ATOM     28  C   UNL     1       1.308  -6.996  -1.123  0.00  0.00    +0.013 A 
ATOM     29  C   UNL     1       0.166  -6.223  -1.099  0.00  0.00    +0.004 A 
ATOM     30  C   UNL     1      -0.887  -6.511  -1.950  0.00  0.00    +0.038 A 
ATOM     31  C   UNL     1      -0.801  -7.578  -2.830  0.00  0.00    +0.124 A 
ATOM     32  C   UNL     1       0.340  -8.357  -2.867  0.00  0.00    +0.051 A 
ATOM     33  F   UNL     1      -1.833  -7.854  -3.658  0.00  0.00    -0.205 F 
ENDBRANCH  25  27
BRANCH  24  34
ATOM     34  C   UNL     1       4.754  -9.595  -1.075  0.00  0.00    +0.076 C 
ATOM     35  C   UNL     1       5.120 -10.232  -2.418  0.00  0.00    +0.024 C 
ATOM     36  C   UNL     1       4.723 -11.117  -1.234  0.00  0.00    +0.024 C 
ENDBRANCH  24  34
ENDBRANCH  23  24
ENDBRANCH   3  23
TORSDOF 8
