REMARK  Name = ZINC35561182
REMARK  13 active torsions:
REMARK  status: ('A' for Active; 'I' for Inactive)
REMARK    1  A    between atoms: C_1  and  N_2
REMARK    2  A    between atoms: C_6  and  S_26
REMARK    3  A    between atoms: C_10  and  C_11
REMARK    4  A    between atoms: N_13  and  C_14
REMARK    5  A    between atoms: C_14  and  C_15
REMARK    6  A    between atoms: C_15  and  C_16
REMARK    7  A    between atoms: C_16  and  N_17
REMARK    8  A    between atoms: N_17  and  C_18
REMARK    9  A    between atoms: N_17  and  C_19
REMARK   10  A    between atoms: C_19  and  C_20
REMARK   11  A    between atoms: S_26  and  N_29
REMARK   12  A    between atoms: N_29  and  C_30
REMARK   13  A    between atoms: N_29  and  C_31
REMARK                            x       y       z     vdW  Elec       q    Type
REMARK                         _______ _______ _______ _____ _____    ______ ____
ROOT
ATOM      1  C   UNL     1      -0.187  -0.353   2.509  0.00  0.00    +0.261 C 
ATOM      2  O   UNL     1      -0.098  -1.148   3.425  0.00  0.00    -0.269 OA
ATOM      3  N   UNL     1      -0.392   0.954   2.768  0.00  0.00    -0.310 N 
ATOM      4  H   UNL     1      -0.537   1.576   2.038  0.00  0.00    +0.149 HD
ENDROOT
BRANCH   1  14
ATOM      5  C   UNL     1       0.070  -3.297   1.615  0.00  0.00    +0.149 C 
ATOM      6  N   UNL     1       0.043  -2.136   0.722  0.00  0.00    -0.339 N 
ATOM      7  C   UNL     1       0.122  -2.181  -0.650  0.00  0.00    +0.049 A 
ATOM      8  C   UNL     1       0.241  -3.224  -1.564  0.00  0.00    +0.028 A 
ATOM      9  C   UNL     1       0.297  -2.950  -2.912  0.00  0.00    +0.030 A 
ATOM     10  C   UNL     1       0.237  -1.640  -3.372  0.00  0.00    +0.106 A 
ATOM     11  C   UNL     1       0.120  -0.601  -2.495  0.00  0.00    +0.038 A 
ATOM     12  C   UNL     1       0.061  -0.854  -1.118  0.00  0.00    +0.002 A 
ATOM     13  C   UNL     1      -0.058  -0.019   0.019  0.00  0.00    +0.041 A 
ATOM     14  C   UNL     1      -0.071  -0.818   1.119  0.00  0.00    +0.105 A 
BRANCH  10  15
ATOM     15  S   UNL     1       0.312  -1.317  -5.102  0.00  0.00    +0.060 S 
ATOM     16  O   UNL     1       0.785   0.014  -5.247  0.00  0.00    -0.153 OA
ATOM     17  O   UNL     1       0.971  -2.429  -5.694  0.00  0.00    -0.153 OA
BRANCH  15  18
ATOM     18  N   UNL     1      -1.243  -1.331  -5.671  0.00  0.00    -0.183 NA
ATOM     19  C   UNL     1      -2.026  -0.093  -5.695  0.00  0.00    +0.131 C 
ATOM     20  C   UNL     1      -1.837  -2.582  -6.150  0.00  0.00    +0.131 C 
ENDBRANCH  15  18
ENDBRANCH  10  15
ENDBRANCH   1  14
BRANCH   3  21
ATOM     21  C   UNL     1      -0.396   1.434   4.152  0.00  0.00    +0.103 C 
BRANCH  21  22
ATOM     22  C   UNL     1      -0.648   2.943   4.166  0.00  0.00    +0.000 C 
BRANCH  22  23
ATOM     23  C   UNL     1      -0.652   3.446   5.612  0.00  0.00    -0.077 C 
BRANCH  23  24
ATOM     24  N   UNL     1      -0.894   4.894   5.626  0.00  0.00    +0.381 N 
ATOM     25  C   UNL     1      -2.243   5.170   5.115  0.00  0.00    -0.096 C 
ATOM     26  H   UNL     1      -0.212   5.355   5.042  0.00  0.00    -0.082 HD
BRANCH  24  27
ATOM     27  C   UNL     1      -0.779   5.396   7.002  0.00  0.00    -0.043 C 
BRANCH  27  28
ATOM     28  C   UNL     1      -0.905   6.898   7.001  0.00  0.00    -0.064 A 
ATOM     29  C   UNL     1       0.221   7.686   6.859  0.00  0.00    +0.002 A 
ATOM     30  C   UNL     1       0.105   9.064   6.858  0.00  0.00    +0.000 A 
ATOM     31  C   UNL     1      -1.137   9.653   6.998  0.00  0.00    +0.000 A 
ATOM     32  C   UNL     1      -2.264   8.865   7.139  0.00  0.00    +0.000 A 
ATOM     33  C   UNL     1      -2.149   7.487   7.135  0.00  0.00    +0.002 A 
ENDBRANCH  27  28
ENDBRANCH  24  27
ENDBRANCH  23  24
ENDBRANCH  22  23
ENDBRANCH  21  22
ENDBRANCH   3  21
TORSDOF 9
