REMARK  Name = ZINC39669387
REMARK  7 active torsions:
REMARK  status: ('A' for Active; 'I' for Inactive)
REMARK    1  A    between atoms: C_1  and  C_2
REMARK    2  A    between atoms: C_2  and  C_4
REMARK    3  A    between atoms: C_2  and  O_34
REMARK    4  A    between atoms: C_8  and  C_17
REMARK    5  A    between atoms: N_19  and  C_20
REMARK    6  A    between atoms: C_20  and  C_21
REMARK    7  A    between atoms: O_34  and  C_35
REMARK                            x       y       z     vdW  Elec       q    Type
REMARK                         _______ _______ _______ _____ _____    ______ ____
ROOT
ATOM      1  C   UNL     1       1.040  -0.318   1.587  0.00  0.00    +0.256 C 
ATOM      2  O   UNL     1       2.171  -0.754   1.570  0.00  0.00    -0.272 OA
ATOM      3  N   UNL     1       0.442  -0.040   2.762  0.00  0.00    -0.297 N 
ATOM      4  C   UNL     1      -0.925   0.488   2.983  0.00  0.00    +0.121 C 
ATOM      5  C   UNL     1      -1.443  -0.276   4.222  0.00  0.00    +0.100 C 
ATOM      6  C   UNL     1      -0.174  -0.720   4.968  0.00  0.00    -0.004 C 
ATOM      7  C   UNL     1       1.000  -0.201   4.126  0.00  0.00    +0.115 C 
ATOM      8  C   UNL     1      -0.119  -2.242   5.058  0.00  0.00    -0.010 C 
ATOM      9  C   UNL     1       1.122  -2.657   5.854  0.00  0.00    -0.082 C 
ATOM     10  N   UNL     1       1.063  -2.070   7.197  0.00  0.00    +0.379 N 
ATOM     11  C   UNL     1       1.104  -0.606   7.106  0.00  0.00    -0.082 C 
ATOM     12  C   UNL     1      -0.138  -0.104   6.363  0.00  0.00    -0.010 C 
ATOM     13  H   UNL     1       0.207  -2.354   7.650  0.00  0.00    -0.086 HD
ATOM     14  H   UNL     1       1.850  -2.394   7.739  0.00  0.00    -0.086 HD
ENDROOT
BRANCH   5  15
ATOM     15  C   UNL     1      -2.252  -1.475   3.799  0.00  0.00    +0.218 C 
ATOM     16  O   UNL     1      -1.997  -2.042   2.757  0.00  0.00    -0.275 OA
ATOM     17  N   UNL     1      -3.260  -1.917   4.577  0.00  0.00    -0.315 N 
ATOM     18  H   UNL     1      -3.464  -1.464   5.410  0.00  0.00    +0.149 HD
BRANCH  17  19
ATOM     19  C   UNL     1      -4.046  -3.083   4.165  0.00  0.00    +0.109 C 
BRANCH  19  20
ATOM     20  C   UNL     1      -5.118  -3.372   5.218  0.00  0.00    +0.024 C 
ATOM     21  C   UNL     1      -5.860  -4.660   4.851  0.00  0.00    +0.008 C 
ATOM     22  C   UNL     1      -6.910  -4.968   5.921  0.00  0.00    +0.019 C 
ATOM     23  C   UNL     1      -7.927  -3.824   5.976  0.00  0.00    +0.108 C 
ATOM     24  N   UNL     1      -7.207  -2.560   6.184  0.00  0.00    -0.299 N 
ATOM     25  C   UNL     1      -6.115  -2.209   5.266  0.00  0.00    +0.113 C 
ATOM     26  C   UNL     1      -7.550  -1.716   7.226  0.00  0.00    +0.218 A 
ATOM     27  N   UNL     1      -6.885  -0.581   7.385  0.00  0.00    -0.223 NA
ATOM     28  C   UNL     1      -7.188   0.248   8.370  0.00  0.00    +0.116 A 
ATOM     29  C   UNL     1      -8.215  -0.083   9.241  0.00  0.00    +0.039 A 
ATOM     30  C   UNL     1      -8.889  -1.278   9.046  0.00  0.00    +0.116 A 
ATOM     31  N   UNL     1      -8.539  -2.060   8.038  0.00  0.00    -0.223 NA
ENDBRANCH  19  20
ENDBRANCH  17  19
ENDBRANCH   5  15
BRANCH   1  33
ATOM     32  C   UNL     1       0.039   1.412   0.118  0.00  0.00    +0.062 C 
ATOM     33  C   UNL     1       0.303  -0.085   0.293  0.00  0.00    +0.256 C 
BRANCH  33  34
ATOM     34  O   UNL     1       1.095  -0.560  -0.798  0.00  0.00    -0.480 OA
BRANCH  34  35
ATOM     35  C   UNL     1       0.433  -0.921  -1.929  0.00  0.00    +0.122 A 
ATOM     36  C   UNL     1       1.125  -1.496  -2.985  0.00  0.00    +0.045 A 
ATOM     37  C   UNL     1       0.451  -1.863  -4.133  0.00  0.00    +0.004 A 
ATOM     38  C   UNL     1      -0.913  -1.657  -4.231  0.00  0.00    +0.000 A 
ATOM     39  C   UNL     1      -1.605  -1.083  -3.180  0.00  0.00    +0.004 A 
ATOM     40  C   UNL     1      -0.936  -0.720  -2.028  0.00  0.00    +0.045 A 
ENDBRANCH  34  35
ENDBRANCH  33  34
ENDBRANCH   1  33
TORSDOF 6
