REMARK  Name = ZINC35851699
REMARK  3 active torsions:
REMARK  status: ('A' for Active; 'I' for Inactive)
REMARK    1  A    between atoms: C_1  and  C_2
REMARK    2  A    between atoms: C_2  and  C_3
REMARK    3  A    between atoms: N_22  and  C_25
REMARK                            x       y       z     vdW  Elec       q    Type
REMARK                         _______ _______ _______ _____ _____    ______ ____
ROOT
ATOM      1  C   UNL     1      -1.412  -0.526   0.013  0.00  0.00    -0.047 A 
ATOM      2  C   UNL     1      -2.052  -0.767   1.215  0.00  0.00    +0.005 A 
ATOM      3  C   UNL     1      -3.346  -1.243   1.226  0.00  0.00    +0.024 A 
ATOM      4  C   UNL     1      -4.018  -1.485   0.030  0.00  0.00    +0.039 A 
ATOM      5  C   UNL     1      -3.364  -1.241  -1.176  0.00  0.00    +0.004 A 
ATOM      6  C   UNL     1      -2.073  -0.759  -1.179  0.00  0.00    +0.011 A 
ATOM      7  C   UNL     1      -4.346  -1.595  -2.252  0.00  0.00    +0.138 C 
ATOM      8  C   UNL     1      -4.635  -0.441  -3.197  0.00  0.00    +0.123 C 
ATOM      9  C   UNL     1      -3.316  -0.557  -4.052  0.00  0.00    +0.107 C 
ATOM     10  C   UNL     1      -3.183  -1.996  -4.336  0.00  0.00    +0.071 C 
ATOM     11  N   UNL     1      -3.847  -2.654  -3.151  0.00  0.00    -0.281 NA
ATOM     12  C   UNL     1      -2.937  -3.604  -2.526  0.00  0.00    +0.086 C 
ATOM     13  C   UNL     1      -1.753  -3.793  -3.500  0.00  0.00    +0.017 C 
ATOM     14  C   UNL     1      -1.701  -2.436  -4.275  0.00  0.00    +0.021 C 
ATOM     15  C   UNL     1      -3.287   0.713  -4.735  0.00  0.00    +0.232 C 
ATOM     16  O   UNL     1      -2.877   0.945  -5.852  0.00  0.00    -0.274 OA
ATOM     17  N   UNL     1      -3.828   1.603  -3.838  0.00  0.00    -0.210 N 
ATOM     18  C   UNL     1      -4.459   0.986  -2.778  0.00  0.00    +0.233 C 
ATOM     19  O   UNL     1      -4.797   1.484  -1.726  0.00  0.00    -0.274 OA
ATOM     20  C   UNL     1      -5.583  -2.048  -1.523  0.00  0.00    +0.243 C 
ATOM     21  O   UNL     1      -6.623  -2.424  -2.023  0.00  0.00    -0.273 OA
ATOM     22  N   UNL     1      -5.310  -1.957  -0.207  0.00  0.00    -0.283 N 
ATOM     23  H   UNL     1      -5.938  -2.192   0.494  0.00  0.00    +0.155 HD
ENDROOT
BRANCH  17  24
ATOM     24  C   UNL     1      -3.758   2.995  -3.988  0.00  0.00    +0.045 A 
ATOM     25  C   UNL     1      -4.326   3.827  -3.033  0.00  0.00    +0.024 A 
ATOM     26  C   UNL     1      -4.255   5.198  -3.182  0.00  0.00    +0.003 A 
ATOM     27  C   UNL     1      -3.620   5.743  -4.283  0.00  0.00    +0.015 A 
ATOM     28  C   UNL     1      -3.054   4.917  -5.238  0.00  0.00    +0.020 A 
ATOM     29  C   UNL     1      -3.116   3.544  -5.090  0.00  0.00    +0.039 A 
ATOM     30 BR   UNL     1      -2.187   5.667  -6.742  0.00  0.00    -0.050 Br
ENDBRANCH  17  24
BRANCH   1  32
ATOM     31  C   UNL     1      -0.019   1.526   0.010  0.00  0.00    +0.009 C 
ATOM     32  C   UNL     1       0.002  -0.004   0.002  0.00  0.00    +0.032 C 
ENDBRANCH   1  32
TORSDOF 2
