REMARK  Name = ZINC40722356
REMARK  8 active torsions:
REMARK  status: ('A' for Active; 'I' for Inactive)
REMARK    1  A    between atoms: C_1  and  O_2
REMARK    2  A    between atoms: O_2  and  C_3
REMARK    3  A    between atoms: C_7  and  C_19
REMARK    4  A    between atoms: C_8  and  O_9
REMARK    5  A    between atoms: O_9  and  C_10
REMARK    6  A    between atoms: C_10  and  C_11
REMARK    7  A    between atoms: C_19  and  N_20
REMARK    8  A    between atoms: N_20  and  C_21
REMARK                            x       y       z     vdW  Elec       q    Type
REMARK                         _______ _______ _______ _____ _____    ______ ____
ROOT
ATOM      1  C   UNL     1      -0.262  -0.218   0.884  0.00  0.00    +0.162 A 
ATOM      2  C   UNL     1       0.157   0.529   1.973  0.00  0.00    +0.049 A 
ATOM      3  C   UNL     1       0.901  -0.067   2.974  0.00  0.00    +0.004 A 
ATOM      4  C   UNL     1       1.229  -1.408   2.891  0.00  0.00    +0.005 A 
ATOM      5  C   UNL     1       0.814  -2.158   1.807  0.00  0.00    -0.019 A 
ATOM      6  C   UNL     1       0.063  -1.569   0.803  0.00  0.00    +0.164 A 
ENDROOT
BRANCH   1   8
ATOM      7  C   UNL     1      -1.291   1.756   0.048  0.00  0.00    +0.277 C 
ATOM      8  O   UNL     1      -0.995   0.366  -0.102  0.00  0.00    -0.491 OA
ENDBRANCH   1   8
BRANCH   6   9
ATOM      9  O   UNL     1      -0.351  -2.307  -0.261  0.00  0.00    -0.483 OA
BRANCH   9  10
ATOM     10  C   UNL     1      -1.666  -2.862  -0.193  0.00  0.00    +0.267 C 
BRANCH  10  11
ATOM     11  C   UNL     1      -1.965  -3.604  -1.470  0.00  0.00    +0.026 A 
ATOM     12  C   UNL     1      -2.481  -2.926  -2.560  0.00  0.00    +0.049 A 
ATOM     13  C   UNL     1      -2.755  -3.608  -3.733  0.00  0.00    +0.020 A 
ATOM     14  C   UNL     1      -2.513  -4.966  -3.815  0.00  0.00    +0.003 A 
ATOM     15  C   UNL     1      -1.998  -5.644  -2.726  0.00  0.00    +0.020 A 
ATOM     16  C   UNL     1      -1.718  -4.963  -1.555  0.00  0.00    +0.049 A 
ATOM     17 CL   UNL     1      -1.063  -5.813  -0.191  0.00  0.00    -0.083 Cl
ATOM     18 CL   UNL     1      -2.785  -1.220  -2.457  0.00  0.00    -0.083 Cl
ENDBRANCH  10  11
ENDBRANCH   9  10
ENDBRANCH   6   9
BRANCH   5  19
ATOM     19  C   UNL     1       1.174  -3.619   1.720  0.00  0.00    -0.043 C 
BRANCH  19  20
ATOM     20  N   UNL     1       2.281  -3.795   0.770  0.00  0.00    +0.384 N 
ATOM     21  H   UNL     1       2.031  -3.385  -0.117  0.00  0.00    -0.085 HD
ATOM     22  H   UNL     1       3.107  -3.341   1.129  0.00  0.00    -0.085 HD
BRANCH  20  23
ATOM     23  C   UNL     1       2.549  -5.228   0.590  0.00  0.00    -0.065 C 
ATOM     24  C   UNL     1       3.036  -5.826   1.912  0.00  0.00    -0.024 C 
ATOM     25  C   UNL     1       3.315  -7.318   1.724  0.00  0.00    +0.005 C 
ATOM     26  C   UNL     1       4.390  -7.506   0.652  0.00  0.00    -0.010 C 
ATOM     27  C   UNL     1       5.675  -6.798   1.089  0.00  0.00    +0.007 C 
ATOM     28  C   UNL     1       5.396  -5.305   1.277  0.00  0.00    -0.010 C 
ATOM     29  C   UNL     1       4.320  -5.118   2.349  0.00  0.00    +0.005 C 
ATOM     30  C   UNL     1       4.909  -4.707  -0.045  0.00  0.00    +0.005 C 
ATOM     31  C   UNL     1       3.624  -5.415  -0.482  0.00  0.00    -0.024 C 
ATOM     32  C   UNL     1       3.903  -6.908  -0.669  0.00  0.00    +0.005 C 
ENDBRANCH  20  23
ENDBRANCH  19  20
ENDBRANCH   5  19
TORSDOF 7
