REMARK  Name = ZINC04729288
REMARK  10 active torsions:
REMARK  status: ('A' for Active; 'I' for Inactive)
REMARK    1  A    between atoms: C_1  and  C_2
REMARK    2  A    between atoms: C_2  and  O_3
REMARK    3  A    between atoms: O_3  and  C_4
REMARK    4  A    between atoms: C_8  and  C_11
REMARK    5  A    between atoms: C_9  and  O_10
REMARK    6  A    between atoms: C_14  and  C_25
REMARK    7  A    between atoms: C_16  and  C_18
REMARK    8  A    between atoms: C_21  and  C_24
REMARK    9  A    between atoms: C_28  and  O_31
REMARK   10  A    between atoms: O_31  and  C_32
REMARK                            x       y       z     vdW  Elec       q    Type
REMARK                         _______ _______ _______ _____ _____    ______ ____
ROOT
ATOM      1  C   UNL     1      -4.959   3.970   0.458  0.00  0.00    -0.028 C 
ATOM      2  C   UNL     1      -3.790   3.067   0.053  0.00  0.00    +0.044 C 
ATOM      3  C   UNL     1      -2.518   3.868   0.044  0.00  0.00    +0.040 C 
ATOM      4  N   UNL     1      -2.497   5.148   0.055  0.00  0.00    -0.299 NA
ATOM      5  C   UNL     1      -3.691   5.985   0.075  0.00  0.00    +0.081 C 
ATOM      6  N   UNL     1      -4.877   5.215  -0.330  0.00  0.00    +0.401 N 
ATOM      7  H   UNL     1      -5.720   5.778  -0.167  0.00  0.00    -0.081 HD
ATOM      8  H   UNL     1      -4.808   4.983  -1.327  0.00  0.00    -0.081 HD
ENDROOT
BRANCH   5   9
ATOM      9  C   UNL     1      -3.506   7.140  -0.875  0.00  0.00    -0.040 A 
ATOM     10  C   UNL     1      -4.604   7.710  -1.492  0.00  0.00    +0.004 A 
ATOM     11  C   UNL     1      -4.435   8.773  -2.360  0.00  0.00    +0.003 A 
ATOM     12  C   UNL     1      -3.167   9.259  -2.617  0.00  0.00    -0.050 A 
ATOM     13  C   UNL     1      -2.068   8.686  -2.005  0.00  0.00    +0.003 A 
ATOM     14  C   UNL     1      -2.238   7.627  -1.133  0.00  0.00    +0.004 A 
ATOM     15  C   UNL     1      -2.982  10.415  -3.567  0.00  0.00    +0.044 C 
ENDBRANCH   5   9
BRANCH   1  20
ATOM     16  C   UNL     1      -8.006   1.752   0.819  0.00  0.00    +0.162 A 
ATOM     17  C   UNL     1      -8.664   1.999  -0.376  0.00  0.00    +0.049 A 
ATOM     18  C   UNL     1      -8.122   2.879  -1.294  0.00  0.00    +0.004 A 
ATOM     19  C   UNL     1      -6.928   3.519  -1.021  0.00  0.00    +0.006 A 
ATOM     20  C   UNL     1      -6.264   3.274   0.167  0.00  0.00    -0.016 A 
ATOM     21  C   UNL     1      -6.801   2.393   1.091  0.00  0.00    +0.160 A 
BRANCH  21  22
ATOM     22  O   UNL     1      -6.152   2.154   2.262  0.00  0.00    -0.503 OA
ATOM     23  H   UNL     1      -6.403   2.751   2.980  0.00  0.00    +0.292 HD
ENDBRANCH  21  22
BRANCH  16  24
ATOM     24  O   UNL     1      -8.537   0.886   1.723  0.00  0.00    -0.489 OA
BRANCH  24  26
ATOM     25  C   UNL     1     -10.214  -0.668   2.507  0.00  0.00    +0.048 C 
ATOM     26  C   UNL     1      -9.777   0.266   1.377  0.00  0.00    +0.226 C 
ENDBRANCH  24  26
ENDBRANCH  16  24
ENDBRANCH   1  20
BRANCH   3  27
ATOM     27  C   UNL     1      -1.233   3.145   0.029  0.00  0.00    -0.004 A 
ATOM     28  C   UNL     1      -1.215   1.747   0.017  0.00  0.00    +0.013 A 
ATOM     29  C   UNL     1      -0.013   1.076   0.008  0.00  0.00    +0.046 A 
ATOM     30  C   UNL     1       1.182   1.786   0.000  0.00  0.00    +0.120 A 
ATOM     31  C   UNL     1       1.169   3.175   0.007  0.00  0.00    +0.046 A 
ATOM     32  C   UNL     1      -0.029   3.855   0.021  0.00  0.00    +0.013 A 
BRANCH  30  33
ATOM     33  O   UNL     1       2.365   1.120  -0.014  0.00  0.00    -0.495 OA
ATOM     34  C   UNL     1       3.555   1.912  -0.021  0.00  0.00    +0.277 C 
ENDBRANCH  30  33
ENDBRANCH   3  27
TORSDOF 7
