REMARK  Name = ZINC49787410
REMARK  6 active torsions:
REMARK  status: ('A' for Active; 'I' for Inactive)
REMARK    1  A    between atoms: C_1  and  C_2
REMARK    2  A    between atoms: C_2  and  C_4
REMARK    3  A    between atoms: C_2  and  N_14
REMARK    4  A    between atoms: C_21  and  C_23
REMARK    5  A    between atoms: N_25  and  C_26
REMARK    6  A    between atoms: C_26  and  C_27
REMARK                            x       y       z     vdW  Elec       q    Type
REMARK                         _______ _______ _______ _____ _____    ______ ____
ROOT
ATOM      1  N   UNL     1       0.688  -0.476  -1.203  0.00  0.00    -0.293 N 
ATOM      2  C   UNL     1       0.006  -0.608  -2.358  0.00  0.00    +0.303 C 
ATOM      3  O   UNL     1      -1.178  -0.335  -2.400  0.00  0.00    -0.253 OA
ATOM      4  N   UNL     1       0.637  -1.043  -3.467  0.00  0.00    -0.274 N 
ATOM      5  C   UNL     1       2.061  -1.414  -3.556  0.00  0.00    +0.110 C 
ATOM      6  C   UNL     1       2.143  -2.388  -4.758  0.00  0.00    +0.021 C 
ATOM      7  C   UNL     1       1.113  -1.763  -5.736  0.00  0.00    +0.033 C 
ATOM      8  C   UNL     1       0.018  -1.231  -4.787  0.00  0.00    +0.163 C 
ATOM      9  H   UNL     1       1.632  -0.695  -1.170  0.00  0.00    +0.151 HD
ENDROOT
BRANCH   8  10
ATOM     10  C   UNL     1      -1.107  -2.230  -4.688  0.00  0.00    +0.234 C 
ATOM     11  O   UNL     1      -1.167  -2.982  -3.739  0.00  0.00    -0.274 OA
ATOM     12  N   UNL     1      -2.045  -2.287  -5.654  0.00  0.00    -0.305 N 
ATOM     13  H   UNL     1      -1.996  -1.685  -6.413  0.00  0.00    +0.149 HD
BRANCH  12  14
ATOM     14  C   UNL     1      -3.138  -3.258  -5.557  0.00  0.00    +0.217 C 
BRANCH  14  15
ATOM     15  C   UNL     1      -4.056  -3.114  -6.772  0.00  0.00    +0.405 C 
ATOM     16  F   UNL     1      -3.325  -3.351  -7.941  0.00  0.00    -0.169 F 
ATOM     17  F   UNL     1      -5.100  -4.041  -6.680  0.00  0.00    -0.169 F 
ATOM     18  F   UNL     1      -4.585  -1.819  -6.807  0.00  0.00    -0.169 F 
ENDBRANCH  14  15
ENDBRANCH  12  14
ENDBRANCH   8  10
BRANCH   1  20
ATOM     19  C   UNL     1      -0.019   1.526   0.010  0.00  0.00    +0.033 C 
ATOM     20  C   UNL     1       0.002  -0.004   0.002  0.00  0.00    +0.102 C 
BRANCH  20  21
ATOM     21  C   UNL     1       0.731  -0.503   1.223  0.00  0.00    -0.027 A 
ATOM     22  C   UNL     1       2.125  -0.509   1.236  0.00  0.00    +0.006 A 
ATOM     23  C   UNL     1       2.813  -0.954   2.322  0.00  0.00    +0.009 A 
ATOM     24  C   UNL     1       2.112  -1.414   3.450  0.00  0.00    -0.018 A 
ATOM     25  C   UNL     1       2.789  -1.880   4.590  0.00  0.00    +0.008 A 
ATOM     26  C   UNL     1       2.076  -2.318   5.663  0.00  0.00    +0.001 A 
ATOM     27  C   UNL     1       0.682  -2.312   5.651  0.00  0.00    +0.001 A 
ATOM     28  C   UNL     1      -0.006  -1.867   4.564  0.00  0.00    +0.008 A 
ATOM     29  C   UNL     1       0.695  -1.408   3.437  0.00  0.00    -0.018 A 
ATOM     30  C   UNL     1       0.018  -0.936   2.299  0.00  0.00    +0.014 A 
ENDBRANCH  20  21
ENDBRANCH   1  20
TORSDOF 5
