REMARK  Name = ZINC39533528
REMARK  10 active torsions:
REMARK  status: ('A' for Active; 'I' for Inactive)
REMARK    1  A    between atoms: C_1  and  C_2
REMARK    2  A    between atoms: C_2  and  C_3
REMARK    3  A    between atoms: C_2  and  C_4
REMARK    4  A    between atoms: C_4  and  C_5
REMARK    5  A    between atoms: C_8  and  C_11
REMARK    6  A    between atoms: C_11  and  C_13
REMARK    7  A    between atoms: C_11  and  N_24
REMARK    8  A    between atoms: C_13  and  N_14
REMARK    9  A    between atoms: N_14  and  S_15
REMARK   10  A    between atoms: S_15  and  C_18
REMARK                            x       y       z     vdW  Elec       q    Type
REMARK                         _______ _______ _______ _____ _____    ______ ____
ROOT
ATOM      1  C   UNL     1      -3.938   0.925  -4.855  0.00  0.00    +0.102 C 
ENDROOT
BRANCH   1   2
ATOM      2  N   UNL     1      -4.413  -0.328  -5.457  0.00  0.00    -0.291 NA
ATOM      3  C   UNL     1      -4.961  -0.093  -6.800  0.00  0.00    +0.100 C 
ATOM      4  C   UNL     1      -5.370  -1.430  -7.423  0.00  0.00    +0.097 C 
ATOM      5  N   UNL     1      -6.361  -2.087  -6.559  0.00  0.00    -0.303 NA
ATOM      6  C   UNL     1      -5.813  -2.322  -5.216  0.00  0.00    +0.132 C 
ATOM      7  C   UNL     1      -5.404  -0.985  -4.594  0.00  0.00    +0.114 C 
ATOM      8  I   UNL     1      -7.314  -3.266  -3.979  0.00  0.00    -0.063 I 
ATOM      9  H   UNL     1      -7.213  -1.548  -6.513  0.00  0.00    +0.123 HD
ENDBRANCH   1   2
BRANCH   1  13
ATOM     10  C   UNL     1      -2.186   0.100  -1.048  0.00  0.00    -0.047 A 
ATOM     11  C   UNL     1      -2.973   1.224  -1.217  0.00  0.00    +0.004 A 
ATOM     12  C   UNL     1      -3.540   1.491  -2.449  0.00  0.00    +0.005 A 
ATOM     13  C   UNL     1      -3.319   0.634  -3.512  0.00  0.00    -0.029 A 
ATOM     14  C   UNL     1      -2.532  -0.489  -3.342  0.00  0.00    +0.005 A 
ATOM     15  C   UNL     1      -1.961  -0.753  -2.111  0.00  0.00    +0.004 A 
BRANCH  10  16
ATOM     16  C   UNL     1      -1.567  -0.191   0.295  0.00  0.00    +0.038 C 
BRANCH  16  18
ATOM     17  C   UNL     1      -0.362   1.998   0.333  0.00  0.00    +0.007 C 
ATOM     18  C   UNL     1      -0.194   0.478   0.380  0.00  0.00    -0.013 C 
ATOM     19  C   UNL     1       0.487   0.081   1.692  0.00  0.00    +0.007 C 
ENDBRANCH  16  18
ENDBRANCH  10  16
ENDBRANCH   1  13
BRANCH   1  20
ATOM     20  C   UNL     1      -2.894   1.567  -5.770  0.00  0.00    +0.129 C 
BRANCH  20  21
ATOM     21  N   UNL     1      -2.477   2.854  -5.207  0.00  0.00    -0.188 NA
ATOM     22  H   UNL     1      -3.014   3.281  -4.522  0.00  0.00    +0.148 HD
BRANCH  21  23
ATOM     23  S   UNL     1      -1.088   3.580  -5.742  0.00  0.00    +0.058 S 
ATOM     24  O   UNL     1      -0.974   4.808  -5.035  0.00  0.00    -0.153 OA
ATOM     25  O   UNL     1      -0.073   2.587  -5.713  0.00  0.00    -0.153 OA
BRANCH  23  26
ATOM     26  C   UNL     1      -1.337   3.997  -7.436  0.00  0.00    +0.105 A 
ATOM     27  C   UNL     1      -1.007   3.090  -8.426  0.00  0.00    +0.028 A 
ATOM     28  C   UNL     1      -1.202   3.417  -9.755  0.00  0.00    +0.002 A 
ATOM     29  C   UNL     1      -1.727   4.649 -10.094  0.00  0.00    +0.000 A 
ATOM     30  C   UNL     1      -2.058   5.556  -9.104  0.00  0.00    +0.002 A 
ATOM     31  C   UNL     1      -1.867   5.227  -7.775  0.00  0.00    +0.028 A 
ENDBRANCH  23  26
ENDBRANCH  21  23
ENDBRANCH  20  21
ENDBRANCH   1  20
TORSDOF 8
