REMARK  Name = ZINC34837149
REMARK  8 active torsions:
REMARK  status: ('A' for Active; 'I' for Inactive)
REMARK    1  A    between atoms: C_1  and  N_2
REMARK    2  A    between atoms: N_2  and  C_3
REMARK    3  A    between atoms: N_2  and  C_4
REMARK    4  A    between atoms: C_4  and  C_5
REMARK    5  A    between atoms: C_5  and  N_6
REMARK    6  A    between atoms: N_6  and  C_7
REMARK    7  A    between atoms: C_7  and  C_8
REMARK    8  A    between atoms: C_14  and  C_16
REMARK                            x       y       z     vdW  Elec       q    Type
REMARK                         _______ _______ _______ _____ _____    ______ ____
ROOT
ATOM      1  N   UNL     1      -2.656  -2.724  -0.132  0.00  0.00    -0.294 N 
ATOM      2  C   UNL     1      -3.267  -3.008   1.035  0.00  0.00    +0.268 C 
ATOM      3  O   UNL     1      -4.420  -3.394   1.041  0.00  0.00    -0.268 OA
ENDROOT
BRANCH   2   4
ATOM      4  C   UNL     1      -2.536  -2.849   2.307  0.00  0.00    +0.156 A 
ATOM      5  C   UNL     1      -3.134  -3.271   3.573  0.00  0.00    +0.018 A 
ATOM      6  C   UNL     1      -4.406  -3.838   3.659  0.00  0.00    +0.011 A 
ATOM      7  C   UNL     1      -4.894  -4.206   4.880  0.00  0.00    +0.001 A 
ATOM      8  C   UNL     1      -4.142  -4.024   6.037  0.00  0.00    +0.001 A 
ATOM      9  C   UNL     1      -2.895  -3.471   5.986  0.00  0.00    +0.012 A 
ATOM     10  C   UNL     1      -2.366  -3.084   4.751  0.00  0.00    +0.026 A 
ATOM     11  C   UNL     1      -1.083  -2.506   4.613  0.00  0.00    +0.152 A 
ATOM     12  N   UNL     1      -0.648  -2.164   3.409  0.00  0.00    -0.133 NA
ATOM     13  N   UNL     1      -1.318  -2.326   2.331  0.00  0.00    -0.142 NA
ATOM     14  N   UNL     1      -0.291  -2.301   5.722  0.00  0.00    -0.313 N 
ATOM     15  C   UNL     1       0.674  -3.321   6.152  0.00  0.00    +0.106 C 
ATOM     16  C   UNL     1       2.056  -2.671   6.278  0.00  0.00    +0.019 C 
ATOM     17  C   UNL     1       1.963  -1.461   7.210  0.00  0.00    +0.003 C 
ATOM     18  C   UNL     1       0.997  -0.432   6.618  0.00  0.00    +0.019 C 
ATOM     19  C   UNL     1      -0.392  -1.054   6.493  0.00  0.00    +0.106 C 
ENDBRANCH   2   4
BRANCH   1  20
ATOM     20  C   UNL     1      -1.234  -2.373  -0.149  0.00  0.00    +0.090 C 
BRANCH  20  21
ATOM     21  C   UNL     1      -1.079  -0.865   0.058  0.00  0.00    -0.060 C 
BRANCH  21  23
ATOM     22  C   UNL     1       0.492   0.947   0.119  0.00  0.00    -0.097 C 
ATOM     23  N   UNL     1       0.347  -0.512   0.041  0.00  0.00    +0.377 N 
ATOM     24  C   UNL     1       1.018  -1.134   1.190  0.00  0.00    -0.097 C 
ATOM     25  H   UNL     1       0.766  -0.847  -0.814  0.00  0.00    -0.083 HD
ENDBRANCH  21  23
ENDBRANCH  20  21
ENDBRANCH   1  20
BRANCH   1  26
ATOM     26  C   UNL     1      -3.415  -2.768  -1.385  0.00  0.00    +0.143 C 
BRANCH  26  27
ATOM     27  C   UNL     1      -3.338  -4.154  -1.971  0.00  0.00    -0.030 A 
ATOM     28  C   UNL     1      -2.316  -4.480  -2.842  0.00  0.00    +0.005 A 
ATOM     29  C   UNL     1      -2.245  -5.752  -3.380  0.00  0.00    +0.000 A 
ATOM     30  C   UNL     1      -3.197  -6.697  -3.046  0.00  0.00    +0.000 A 
ATOM     31  C   UNL     1      -4.219  -6.371  -2.174  0.00  0.00    +0.000 A 
ATOM     32  C   UNL     1      -4.287  -5.101  -1.633  0.00  0.00    +0.005 A 
ENDBRANCH  26  27
ENDBRANCH   1  26
TORSDOF 6
