REMARK  Name = ZINC11855632
REMARK  7 active torsions:
REMARK  status: ('A' for Active; 'I' for Inactive)
REMARK    1  A    between atoms: C_1  and  C_2
REMARK    2  A    between atoms: C_2  and  C_3
REMARK    3  A    between atoms: C_2  and  C_4
REMARK    4  A    between atoms: C_13  and  N_22
REMARK    5  A    between atoms: C_15  and  C_17
REMARK    6  A    between atoms: C_23  and  C_25
REMARK    7  A    between atoms: C_25  and  C_26
REMARK                            x       y       z     vdW  Elec       q    Type
REMARK                         _______ _______ _______ _____ _____    ______ ____
ROOT
ATOM      1  C   UNL     1       1.301  10.898   0.048  0.00  0.00    +0.053 A 
ATOM      2  C   UNL     1       0.002  11.291   0.185  0.00  0.00    +0.093 A 
ATOM      3  C   UNL     1      -0.998  10.306   0.286  0.00  0.00    +0.253 A 
ATOM      4  O   UNL     1      -2.170  10.620   0.410  0.00  0.00    -0.268 OA
ATOM      5  N   UNL     1      -0.635   9.006   0.238  0.00  0.00    -0.291 N 
ATOM      6  H   UNL     1      -1.308   8.310   0.302  0.00  0.00    +0.172 HD
ATOM      7  C   UNL     1       0.677   8.676   0.104  0.00  0.00    +0.234 A 
ATOM      8  N   UNL     1       1.607   9.602   0.011  0.00  0.00    -0.217 NA
ATOM      9  N   UNL     1       1.040   7.344   0.060  0.00  0.00    -0.185 N 
ATOM     10  C   UNL     1       2.318   6.861   0.025  0.00  0.00    +0.132 A 
ATOM     11  C   UNL     1       2.245   5.506  -0.012  0.00  0.00    +0.074 A 
ATOM     12  C   UNL     1       0.880   5.147   0.000  0.00  0.00    +0.102 A 
ATOM     13  N   UNL     1       0.164   6.252   0.038  0.00  0.00    -0.162 NA
ENDROOT
BRANCH  12  14
ATOM     14  C   UNL     1       0.347   3.768  -0.030  0.00  0.00    +0.039 A 
ATOM     15  C   UNL     1      -0.956   3.347  -0.021  0.00  0.00    +0.018 A 
ATOM     16  C   UNL     1      -1.215   1.995  -0.061  0.00  0.00    +0.008 A 
ATOM     17  C   UNL     1      -0.175   1.123  -0.096  0.00  0.00    +0.046 A 
ATOM     18  S   UNL     1       1.233   2.220  -0.088  0.00  0.00    -0.095 S 
ENDBRANCH  12  14
BRANCH  10  19
ATOM     19  N   UNL     1       3.485   7.621   0.028  0.00  0.00    -0.270 N 
ATOM     20  C   UNL     1       4.685   7.014   0.121  0.00  0.00    +0.223 C 
ATOM     21  O   UNL     1       4.748   5.805   0.202  0.00  0.00    -0.275 OA
ATOM     22  H   UNL     1       3.434   8.588  -0.036  0.00  0.00    +0.156 HD
BRANCH  20  23
ATOM     23  C   UNL     1       5.947   7.837   0.124  0.00  0.00    +0.131 C 
BRANCH  23  24
ATOM     24  C   UNL     1       7.141   6.924   0.237  0.00  0.00    -0.031 A 
ATOM     25  C   UNL     1       7.694   6.666   1.454  0.00  0.00    +0.005 A 
ATOM     26  C   UNL     1       8.797   5.825   1.577  0.00  0.00    +0.001 A 
ATOM     27  C   UNL     1       9.355   5.236   0.484  0.00  0.00    +0.008 A 
ATOM     28  C   UNL     1       8.812   5.478  -0.789  0.00  0.00    -0.018 A 
ATOM     29  C   UNL     1       7.686   6.330  -0.914  0.00  0.00    -0.014 A 
ATOM     30  C   UNL     1       7.146   6.574  -2.188  0.00  0.00    +0.009 A 
ATOM     31  C   UNL     1       7.705   5.986  -3.281  0.00  0.00    +0.001 A 
ATOM     32  C   UNL     1       8.809   5.145  -3.157  0.00  0.00    +0.001 A 
ATOM     33  C   UNL     1       9.361   4.888  -1.940  0.00  0.00    +0.008 A 
ENDBRANCH  23  24
ENDBRANCH  20  23
ENDBRANCH  10  19
BRANCH   1  35
ATOM     34  C   UNL     1       3.384  11.752   1.089  0.00  0.00    +0.014 C 
ATOM     35  C   UNL     1       2.392  11.932  -0.062  0.00  0.00    +0.032 C 
ATOM     36  C   UNL     1       3.123  11.762  -1.396  0.00  0.00    +0.014 C 
ENDBRANCH   1  35
TORSDOF 5
