REMARK  Name = ZINC01260217
REMARK  5 active torsions:
REMARK  status: ('A' for Active; 'I' for Inactive)
REMARK    1  A    between atoms: C_1  and  C_2
REMARK    2  A    between atoms: C_2  and  C_3
REMARK    3  A    between atoms: C_2  and  C_4
REMARK    4  A    between atoms: N_14  and  C_19
REMARK    5  A    between atoms: N_17  and  N_18
REMARK                            x       y       z     vdW  Elec       q    Type
REMARK                         _______ _______ _______ _____ _____    ______ ____
ROOT
ATOM      1  C   UNL     1      -4.710   8.893  -0.746  0.00  0.00    +0.126 C 
ATOM      2  C   UNL     1      -3.851   7.728  -0.244  0.00  0.00    +0.068 C 
ATOM      3  C   UNL     1      -2.409   8.218  -0.133  0.00  0.00    -0.018 A 
ATOM      4  C   UNL     1      -2.156   9.544  -0.107  0.00  0.00    +0.021 A 
ATOM      5  S   UNL     1      -0.396   9.673   0.025  0.00  0.00    -0.071 S 
ATOM      6  C   UNL     1      -0.003   7.941   0.048  0.00  0.00    +0.118 A 
ATOM      7  C   UNL     1      -1.260   7.319  -0.050  0.00  0.00    +0.076 A 
ATOM      8  C   UNL     1      -1.247   5.888  -0.060  0.00  0.00    +0.268 A 
ATOM      9  O   UNL     1      -2.289   5.261  -0.147  0.00  0.00    -0.266 OA
ATOM     10  N   UNL     1      -0.069   5.243   0.033  0.00  0.00    -0.248 N 
ATOM     11  C   UNL     1       1.108   5.929   0.125  0.00  0.00    +0.218 A 
ATOM     12  N   UNL     1       1.125   7.245   0.131  0.00  0.00    -0.207 NA
ATOM     13  N   UNL     1       2.291   5.236   0.212  0.00  0.00    -0.253 N 
ATOM     14  C   UNL     1      -3.172  10.642  -0.178  0.00  0.00    +0.203 C 
ATOM     15  O   UNL     1      -4.466  10.060   0.044  0.00  0.00    -0.371 OA
ATOM     16  H   UNL     1       2.293   4.269   0.134  0.00  0.00    +0.169 HD
ENDROOT
BRANCH  10  17
ATOM     17  C   UNL     1      -0.051   3.842   0.029  0.00  0.00    +0.053 A 
ATOM     18  C   UNL     1       0.044   3.151  -1.171  0.00  0.00    +0.026 A 
ATOM     19  C   UNL     1       0.062   1.770  -1.171  0.00  0.00    +0.002 A 
ATOM     20  C   UNL     1      -0.015   1.076   0.022  0.00  0.00    +0.000 A 
ATOM     21  C   UNL     1      -0.116   1.761   1.219  0.00  0.00    +0.002 A 
ATOM     22  C   UNL     1      -0.128   3.143   1.226  0.00  0.00    +0.026 A 
ENDBRANCH  10  17
BRANCH   1  24
ATOM     23  C   UNL     1      -7.049   9.668  -1.162  0.00  0.00    +0.010 C 
ATOM     24  C   UNL     1      -6.189   8.513  -0.646  0.00  0.00    +0.012 C 
ATOM     25  C   UNL     1      -6.452   7.264  -1.490  0.00  0.00    +0.010 C 
ENDBRANCH   1  24
BRANCH  13  26
ATOM     26  N   UNL     1       3.463   5.908   0.411  0.00  0.00    -0.254 NA
ATOM     27  H   UNL     1       3.417   6.479   1.242  0.00  0.00    +0.140 HD
ATOM     28  H   UNL     1       4.243   5.270   0.454  0.00  0.00    +0.140 HD
ENDBRANCH  13  26
TORSDOF 3
