REMARK  Name = ZINC04177299
REMARK  7 active torsions:
REMARK  status: ('A' for Active; 'I' for Inactive)
REMARK    1  A    between atoms: C_1  and  C_2
REMARK    2  A    between atoms: C_2  and  C_3
REMARK    3  A    between atoms: C_10  and  N_15
REMARK    4  A    between atoms: C_11  and  C_12
REMARK    5  A    between atoms: C_16  and  C_18
REMARK    6  A    between atoms: C_18  and  O_19
REMARK    7  A    between atoms: O_19  and  C_20
REMARK                            x       y       z     vdW  Elec       q    Type
REMARK                         _______ _______ _______ _____ _____    ______ ____
ROOT
ATOM      1  C   UNL     1       2.726 -11.314   0.292  0.00  0.00    -0.006 C 
ATOM      2  C   UNL     1       3.990 -11.145  -0.556  0.00  0.00    +0.008 C 
ATOM      3  C   UNL     1       4.760  -9.904  -0.101  0.00  0.00    +0.037 C 
ATOM      4  C   UNL     1       3.808  -8.715  -0.084  0.00  0.00    -0.023 A 
ATOM      5  C   UNL     1       2.469  -8.895  -0.072  0.00  0.00    -0.004 A 
ATOM      6  S   UNL     1       1.792  -7.259  -0.049  0.00  0.00    -0.077 S 
ATOM      7  C   UNL     1       3.265  -6.347  -0.065  0.00  0.00    +0.084 A 
ATOM      8  C   UNL     1       4.245  -7.329  -0.080  0.00  0.00    +0.068 A 
ATOM      9  C   UNL     1       1.734 -10.200  -0.071  0.00  0.00    +0.046 C 
ENDROOT
BRANCH   8  10
ATOM     10  C   UNL     1       5.670  -6.982  -0.091  0.00  0.00    +0.244 C 
ATOM     11  O   UNL     1       6.270  -6.843   0.959  0.00  0.00    -0.270 OA
ATOM     12  N   UNL     1       6.314  -6.815  -1.263  0.00  0.00    -0.325 N 
ATOM     13  H   UNL     1       5.835  -6.926  -2.099  0.00  0.00    +0.145 HD
ATOM     14  H   UNL     1       7.256  -6.585  -1.270  0.00  0.00    +0.145 HD
ENDBRANCH   8  10
BRANCH   7  15
ATOM     15  N   UNL     1       3.425  -4.970  -0.059  0.00  0.00    -0.277 N 
ATOM     16  C   UNL     1       2.344  -4.165  -0.044  0.00  0.00    +0.255 C 
ATOM     17  O   UNL     1       1.231  -4.646  -0.036  0.00  0.00    -0.272 OA
ATOM     18  H   UNL     1       4.316  -4.585  -0.065  0.00  0.00    +0.155 HD
BRANCH  16  19
ATOM     19  C   UNL     1       2.518  -2.668  -0.037  0.00  0.00    +0.325 C 
BRANCH  19  20
ATOM     20  O   UNL     1       1.235  -2.040  -0.021  0.00  0.00    -0.481 OA
BRANCH  20  21
ATOM     21  C   UNL     1       1.214  -0.680  -0.013  0.00  0.00    +0.140 A 
ATOM     22  C   UNL     1       2.404   0.033  -0.021  0.00  0.00    +0.048 A 
ATOM     23  C   UNL     1       2.381   1.414  -0.013  0.00  0.00    +0.023 A 
ATOM     24  C   UNL     1       1.171   2.087   0.002  0.00  0.00    +0.043 A 
ATOM     25  C   UNL     1      -0.017   1.378   0.010  0.00  0.00    +0.043 A 
ATOM     26  C   UNL     1       0.002  -0.004   0.002  0.00  0.00    +0.084 A 
ATOM     27 CL   UNL     1      -1.489  -0.893   0.011  0.00  0.00    -0.080 Cl
ATOM     28 CL   UNL     1       1.146   3.823   0.011  0.00  0.00    -0.083 Cl
ENDBRANCH  20  21
ENDBRANCH  19  20
ENDBRANCH  16  19
ENDBRANCH   7  15
BRANCH   1  30
ATOM     29  C   UNL     1       0.894 -12.889   0.929  0.00  0.00    +0.004 C 
ATOM     30  C   UNL     1       2.094 -12.677   0.004  0.00  0.00    +0.000 C 
ENDBRANCH   1  30
TORSDOF 6
