REMARK  Name = ZINC06654205
REMARK  4 active torsions:
REMARK  status: ('A' for Active; 'I' for Inactive)
REMARK    1  A    between atoms: C_1  and  C_2
REMARK    2  A    between atoms: N_10  and  C_14
REMARK    3  A    between atoms: C_14  and  C_15
REMARK    4  A    between atoms: C_21  and  C_23
REMARK                            x       y       z     vdW  Elec       q    Type
REMARK                         _______ _______ _______ _____ _____    ______ ____
ROOT
ATOM      1  C   UNL     1      10.935   1.418  -5.434  0.00  0.00    +0.007 C 
ATOM      2  C   UNL     1      10.002   1.335  -4.225  0.00  0.00    -0.014 C 
ATOM      3  C   UNL     1       8.817   0.425  -4.556  0.00  0.00    +0.006 C 
ATOM      4  C   UNL     1       7.890   0.334  -3.341  0.00  0.00    +0.035 C 
ATOM      5  C   UNL     1       7.395   1.728  -2.973  0.00  0.00    +0.113 C 
ATOM      6  C   UNL     1       8.566   2.652  -2.660  0.00  0.00    +0.035 C 
ATOM      7  C   UNL     1       9.491   2.735  -3.878  0.00  0.00    +0.006 C 
ATOM      8  C   UNL     1       6.450   1.663  -1.795  0.00  0.00    +0.247 C 
ATOM      9  O   UNL     1       6.699   1.267  -0.676  0.00  0.00    -0.273 OA
ATOM     10  N   UNL     1       5.272   2.135  -2.251  0.00  0.00    -0.215 N 
ATOM     11  C   UNL     1       5.349   2.491  -3.539  0.00  0.00    +0.310 C 
ATOM     12  O   UNL     1       4.416   2.948  -4.171  0.00  0.00    -0.252 OA
ATOM     13  N   UNL     1       6.575   2.285  -4.056  0.00  0.00    -0.285 N 
ATOM     14  H   UNL     1       6.861   2.469  -4.965  0.00  0.00    +0.151 HD
ENDROOT
BRANCH  10  15
ATOM     15  C   UNL     1       4.060   2.250  -1.436  0.00  0.00    +0.213 C 
BRANCH  15  16
ATOM     16  C   UNL     1       3.261   0.976  -1.542  0.00  0.00    +0.234 C 
ATOM     17  O   UNL     1       3.664   0.063  -2.230  0.00  0.00    -0.274 OA
ATOM     18  N   UNL     1       2.098   0.853  -0.871  0.00  0.00    -0.293 N 
ATOM     19  C   UNL     1       1.494   1.879  -0.002  0.00  0.00    +0.108 C 
ATOM     20  C   UNL     1      -0.019   1.547   0.011  0.00  0.00    +0.021 C 
ATOM     21  C   UNL     1       0.002  -0.004   0.002  0.00  0.00    +0.029 C 
ATOM     22  C   UNL     1       1.223  -0.328  -0.885  0.00  0.00    +0.113 C 
BRANCH  22  23
ATOM     23  C   UNL     1       1.960  -1.519  -0.327  0.00  0.00    +0.010 A 
ATOM     24  C   UNL     1       1.932  -2.810  -0.740  0.00  0.00    +0.013 A 
ATOM     25  C   UNL     1       2.700  -3.744  -0.071  0.00  0.00    +0.008 A 
ATOM     26  C   UNL     1       3.457  -3.342   0.979  0.00  0.00    +0.045 A 
ATOM     27  S   UNL     1       3.101  -1.594   1.043  0.00  0.00    -0.100 S 
ENDBRANCH  22  23
ENDBRANCH  15  16
ENDBRANCH  10  15
TORSDOF 3
