REMARK  Name = ZINC11936299
REMARK  13 active torsions:
REMARK  status: ('A' for Active; 'I' for Inactive)
REMARK    1  A    between atoms: C_1  and  C_2
REMARK    2  A    between atoms: C_2  and  C_3
REMARK    3  A    between atoms: C_3  and  S_4
REMARK    4  A    between atoms: S_4  and  C_7
REMARK    5  A    between atoms: C_10  and  C_19
REMARK    6  A    between atoms: N_11  and  C_12
REMARK    7  A    between atoms: C_12  and  C_13
REMARK    8  A    between atoms: C_19  and  N_59
REMARK    9  A    between atoms: C_20  and  N_59
REMARK   10  A    between atoms: C_21  and  C_22
REMARK   11  A    between atoms: C_21  and  N_59
REMARK   12  A    between atoms: N_26  and  C_27
REMARK   13  A    between atoms: C_27  and  C_28
REMARK                            x       y       z     vdW  Elec       q    Type
REMARK                         _______ _______ _______ _____ _____    ______ ____
ROOT
ATOM      1  C   UNL     1      -4.437  -2.007  -4.285  0.00  0.00    +0.251 A 
ATOM      2  N   UNL     1      -3.758  -3.105  -4.476  0.00  0.00    -0.220 NA
ATOM      3  C   UNL     1      -3.031  -3.372  -3.381  0.00  0.00    +0.133 A 
ATOM      4  C   UNL     1      -3.269  -2.402  -2.477  0.00  0.00    +0.023 A 
ATOM      5  N   UNL     1      -4.165  -1.539  -3.048  0.00  0.00    -0.313 N 
ENDROOT
BRANCH   1   6
ATOM      6  S   UNL     1      -5.534  -1.263  -5.446  0.00  0.00    +0.030 S 
ATOM      7  O   UNL     1      -5.543   0.116  -5.104  0.00  0.00    -0.166 OA
ATOM      8  O   UNL     1      -5.063  -1.691  -6.716  0.00  0.00    -0.166 OA
BRANCH   6   9
ATOM      9  C   UNL     1      -7.153  -2.003  -5.098  0.00  0.00    +0.175 C 
BRANCH   9  11
ATOM     10  C   UNL     1      -9.561  -2.049  -5.764  0.00  0.00    +0.005 C 
ATOM     11  C   UNL     1      -8.195  -1.424  -6.057  0.00  0.00    +0.020 C 
ENDBRANCH   9  11
ENDBRANCH   6   9
ENDBRANCH   1   6
BRANCH   5  12
ATOM     12  C   UNL     1      -4.722  -0.332  -2.433  0.00  0.00    +0.156 C 
BRANCH  12  13
ATOM     13  C   UNL     1      -3.826   0.865  -2.755  0.00  0.00    +0.138 C 
ATOM     14  C   UNL     1      -4.445   2.168  -2.190  0.00  0.00    +0.035 C 
ATOM     15  C   UNL     1      -3.177   3.053  -2.034  0.00  0.00    +0.031 C 
ATOM     16  C   UNL     1      -2.097   2.015  -1.655  0.00  0.00    +0.160 C 
ATOM     17  O   UNL     1      -2.558   0.732  -2.092  0.00  0.00    -0.375 OA
ENDBRANCH  12  13
ENDBRANCH   5  12
BRANCH   4  18
ATOM     18  C   UNL     1      -2.669  -2.292  -1.098  0.00  0.00    -0.023 C 
BRANCH  18  20
ATOM     19  C   UNL     1      -0.417  -2.023  -1.947  0.00  0.00    -0.095 C 
ATOM     20  N   UNL     1      -1.498  -1.393  -1.159  0.00  0.00    +0.386 N 
ATOM     21  H   UNL     1      -1.774  -0.515  -1.614  0.00  0.00    -0.081 HD
BRANCH  20  22
ATOM     22  C   UNL     1      -1.018  -1.095   0.207  0.00  0.00    -0.003 C 
BRANCH  22  23
ATOM     23  C   UNL     1      -0.158   0.141   0.159  0.00  0.00    +0.093 A 
ATOM     24  N   UNL     1       0.941   0.276  -0.532  0.00  0.00    -0.243 NA
ATOM     25  C   UNL     1       1.438   1.506  -0.336  0.00  0.00    +0.130 A 
ATOM     26  C   UNL     1       0.616   2.158   0.508  0.00  0.00    +0.107 A 
ATOM     27  N   UNL     1      -0.397   1.292   0.822  0.00  0.00    -0.336 N 
BRANCH  27  28
ATOM     28  C   UNL     1      -1.528   1.565   1.712  0.00  0.00    +0.119 C 
ATOM     29  C   UNL     1      -1.227   1.008   3.105  0.00  0.00    +0.027 C 
ENDBRANCH  27  28
ENDBRANCH  22  23
ENDBRANCH  20  22
ENDBRANCH  18  20
ENDBRANCH   4  18
TORSDOF 10
