REMARK  Name = ZINC20573554
REMARK  6 active torsions:
REMARK  status: ('A' for Active; 'I' for Inactive)
REMARK    1  A    between atoms: C_1  and  C_2
REMARK    2  A    between atoms: C_4  and  C_30
REMARK    3  A    between atoms: C_6  and  C_8
REMARK    4  A    between atoms: N_10  and  C_11
REMARK    5  A    between atoms: C_11  and  C_12
REMARK    6  A    between atoms: C_12  and  C_13
REMARK                            x       y       z     vdW  Elec       q    Type
REMARK                         _______ _______ _______ _____ _____    ______ ____
ROOT
ATOM      1  C   UNL     1       0.072  -2.709   7.363  0.00  0.00    +0.217 C 
ATOM      2  O   UNL     1       0.088  -3.921   7.352  0.00  0.00    -0.276 OA
ATOM      3  N   UNL     1       0.069  -2.046   8.537  0.00  0.00    -0.301 N 
ATOM      4  C   UNL     1       0.043  -0.577   8.567  0.00  0.00    +0.110 C 
ATOM      5  C   UNL     1      -1.129  -0.122   9.442  0.00  0.00    +0.047 C 
ATOM      6  C   UNL     1      -1.019  -0.779  10.819  0.00  0.00    +0.064 C 
ATOM      7  C   UNL     1      -1.082  -2.300  10.673  0.00  0.00    +0.047 C 
ATOM      8  C   UNL     1       0.084  -2.778   9.810  0.00  0.00    +0.110 C 
ATOM      9  C   UNL     1      -2.148  -0.306  11.698  0.00  0.00    +0.057 A 
ATOM     10  C   UNL     1      -1.978   0.062  12.988  0.00  0.00    +0.039 A 
ATOM     11  N   UNL     1      -3.196   0.429  13.464  0.00  0.00    -0.349 N 
ATOM     12  H   UNL     1      -3.395   0.744  14.360  0.00  0.00    +0.166 HD
ATOM     13  C   UNL     1      -4.080   0.273  12.450  0.00  0.00    +0.171 A 
ATOM     14  N   UNL     1      -3.440  -0.168  11.398  0.00  0.00    -0.348 N 
ATOM     15  C   UNL     1      -0.646   0.035  13.691  0.00  0.00    +0.070 C 
ATOM     16  C   UNL     1       0.312  -0.824  12.853  0.00  0.00    +0.088 C 
ATOM     17  N   UNL     1       0.255  -0.397  11.448  0.00  0.00    -0.305 NA
ATOM     18  H   UNL     1       1.039  -0.760  10.927  0.00  0.00    +0.123 HD
ATOM     19  H   UNL     1      -3.842  -0.363  10.537  0.00  0.00    +0.166 HD
ENDROOT
BRANCH   1  20
ATOM     20  C   UNL     1       0.056  -1.943   6.065  0.00  0.00    +0.114 C 
BRANCH  20  21
ATOM     21  C   UNL     1       0.064  -2.926   4.893  0.00  0.00    +0.113 C 
BRANCH  21  24
ATOM     22  C   UNL     1       0.052  -2.845   2.458  0.00  0.00    +0.244 C 
ATOM     23  O   UNL     1       0.068  -4.061   2.446  0.00  0.00    -0.270 OA
ATOM     24  N   UNL     1       0.049  -2.182   3.631  0.00  0.00    -0.311 N 
ATOM     25  H   UNL     1       0.036  -1.212   3.640  0.00  0.00    +0.149 HD
BRANCH  22  31
ATOM     26  C   UNL     1      -0.018   1.503   0.010  0.00  0.00    +0.044 C 
ATOM     27  C   UNL     1       0.002  -0.004   0.002  0.00  0.00    -0.049 A 
ATOM     28  C   UNL     1       0.006  -0.688  -1.201  0.00  0.00    +0.006 A 
ATOM     29  C   UNL     1       0.025  -2.071  -1.217  0.00  0.00    -0.049 A 
ATOM     30  C   UNL     1       0.040  -2.778  -0.033  0.00  0.00    +0.016 A 
ATOM     31  C   UNL     1       0.036  -2.094   1.184  0.00  0.00    +0.037 A 
ATOM     32  C   UNL     1       0.023  -0.699   1.194  0.00  0.00    +0.016 A 
ATOM     33  C   UNL     1       0.029  -2.807  -2.532  0.00  0.00    +0.044 C 
ENDBRANCH  22  31
ENDBRANCH  21  24
ENDBRANCH  20  21
ENDBRANCH   1  20
TORSDOF 4
