REMARK  Name = ZINC63362211
REMARK  5 active torsions:
REMARK  status: ('A' for Active; 'I' for Inactive)
REMARK    1  A    between atoms: C_1  and  C_2
REMARK    2  A    between atoms: C_5  and  N_8
REMARK    3  A    between atoms: C_9  and  C_11
REMARK    4  A    between atoms: C_14  and  N_17
REMARK    5  A    between atoms: C_20  and  C_36
REMARK                            x       y       z     vdW  Elec       q    Type
REMARK                         _______ _______ _______ _____ _____    ______ ____
ROOT
ATOM      1  N   UNL     1      -3.879  -0.960   8.250  0.00  0.00    -0.192 N 
ATOM      2  C   UNL     1      -3.885  -1.620   9.426  0.00  0.00    +0.253 C 
ATOM      3  O   UNL     1      -3.367  -2.689   9.667  0.00  0.00    -0.272 OA
ATOM      4  C   UNL     1      -4.670  -0.749  10.382  0.00  0.00    +0.137 C 
ATOM      5  C   UNL     1      -5.917  -1.496  10.871  0.00  0.00    +0.139 C 
ATOM      6  C   UNL     1      -6.899  -0.432  11.347  0.00  0.00    -0.034 C 
ATOM      7  C   UNL     1      -7.173  -0.718  12.616  0.00  0.00    -0.001 A 
ATOM      8  C   UNL     1      -8.091  -0.093  13.582  0.00  0.00    +0.010 A 
ATOM      9  C   UNL     1      -8.119  -0.644  14.824  0.00  0.00    +0.001 A 
ATOM     10  C   UNL     1      -7.335  -1.740  15.198  0.00  0.00    +0.002 A 
ATOM     11  C   UNL     1      -6.468  -2.379  14.373  0.00  0.00    +0.026 A 
ATOM     12  C   UNL     1      -6.353  -1.894  13.038  0.00  0.00    +0.043 A 
ATOM     13  N   UNL     1      -5.618  -2.326  12.040  0.00  0.00    -0.375 N 
ATOM     14  C   UNL     1      -7.352   0.721  10.485  0.00  0.00    +0.052 C 
ATOM     15  C   UNL     1      -6.084   1.403   9.934  0.00  0.00    +0.115 C 
ATOM     16  N   UNL     1      -5.144   0.357   9.520  0.00  0.00    -0.268 N 
ATOM     17  C   UNL     1      -4.573   0.184   8.321  0.00  0.00    +0.316 C 
ATOM     18  O   UNL     1      -4.675   0.972   7.402  0.00  0.00    -0.252 OA
ATOM     19  C   UNL     1      -3.805  -0.246  11.539  0.00  0.00    +0.044 C 
ATOM     20  H   UNL     1      -4.986  -3.061  12.067  0.00  0.00    +0.160 HD
ENDROOT
BRANCH   1  24
ATOM     21  C   UNL     1      -1.926  -2.303   4.820  0.00  0.00    +0.037 A 
ATOM     22  C   UNL     1      -2.733  -1.164   4.766  0.00  0.00    +0.015 A 
ATOM     23  C   UNL     1      -3.376  -0.723   5.901  0.00  0.00    +0.025 A 
ATOM     24  C   UNL     1      -3.224  -1.410   7.100  0.00  0.00    +0.045 A 
ATOM     25  C   UNL     1      -2.422  -2.545   7.158  0.00  0.00    +0.025 A 
ATOM     26  C   UNL     1      -1.780  -2.995   6.026  0.00  0.00    +0.015 A 
BRANCH  21  28
ATOM     27  N   UNL     1      -1.377  -2.111   2.444  0.00  0.00    -0.308 N 
ATOM     28  C   UNL     1      -1.235  -2.779   3.606  0.00  0.00    +0.244 C 
ATOM     29  O   UNL     1      -0.538  -3.774   3.653  0.00  0.00    -0.270 OA
ATOM     30  H   UNL     1      -1.934  -1.318   2.405  0.00  0.00    +0.149 HD
BRANCH  27  35
ATOM     31  C   UNL     1      -0.116   1.511  -0.039  0.00  0.00    +0.007 C 
ATOM     32  C   UNL     1      -0.069  -0.019  -0.033  0.00  0.00    -0.014 C 
ATOM     33  C   UNL     1      -1.495  -0.573  -0.007  0.00  0.00    +0.005 C 
ATOM     34  C   UNL     1      -1.448  -2.102  -0.001  0.00  0.00    +0.022 C 
ATOM     35  C   UNL     1      -0.692  -2.584   1.238  0.00  0.00    +0.073 C 
ATOM     36  C   UNL     1       0.734  -2.030   1.213  0.00  0.00    +0.022 C 
ATOM     37  C   UNL     1       0.688  -0.501   1.206  0.00  0.00    +0.005 C 
ENDBRANCH  27  35
ENDBRANCH  21  28
ENDBRANCH   1  24
TORSDOF 3
