REMARK  Name = ZINC00211154
REMARK  3 active torsions:
REMARK  status: ('A' for Active; 'I' for Inactive)
REMARK    1  A    between atoms: C_1  and  C_2
REMARK    2  A    between atoms: C_5  and  C_23
REMARK    3  A    between atoms: C_10  and  C_12
REMARK                            x       y       z     vdW  Elec       q    Type
REMARK                         _______ _______ _______ _____ _____    ______ ____
ROOT
ATOM      1  C   UNL     1       2.438   3.928  -0.031  0.00  0.00    +0.080 A 
ATOM      2  C   UNL     1       3.187   3.247  -0.938  0.00  0.00    +0.212 A 
ATOM      3  O   UNL     1       3.191   1.912  -1.008  0.00  0.00    -0.429 OA
ATOM      4  C   UNL     1       2.458   1.135  -0.191  0.00  0.00    +0.345 A 
ATOM      5  O   UNL     1       2.497  -0.076  -0.297  0.00  0.00    -0.245 OA
ATOM      6  C   UNL     1       1.609   1.761   0.831  0.00  0.00    +0.067 A 
ATOM      7  C   UNL     1       1.597   3.171   0.914  0.00  0.00    +0.004 A 
ATOM      8  C   UNL     1       0.806   3.801   1.869  0.00  0.00    +0.009 A 
ATOM      9  C   UNL     1       0.039   3.039   2.727  0.00  0.00    +0.001 A 
ATOM     10  C   UNL     1       0.046   1.654   2.642  0.00  0.00    +0.001 A 
ATOM     11  C   UNL     1       0.827   1.010   1.706  0.00  0.00    +0.015 A 
ENDROOT
BRANCH   1  19
ATOM     12  C   UNL     1       4.683   9.403   1.516  0.00  0.00    +0.009 C 
ATOM     13  C   UNL     1       4.516   7.884   1.452  0.00  0.00    +0.004 C 
ATOM     14  C   UNL     1       5.893   7.223   1.353  0.00  0.00    +0.009 C 
ATOM     15  C   UNL     1       5.729   5.701   1.322  0.00  0.00    +0.004 C 
ATOM     16  C   UNL     1       4.912   5.304   0.094  0.00  0.00    +0.111 C 
ATOM     17  N   UNL     1       3.645   6.048   0.102  0.00  0.00    -0.297 N 
ATOM     18  C   UNL     1       3.685   7.512   0.220  0.00  0.00    +0.111 C 
ATOM     19  C   UNL     1       2.467   5.399   0.007  0.00  0.00    +0.250 C 
ATOM     20  O   UNL     1       1.428   6.029  -0.046  0.00  0.00    -0.270 OA
ATOM     21  C   UNL     1       7.107   5.040   1.257  0.00  0.00    +0.009 C 
ENDBRANCH   1  19
TORSDOF 1
