REMARK  Name = ZINC18084730
REMARK  7 active torsions:
REMARK  status: ('A' for Active; 'I' for Inactive)
REMARK    1  A    between atoms: C_1  and  C_2
REMARK    2  A    between atoms: C_2  and  O_3
REMARK    3  A    between atoms: O_3  and  C_4
REMARK    4  A    between atoms: C_4  and  C_6
REMARK    5  A    between atoms: C_11  and  N_12
REMARK    6  A    between atoms: C_17  and  C_31
REMARK    7  A    between atoms: C_32  and  C_33
REMARK                            x       y       z     vdW  Elec       q    Type
REMARK                         _______ _______ _______ _____ _____    ______ ____
ROOT
ATOM      1  N   UNL     1      -1.908  -4.654  -0.004  0.00  0.00    -0.208 N 
ATOM      2  C   UNL     1      -1.311  -5.110   1.123  0.00  0.00    +0.232 C 
ATOM      3  O   UNL     1      -1.526  -4.749   2.260  0.00  0.00    -0.274 OA
ATOM      4  C   UNL     1      -0.332  -6.150   0.677  0.00  0.00    +0.110 C 
ATOM      5  C   UNL     1       0.780  -6.533   1.578  0.00  0.00    +0.064 C 
ATOM      6  C   UNL     1       2.001  -5.692   1.487  0.00  0.00    +0.032 A 
ATOM      7  C   UNL     1       2.318  -4.764   0.565  0.00  0.00    +0.088 A 
ATOM      8  N   UNL     1       3.549  -4.173   0.738  0.00  0.00    -0.311 N 
ATOM      9  H   UNL     1       3.859  -3.506   0.105  0.00  0.00    +0.170 HD
ATOM     10  C   UNL     1       4.322  -4.518   1.783  0.00  0.00    +0.289 A 
ATOM     11  O   UNL     1       5.424  -4.092   2.083  0.00  0.00    -0.260 OA
ATOM     12  S   UNL     1       3.402  -5.680   2.578  0.00  0.00    -0.030 S 
ATOM     13  S   UNL     1       1.195  -4.344  -0.742  0.00  0.00    -0.093 S 
ATOM     14  C   UNL     1       0.020  -5.719  -0.753  0.00  0.00    +0.152 C 
ATOM     15  C   UNL     1      -1.332  -5.092  -1.141  0.00  0.00    +0.240 C 
ATOM     16  O   UNL     1      -1.791  -5.005  -2.260  0.00  0.00    -0.274 OA
ENDROOT
BRANCH   1  22
ATOM     17  C   UNL     1      -2.852  -2.419   0.016  0.00  0.00    +0.081 A 
ATOM     18  C   UNL     1      -3.974  -1.587   0.026  0.00  0.00    +0.017 A 
ATOM     19  C   UNL     1      -5.237  -2.137   0.034  0.00  0.00    +0.001 A 
ATOM     20  C   UNL     1      -5.401  -3.513   0.034  0.00  0.00    +0.002 A 
ATOM     21  C   UNL     1      -4.301  -4.347   0.025  0.00  0.00    +0.025 A 
ATOM     22  C   UNL     1      -3.021  -3.811   0.010  0.00  0.00    +0.058 A 
BRANCH  17  23
ATOM     23  C   UNL     1      -1.497  -1.837   0.006  0.00  0.00    +0.341 C 
ATOM     24  O   UNL     1      -0.523  -2.564  -0.007  0.00  0.00    -0.245 OA
BRANCH  23  25
ATOM     25  O   UNL     1      -1.339  -0.499   0.012  0.00  0.00    -0.461 OA
BRANCH  25  27
ATOM     26  C   UNL     1      -0.019   1.526   0.010  0.00  0.00    +0.048 C 
ATOM     27  C   UNL     1       0.002  -0.004   0.002  0.00  0.00    +0.229 C 
ENDBRANCH  25  27
ENDBRANCH  23  25
ENDBRANCH  17  23
ENDBRANCH   1  22
BRANCH   5  28
ATOM     28  C   UNL     1       1.167  -7.956   1.270  0.00  0.00    -0.017 C 
ATOM     29  C   UNL     1       1.085  -8.884   2.213  0.00  0.00    +0.004 C 
BRANCH  29  30
ATOM     30  C   UNL     1       1.466 -10.280   1.911  0.00  0.00    -0.025 A 
ATOM     31  C   UNL     1       1.916 -10.624   0.636  0.00  0.00    +0.008 A 
ATOM     32  C   UNL     1       2.269 -11.929   0.361  0.00  0.00    +0.001 A 
ATOM     33  C   UNL     1       2.177 -12.896   1.346  0.00  0.00    +0.000 A 
ATOM     34  C   UNL     1       1.731 -12.562   2.612  0.00  0.00    +0.001 A 
ATOM     35  C   UNL     1       1.381 -11.259   2.902  0.00  0.00    +0.008 A 
ENDBRANCH  29  30
ENDBRANCH   5  28
TORSDOF 6
