REMARK  Name = ZINC09646112
REMARK  8 active torsions:
REMARK  status: ('A' for Active; 'I' for Inactive)
REMARK    1  A    between atoms: C_5  and  S_7
REMARK    2  A    between atoms: S_7  and  N_10
REMARK    3  A    between atoms: C_16  and  C_18
REMARK    4  A    between atoms: C_18  and  N_56
REMARK    5  A    between atoms: C_19  and  C_20
REMARK    6  A    between atoms: C_19  and  N_56
REMARK    7  A    between atoms: C_25  and  C_26
REMARK    8  A    between atoms: C_25  and  N_56
REMARK                            x       y       z     vdW  Elec       q    Type
REMARK                         _______ _______ _______ _____ _____    ______ ____
ROOT
ATOM      1  N   UNL     1      -0.269   2.414  -7.008  0.00  0.00    -0.174 NA
ATOM      2  C   UNL     1      -1.490   3.084  -6.538  0.00  0.00    +0.128 C 
ATOM      3  C   UNL     1      -1.152   3.890  -5.277  0.00  0.00    +0.125 C 
ATOM      4  N   UNL     1      -0.417   3.021  -4.347  0.00  0.00    -0.300 N 
ATOM      5  C   UNL     1       0.806   2.356  -4.816  0.00  0.00    +0.125 C 
ATOM      6  C   UNL     1       0.466   1.545  -6.078  0.00  0.00    +0.128 C 
ATOM      7  C   UNL     1      -0.855   2.841  -3.085  0.00  0.00    +0.199 C 
ATOM      8  O   UNL     1      -1.864   3.399  -2.708  0.00  0.00    -0.278 OA
ENDROOT
BRANCH   1   9
ATOM      9  S   UNL     1       0.270   2.636  -8.559  0.00  0.00    +0.062 S 
ATOM     10  O   UNL     1       1.064   1.502  -8.879  0.00  0.00    -0.153 OA
ATOM     11  O   UNL     1      -0.861   3.016  -9.331  0.00  0.00    -0.153 OA
BRANCH   9  16
ATOM     12  C   UNL     1       3.550   4.942  -8.816  0.00  0.00    +0.002 A 
ATOM     13  C   UNL     1       3.063   6.199  -8.509  0.00  0.00    +0.002 A 
ATOM     14  C   UNL     1       1.723   6.368  -8.216  0.00  0.00    +0.022 A 
ATOM     15  C   UNL     1       0.869   5.280  -8.232  0.00  0.00    +0.067 A 
ATOM     16  C   UNL     1       1.357   4.022  -8.540  0.00  0.00    +0.124 A 
ATOM     17  C   UNL     1       2.698   3.853  -8.827  0.00  0.00    +0.030 A 
ATOM     18 CL   UNL     1      -0.815   5.492  -7.864  0.00  0.00    -0.082 Cl
ENDBRANCH   9  16
ENDBRANCH   1   9
BRANCH   7  19
ATOM     19  C   UNL     1      -0.091   1.947  -2.143  0.00  0.00    +0.020 C 
BRANCH  19  20
ATOM     20  N   UNL     1      -0.783   1.935  -0.837  0.00  0.00    +0.393 N 
ATOM     21  H   UNL     1      -1.796   1.871  -0.996  0.00  0.00    -0.080 HD
BRANCH  20  22
ATOM     22  C   UNL     1      -0.491   3.181  -0.098  0.00  0.00    -0.002 C 
BRANCH  22  23
ATOM     23  C   UNL     1      -1.375   3.243   1.121  0.00  0.00    +0.089 A 
ATOM     24  C   UNL     1      -1.067   2.768   2.341  0.00  0.00    +0.042 A 
ATOM     25  C   UNL     1      -2.176   3.036   3.176  0.00  0.00    +0.041 A 
ATOM     26  C   UNL     1      -3.095   3.659   2.417  0.00  0.00    +0.195 A 
ATOM     27  O   UNL     1      -2.602   3.787   1.174  0.00  0.00    -0.470 OA
ENDBRANCH  22  23
ENDBRANCH  20  22
BRANCH  20  28
ATOM     28  C   UNL     1      -0.348   0.765  -0.045  0.00  0.00    -0.034 C 
BRANCH  28  29
ATOM     29  C   UNL     1      -0.948  -0.479  -0.648  0.00  0.00    -0.027 A 
ATOM     30  C   UNL     1      -0.398  -1.354  -1.525  0.00  0.00    +0.009 A 
ATOM     31  C   UNL     1      -1.143  -2.440  -1.945  0.00  0.00    +0.008 A 
ATOM     32  C   UNL     1      -2.405  -2.592  -1.475  0.00  0.00    +0.045 A 
ATOM     33  S   UNL     1      -2.572  -1.177  -0.400  0.00  0.00    -0.103 S 
ENDBRANCH  28  29
ENDBRANCH  20  28
ENDBRANCH  19  20
ENDBRANCH   7  19
TORSDOF 8
