REMARK  Name = ZINC15024635
REMARK  14 active torsions:
REMARK  status: ('A' for Active; 'I' for Inactive)
REMARK    1  A    between atoms: C_1  and  C_2
REMARK    2  A    between atoms: C_6  and  C_35
REMARK    3  A    between atoms: C_6  and  C_36
REMARK    4  A    between atoms: C_11  and  C_33
REMARK    5  A    between atoms: C_11  and  O_34
REMARK    6  A    between atoms: C_12  and  C_14
REMARK    7  A    between atoms: C_14  and  C_15
REMARK    8  A    between atoms: C_15  and  C_16
REMARK    9  A    between atoms: C_16  and  C_17
REMARK   10  A    between atoms: C_16  and  C_18
REMARK   11  A    between atoms: C_16  and  O_32
REMARK   12  A    between atoms: C_21  and  C_24
REMARK   13  A    between atoms: C_27  and  O_30
REMARK   14  A    between atoms: O_30  and  C_31
REMARK                            x       y       z     vdW  Elec       q    Type
REMARK                         _______ _______ _______ _____ _____    ______ ____
ROOT
ATOM      1  C   UNL     1       1.562  -0.169  -3.617  0.00  0.00    +0.038 C 
ENDROOT
BRANCH   1   2
ATOM      2  C   UNL     1       1.069   0.581  -4.856  0.00  0.00    +0.103 C 
ATOM      3  C   UNL     1       1.078   2.085  -4.579  0.00  0.00    +0.045 C 
BRANCH   2   4
ATOM      4  C   UNL     1       1.992   0.274  -6.038  0.00  0.00    +0.241 C 
ATOM      5  C   UNL     1       1.977  -1.236  -6.375  0.00  0.00    +0.109 C 
ATOM      6  C   UNL     1       2.047  -1.236  -7.890  0.00  0.00    +0.091 C 
ATOM      7  N   UNL     1       1.765  -0.048  -8.309  0.00  0.00    -0.089 NA
ATOM      8  O   UNL     1       1.480   0.853  -7.256  0.00  0.00    -0.387 OA
BRANCH   6   9
ATOM      9  C   UNL     1       2.381  -2.395  -8.740  0.00  0.00    -0.000 A 
ATOM     10  C   UNL     1       2.663  -3.633  -8.157  0.00  0.00    +0.013 A 
ATOM     11  C   UNL     1       2.974  -4.713  -8.954  0.00  0.00    +0.046 A 
ATOM     12  C   UNL     1       3.009  -4.572 -10.336  0.00  0.00    +0.120 A 
ATOM     13  C   UNL     1       2.729  -3.343 -10.919  0.00  0.00    +0.046 A 
ATOM     14  C   UNL     1       2.411  -2.259 -10.130  0.00  0.00    +0.013 A 
BRANCH  12  15
ATOM     15  O   UNL     1       3.317  -5.638 -11.118  0.00  0.00    -0.495 OA
ATOM     16  C   UNL     1       3.334  -5.424 -12.530  0.00  0.00    +0.277 C 
ENDBRANCH  12  15
ENDBRANCH   6   9
ENDBRANCH   2   4
BRANCH   2  17
ATOM     17  O   UNL     1      -0.261   0.162  -5.169  0.00  0.00    -0.385 OA
ATOM     18  H   UNL     1      -0.341  -0.784  -5.356  0.00  0.00    +0.210 HD
ENDBRANCH   2  17
ENDBRANCH   1   2
BRANCH   1  19
ATOM     19  C   UNL     1       0.640   0.138  -2.435  0.00  0.00    +0.010 C 
BRANCH  19  30
ATOM     20  C   UNL     1       0.632   1.265   0.254  0.00  0.00    +0.012 C 
ATOM     21  C   UNL     1       0.303  -0.229   0.029  0.00  0.00    -0.023 C 
ATOM     22  C   UNL     1      -1.192  -0.349  -0.241  0.00  0.00    +0.007 C 
ATOM     23  C   UNL     1      -1.989   0.097   0.991  0.00  0.00    +0.001 C 
ATOM     24  C   UNL     1      -1.649  -0.815   2.164  0.00  0.00    +0.007 C 
ATOM     25  C   UNL     1      -0.157  -0.771   2.483  0.00  0.00    -0.032 C 
ATOM     26  C   UNL     1       0.696  -1.052   1.253  0.00  0.00    +0.001 C 
ATOM     27  C   UNL     1       0.602  -2.542   0.901  0.00  0.00    +0.007 C 
ATOM     28  C   UNL     1       1.563  -2.887  -0.235  0.00  0.00    +0.035 C 
ATOM     29  C   UNL     1       1.232  -2.094  -1.492  0.00  0.00    +0.067 C 
ATOM     30  C   UNL     1       1.133  -0.613  -1.194  0.00  0.00    +0.027 C 
ATOM     31  C   UNL     1      -0.035  -2.630  -2.155  0.00  0.00    +0.041 C 
ATOM     32  C   UNL     1       0.110  -1.846   3.562  0.00  0.00    +0.011 C 
ATOM     33  C   UNL     1       0.196   0.564   3.148  0.00  0.00    +0.011 C 
BRANCH  29  34
ATOM     34  O   UNL     1       2.318  -2.288  -2.426  0.00  0.00    -0.389 OA
ATOM     35  H   UNL     1       2.461  -3.211  -2.678  0.00  0.00    +0.210 HD
ENDBRANCH  29  34
ENDBRANCH  19  30
ENDBRANCH   1  19
TORSDOF 8
