REMARK  Name = ZINC10753767
REMARK  6 active torsions:
REMARK  status: ('A' for Active; 'I' for Inactive)
REMARK    1  A    between atoms: C_1  and  C_2
REMARK    2  A    between atoms: C_9  and  N_14
REMARK    3  A    between atoms: C_10  and  C_11
REMARK    4  A    between atoms: C_15  and  C_17
REMARK    5  A    between atoms: N_22  and  S_24
REMARK    6  A    between atoms: S_24  and  C_27
REMARK                            x       y       z     vdW  Elec       q    Type
REMARK                         _______ _______ _______ _____ _____    ______ ____
ROOT
ATOM      1  N   UNL     1       1.139   2.192   0.003  0.00  0.00    -0.279 N 
ATOM      2  C   UNL     1      -0.018   1.503   0.010  0.00  0.00    +0.222 C 
ATOM      3  O   UNL     1      -1.077   2.095   0.018  0.00  0.00    -0.275 OA
ATOM      4  H   UNL     1       1.986   1.719  -0.008  0.00  0.00    +0.155 HD
ENDROOT
BRANCH   1  12
ATOM      5  C   UNL     1       0.601   9.996  -0.046  0.00  0.00    +0.008 C 
ATOM      6  C   UNL     1       1.085   8.575  -0.344  0.00  0.00    -0.009 C 
ATOM      7  C   UNL     1       2.341   8.277   0.480  0.00  0.00    +0.008 C 
ATOM      8  C   UNL     1       2.971   6.965   0.012  0.00  0.00    +0.037 C 
ATOM      9  C   UNL     1       1.903   5.879   0.015  0.00  0.00    -0.023 A 
ATOM     10  C   UNL     1       0.589   6.195   0.028  0.00  0.00    -0.004 A 
ATOM     11  S   UNL     1      -0.251   4.637   0.022  0.00  0.00    -0.077 S 
ATOM     12  C   UNL     1       1.121   3.579   0.011  0.00  0.00    +0.084 A 
ATOM     13  C   UNL     1       2.196   4.456   0.005  0.00  0.00    +0.068 A 
ATOM     14  C   UNL     1      -0.009   7.568   0.040  0.00  0.00    +0.046 C 
BRANCH  13  15
ATOM     15  C   UNL     1       3.578   3.965  -0.011  0.00  0.00    +0.244 C 
ATOM     16  O   UNL     1       4.141   3.766  -1.071  0.00  0.00    -0.270 OA
ATOM     17  N   UNL     1       4.224   3.733   1.149  0.00  0.00    -0.325 N 
ATOM     18  H   UNL     1       3.775   3.892   1.994  0.00  0.00    +0.145 HD
ATOM     19  H   UNL     1       5.138   3.408   1.139  0.00  0.00    +0.145 HD
ENDBRANCH  13  15
ENDBRANCH   1  12
BRANCH   2  20
ATOM     20  C   UNL     1       0.002  -0.004   0.002  0.00  0.00    +0.091 C 
ATOM     21  C   UNL     1       0.715  -0.498  -1.259  0.00  0.00    +0.015 C 
ATOM     22  C   UNL     1       0.765  -2.028  -1.252  0.00  0.00    +0.018 C 
ATOM     23  C   UNL     1      -0.663  -2.582  -1.256  0.00  0.00    +0.109 C 
ATOM     24  N   UNL     1      -1.400  -1.997  -0.127  0.00  0.00    -0.175 NA
ATOM     25  C   UNL     1      -1.435  -0.535   0.013  0.00  0.00    +0.122 C 
BRANCH  24  26
ATOM     26  S   UNL     1      -2.175  -2.968   0.968  0.00  0.00    +0.067 S 
ATOM     27  O   UNL     1      -1.529  -4.232   0.919  0.00  0.00    -0.152 OA
ATOM     28  O   UNL     1      -2.288  -2.216   2.169  0.00  0.00    -0.152 OA
BRANCH  26  29
ATOM     29  C   UNL     1      -3.815  -3.217   0.374  0.00  0.00    +0.143 A 
ATOM     30  C   UNL     1      -4.287  -4.187  -0.447  0.00  0.00    +0.036 A 
ATOM     31  C   UNL     1      -5.628  -4.188  -0.782  0.00  0.00    +0.010 A 
ATOM     32  C   UNL     1      -6.430  -3.213  -0.288  0.00  0.00    +0.047 A 
ATOM     33  S   UNL     1      -5.284  -2.253   0.690  0.00  0.00    -0.077 S 
ENDBRANCH  26  29
ENDBRANCH  24  26
ENDBRANCH   2  20
TORSDOF 5
