REMARK  Name = ZINC09641321
REMARK  7 active torsions:
REMARK  status: ('A' for Active; 'I' for Inactive)
REMARK    1  A    between atoms: C_1  and  C_2
REMARK    2  A    between atoms: C_5  and  C_35
REMARK    3  A    between atoms: C_9  and  C_10
REMARK    4  A    between atoms: C_9  and  N_68
REMARK    5  A    between atoms: C_10  and  N_11
REMARK    6  A    between atoms: N_11  and  C_12
REMARK    7  A    between atoms: C_14  and  N_29
REMARK                            x       y       z     vdW  Elec       q    Type
REMARK                         _______ _______ _______ _____ _____    ______ ____
ROOT
ATOM      1  C   UNL     1       0.435  -1.007   3.643  0.00  0.00    +0.041 A 
ATOM      2  C   UNL     1      -0.116  -0.355   2.533  0.00  0.00    +0.049 A 
ATOM      3  C   UNL     1      -0.136   1.014   2.351  0.00  0.00    +0.061 A 
ATOM      4  C   UNL     1       0.445   1.882   3.383  0.00  0.00    +0.136 A 
ATOM      5  C   UNL     1       1.004   1.173   4.527  0.00  0.00    +0.063 A 
ATOM      6  C   UNL     1       1.012  -0.257   4.680  0.00  0.00    +0.056 A 
ATOM      7  C   UNL     1       1.601  -0.764   5.861  0.00  0.00    +0.196 C 
ATOM      8  O   UNL     1       1.651  -1.966   6.072  0.00  0.00    -0.287 OA
ATOM      9  C   UNL     1       2.155   0.203   6.833  0.00  0.00    +0.033 A 
ATOM     10  C   UNL     1       2.742  -0.278   8.009  0.00  0.00    +0.012 A 
ATOM     11  C   UNL     1       3.265   0.598   8.931  0.00  0.00    +0.001 A 
ATOM     12  C   UNL     1       3.221   1.968   8.711  0.00  0.00    +0.001 A 
ATOM     13  C   UNL     1       2.650   2.471   7.564  0.00  0.00    +0.012 A 
ATOM     14  C   UNL     1       2.111   1.602   6.612  0.00  0.00    +0.031 A 
ATOM     15  C   UNL     1       1.500   2.119   5.388  0.00  0.00    +0.176 A 
ATOM     16  O   UNL     1       1.235   3.273   4.765  0.00  0.00    -0.353 OA
ATOM     17  N   UNL     1       0.665   3.131   3.685  0.00  0.00    -0.076 NA
ENDROOT
BRANCH   3  18
ATOM     18  N   UNL     1      -0.700   1.559   1.216  0.00  0.00    -0.328 N 
ATOM     19  C   UNL     1      -0.013   1.086   0.008  0.00  0.00    +0.105 C 
ATOM     20  C   UNL     1      -0.752   1.593  -1.232  0.00  0.00    +0.019 C 
ATOM     21  C   UNL     1      -0.788   3.123  -1.209  0.00  0.00    +0.003 C 
ATOM     22  C   UNL     1      -1.465   3.591   0.082  0.00  0.00    +0.019 C 
ATOM     23  C   UNL     1      -0.705   3.026   1.284  0.00  0.00    +0.105 C 
ENDBRANCH   3  18
BRANCH   1  24
ATOM     24  N   UNL     1       0.407  -2.383   3.720  0.00  0.00    -0.345 N 
ATOM     25  H   UNL     1       0.785  -2.834   4.492  0.00  0.00    +0.146 HD
BRANCH  24  26
ATOM     26  C   UNL     1      -0.196  -3.165   2.638  0.00  0.00    +0.083 C 
BRANCH  26  27
ATOM     27  C   UNL     1      -0.098  -4.656   2.969  0.00  0.00    -0.060 C 
BRANCH  27  35
ATOM     28  C   UNL     1      -4.223  -5.665   0.488  0.00  0.00    +0.005 C 
ATOM     29  C   UNL     1      -2.714  -5.907   0.568  0.00  0.00    -0.031 C 
ATOM     30  C   UNL     1      -2.443  -7.409   0.689  0.00  0.00    +0.003 C 
ATOM     31  C   UNL     1      -0.936  -7.638   0.829  0.00  0.00    -0.031 C 
ATOM     32  C   UNL     1      -0.419  -6.871   2.048  0.00  0.00    -0.076 C 
ATOM     33  C   UNL     1      -2.146  -5.190   1.795  0.00  0.00    -0.076 C 
ATOM     34  C   UNL     1      -0.660  -9.132   1.010  0.00  0.00    +0.005 C 
ATOM     35  N   UNL     1      -0.689  -5.430   1.858  0.00  0.00    +0.381 N 
ATOM     36  H   UNL     1      -0.262  -5.125   0.976  0.00  0.00    -0.082 HD
ENDBRANCH  27  35
ENDBRANCH  26  27
ENDBRANCH  24  26
ENDBRANCH   1  24
TORSDOF 5
