REMARK  Name = ZINC54403061
REMARK  8 active torsions:
REMARK  status: ('A' for Active; 'I' for Inactive)
REMARK    1  A    between atoms: C_1  and  C_2
REMARK    2  A    between atoms: C_2  and  C_3
REMARK    3  A    between atoms: C_3  and  C_4
REMARK    4  A    between atoms: C_3  and  C_5
REMARK    5  A    between atoms: C_3  and  C_6
REMARK    6  A    between atoms: C_6  and  C_8
REMARK    7  A    between atoms: C_6  and  N_21
REMARK    8  A    between atoms: N_21  and  C_22
REMARK                            x       y       z     vdW  Elec       q    Type
REMARK                         _______ _______ _______ _____ _____    ______ ____
ROOT
ATOM      1  C   UNL     1       2.225  -2.504   1.837  0.00  0.00    -0.045 A 
ATOM      2  C   UNL     1       1.961  -3.515   2.740  0.00  0.00    +0.031 A 
ATOM      3  C   UNL     1       2.997  -4.072   3.474  0.00  0.00    +0.067 A 
ATOM      4  C   UNL     1       4.303  -3.609   3.297  0.00  0.00    +0.068 A 
ATOM      5  C   UNL     1       4.558  -2.594   2.389  0.00  0.00    +0.043 A 
ATOM      6  C   UNL     1       3.520  -2.048   1.657  0.00  0.00    +0.022 A 
ATOM      7 BR   UNL     1       3.868  -0.668   0.412  0.00  0.00    -0.050 Br
ATOM      8  N   UNL     1       5.112  -4.348   4.157  0.00  0.00    -0.306 N 
ATOM      9  H   UNL     1       6.072  -4.250   4.258  0.00  0.00    +0.170 HD
ATOM     10  C   UNL     1       4.335  -5.220   4.826  0.00  0.00    +0.325 A 
ATOM     11  O   UNL     1       4.730  -6.016   5.658  0.00  0.00    -0.247 OA
ATOM     12  N   UNL     1       3.054  -5.079   4.436  0.00  0.00    -0.306 N 
ATOM     13  H   UNL     1       2.299  -5.590   4.768  0.00  0.00    +0.170 HD
ENDROOT
BRANCH   1  14
ATOM     14  C   UNL     1       1.099  -1.898   1.039  0.00  0.00    -0.034 C 
BRANCH  14  15
ATOM     15  N   UNL     1       0.086  -2.926   0.764  0.00  0.00    +0.382 N 
ATOM     16  C   UNL     1      -0.672  -2.557  -0.440  0.00  0.00    -0.100 C 
ATOM     17  H   UNL     1       0.540  -3.815   0.616  0.00  0.00    -0.085 HD
ATOM     18  H   UNL     1      -0.544  -2.997   1.549  0.00  0.00    -0.085 HD
ENDBRANCH  14  15
BRANCH  14  19
ATOM     19  C   UNL     1       0.464  -0.758   1.837  0.00  0.00    -0.044 C 
ATOM     20  C   UNL     1      -0.603  -0.070   0.984  0.00  0.00    +0.009 C 
ATOM     21  C   UNL     1       1.542   0.257   2.221  0.00  0.00    +0.009 C 
BRANCH  19  23
ATOM     22  C   UNL     1      -0.750  -0.171   3.941  0.00  0.00    +0.004 C 
ATOM     23  C   UNL     1      -0.182  -1.320   3.105  0.00  0.00    +0.002 C 
ENDBRANCH  19  23
ENDBRANCH  14  19
ENDBRANCH   1  14
TORSDOF 4
