REMARK  Name = ZINC02100763
REMARK  5 active torsions:
REMARK  status: ('A' for Active; 'I' for Inactive)
REMARK    1  A    between atoms: C_1  and  C_2
REMARK    2  A    between atoms: C_5  and  N_8
REMARK    3  A    between atoms: C_28  and  C_30
REMARK    4  A    between atoms: C_34  and  O_36
REMARK    5  A    between atoms: O_36  and  C_37
REMARK                            x       y       z     vdW  Elec       q    Type
REMARK                         _______ _______ _______ _____ _____    ______ ____
ROOT
ATOM      1  N   UNL     1      -2.336   2.217  -3.386  0.00  0.00    -0.288 N 
ATOM      2  C   UNL     1      -2.391   0.829  -2.959  0.00  0.00    +0.204 C 
ATOM      3  C   UNL     1      -1.519   0.572  -1.773  0.00  0.00    +0.234 C 
ATOM      4  O   UNL     1      -1.506  -0.551  -1.314  0.00  0.00    -0.274 OA
ATOM      5  N   UNL     1      -0.757   1.488  -1.202  0.00  0.00    -0.276 N 
ATOM      6  C   UNL     1      -0.619   2.860  -1.689  0.00  0.00    +0.167 C 
ATOM      7  C   UNL     1      -1.551   3.134  -2.825  0.00  0.00    +0.237 C 
ATOM      8  O   UNL     1      -1.594   4.264  -3.264  0.00  0.00    -0.274 OA
ATOM      9  C   UNL     1       0.830   3.090  -2.143  0.00  0.00    +0.069 C 
ATOM     10  C   UNL     1       1.762   2.527  -1.101  0.00  0.00    -0.015 A 
ATOM     11  C   UNL     1       3.173   2.799  -0.918  0.00  0.00    +0.003 A 
ATOM     12  C   UNL     1       4.075   3.623  -1.597  0.00  0.00    +0.010 A 
ATOM     13  C   UNL     1       5.370   3.635  -1.141  0.00  0.00    +0.001 A 
ATOM     14  C   UNL     1       5.776   2.871  -0.059  0.00  0.00    +0.002 A 
ATOM     15  C   UNL     1       4.904   2.048   0.633  0.00  0.00    +0.026 A 
ATOM     16  C   UNL     1       3.583   2.016   0.192  0.00  0.00    +0.047 A 
ATOM     17  N   UNL     1       2.487   1.331   0.632  0.00  0.00    -0.356 N 
ATOM     18  H   UNL     1       2.477   0.716   1.382  0.00  0.00    +0.166 HD
ATOM     19  C   UNL     1       1.403   1.644  -0.144  0.00  0.00    +0.046 A 
ATOM     20  C   UNL     1      -0.002   1.105   0.009  0.00  0.00    +0.154 C 
ENDROOT
BRANCH   1  25
ATOM     21  C   UNL     1      -1.662   6.666  -4.179  0.00  0.00    +0.007 C 
ATOM     22  C   UNL     1      -2.473   5.466  -4.672  0.00  0.00    -0.014 C 
ATOM     23  C   UNL     1      -3.339   4.931  -3.530  0.00  0.00    +0.005 C 
ATOM     24  C   UNL     1      -4.149   3.730  -4.023  0.00  0.00    +0.023 C 
ATOM     25  C   UNL     1      -3.196   2.632  -4.498  0.00  0.00    +0.077 C 
ATOM     26  C   UNL     1      -2.329   3.167  -5.640  0.00  0.00    +0.023 C 
ATOM     27  C   UNL     1      -1.519   4.367  -5.146  0.00  0.00    +0.005 C 
ENDBRANCH   1  25
BRANCH  20  28
ATOM     28  C   UNL     1      -0.650   1.705   1.230  0.00  0.00    -0.018 A 
ATOM     29  C   UNL     1      -0.222   1.335   2.492  0.00  0.00    +0.006 A 
ATOM     30  C   UNL     1      -0.811   1.888   3.614  0.00  0.00    +0.004 A 
ATOM     31  C   UNL     1      -1.836   2.805   3.477  0.00  0.00    +0.045 A 
ATOM     32  C   UNL     1      -2.270   3.174   2.212  0.00  0.00    +0.120 A 
ATOM     33  C   UNL     1      -1.674   2.621   1.087  0.00  0.00    +0.051 A 
BRANCH  32  34
ATOM     34  O   UNL     1      -3.278   4.075   2.074  0.00  0.00    -0.495 OA
ATOM     35  C   UNL     1      -3.845   4.602   3.275  0.00  0.00    +0.277 C 
ENDBRANCH  32  34
ENDBRANCH  20  28
TORSDOF 3
