REMARK  Name = ZINC66260766
REMARK  9 active torsions:
REMARK  status: ('A' for Active; 'I' for Inactive)
REMARK    1  A    between atoms: C_1  and  C_2
REMARK    2  A    between atoms: C_5  and  C_9
REMARK    3  A    between atoms: C_6  and  C_8
REMARK    4  A    between atoms: C_12  and  S_14
REMARK    5  A    between atoms: S_14  and  C_15
REMARK    6  A    between atoms: C_15  and  C_16
REMARK    7  A    between atoms: N_18  and  C_19
REMARK    8  A    between atoms: N_18  and  C_20
REMARK    9  A    between atoms: C_20  and  C_26
REMARK                            x       y       z     vdW  Elec       q    Type
REMARK                         _______ _______ _______ _____ _____    ______ ____
ROOT
ATOM      1  S   UNL     1       0.107  -7.772  -1.648  0.00  0.00    -0.056 S 
ENDROOT
BRANCH   1   5
ATOM      2  C   UNL     1       0.061  -4.250  -0.021  0.00  0.00    +0.249 A 
ATOM      3  N   UNL     1       0.071  -5.032   1.031  0.00  0.00    -0.106 NA
ATOM      4  N   UNL     1       0.087  -6.261   0.650  0.00  0.00    -0.101 NA
ATOM      5  C   UNL     1       0.087  -6.312  -0.662  0.00  0.00    +0.278 A 
ATOM      6  O   UNL     1       0.066  -5.045  -1.115  0.00  0.00    -0.411 OA
BRANCH   2  11
ATOM      7  C   UNL     1      -0.018   1.503   0.010  0.00  0.00    +0.044 C 
ATOM      8  C   UNL     1       0.002  -0.004   0.002  0.00  0.00    -0.050 A 
ATOM      9  C   UNL     1       0.006  -0.686  -1.202  0.00  0.00    +0.004 A 
ATOM     10  C   UNL     1       0.025  -2.065  -1.217  0.00  0.00    +0.014 A 
ATOM     11  C   UNL     1       0.041  -2.773  -0.013  0.00  0.00    +0.041 A 
ATOM     12  C   UNL     1       0.037  -2.079   1.198  0.00  0.00    -0.038 A 
ATOM     13  C   UNL     1       0.023  -0.699   1.198  0.00  0.00    +0.007 A 
ATOM     14  C   UNL     1       0.053  -2.834   2.502  0.00  0.00    +0.044 C 
ENDBRANCH   2  11
ENDBRANCH   1   5
BRANCH   1  15
ATOM     15  C   UNL     1       0.123  -9.121  -0.435  0.00  0.00    +0.175 C 
BRANCH  15  16
ATOM     16  C   UNL     1       0.141 -10.444  -1.156  0.00  0.00    +0.227 C 
ATOM     17  O   UNL     1       0.141 -10.475  -2.369  0.00  0.00    -0.275 OA
ATOM     18  N   UNL     1       0.155 -11.594  -0.453  0.00  0.00    -0.285 N 
ATOM     19  C   UNL     1       0.154 -11.558   1.011  0.00  0.00    +0.133 C 
BRANCH  18  20
ATOM     20  C   UNL     1       0.172 -12.881  -1.154  0.00  0.00    +0.123 C 
ATOM     21  C   UNL     1      -1.075 -13.000  -2.032  0.00  0.00    +0.041 C 
ATOM     22  C   UNL     1      -1.058 -14.343  -2.764  0.00  0.00    +0.003 C 
ATOM     23  C   UNL     1      -1.044 -15.481  -1.741  0.00  0.00    +0.000 C 
ATOM     24  C   UNL     1       0.204 -15.362  -0.863  0.00  0.00    +0.003 C 
ATOM     25  C   UNL     1       0.186 -14.019  -0.131  0.00  0.00    +0.041 C 
BRANCH  20  26
ATOM     26  C   UNL     1       1.375 -12.964  -1.998  0.00  0.00    +0.089 C 
ATOM     27  N   UNL     1       2.304 -13.029  -2.649  0.00  0.00    -0.194 NA
ENDBRANCH  20  26
ENDBRANCH  18  20
ENDBRANCH  15  16
ENDBRANCH   1  15
TORSDOF 6
