REMARK  Name = ZINC40919810
REMARK  13 active torsions:
REMARK  status: ('A' for Active; 'I' for Inactive)
REMARK    1  A    between atoms: C_1  and  C_2
REMARK    2  A    between atoms: C_2  and  O_3
REMARK    3  A    between atoms: O_3  and  C_4
REMARK    4  A    between atoms: C_6  and  C_19
REMARK    5  A    between atoms: C_9  and  O_10
REMARK    6  A    between atoms: O_10  and  C_11
REMARK    7  A    between atoms: C_11  and  C_12
REMARK    8  A    between atoms: C_21  and  C_30
REMARK    9  A    between atoms: C_22  and  C_29
REMARK   10  A    between atoms: C_30  and  O_32
REMARK   11  A    between atoms: O_32  and  C_33
REMARK   12  A    between atoms: C_33  and  C_34
REMARK   13  A    between atoms: C_33  and  C_35
REMARK                            x       y       z     vdW  Elec       q    Type
REMARK                         _______ _______ _______ _____ _____    ______ ____
ROOT
ATOM      1  C   UNL     1      -1.279  -1.764  -0.078  0.00  0.00    +0.162 A 
ATOM      2  C   UNL     1      -0.217  -2.648   0.035  0.00  0.00    +0.055 A 
ATOM      3  C   UNL     1      -0.440  -4.010  -0.046  0.00  0.00    -0.015 A 
ATOM      4  C   UNL     1      -1.720  -4.494  -0.240  0.00  0.00    +0.010 A 
ATOM      5  C   UNL     1      -2.784  -3.618  -0.354  0.00  0.00    +0.050 A 
ATOM      6  C   UNL     1      -2.568  -2.252  -0.267  0.00  0.00    +0.162 A 
ENDROOT
BRANCH   3   7
ATOM      7  C   UNL     1       0.716  -4.969   0.077  0.00  0.00    +0.181 C 
ATOM      8  C   UNL     1       0.823  -5.791  -1.180  0.00  0.00    +0.082 C 
ATOM      9  C   UNL     1       0.494  -7.091  -1.235  0.00  0.00    +0.020 C 
ATOM     10  N   UNL     1       0.043  -7.781  -0.137  0.00  0.00    -0.286 N 
ATOM     11  C   UNL     1       0.176  -7.168   1.100  0.00  0.00    +0.240 A 
ATOM     12  N   UNL     1       0.496  -5.852   1.217  0.00  0.00    -0.201 N 
ATOM     13  N   UNL     1       0.548  -5.599   2.586  0.00  0.00    -0.042 NA
ATOM     14  N   UNL     1       0.267  -6.716   3.177  0.00  0.00    -0.021 NA
ATOM     15  N   UNL     1       0.045  -7.642   2.306  0.00  0.00    -0.092 NA
ATOM     16  C   UNL     1       0.625  -7.819  -2.548  0.00  0.00    +0.061 C 
ATOM     17  H   UNL     1      -0.354  -8.662  -0.223  0.00  0.00    +0.155 HD
BRANCH   8  18
ATOM     18  C   UNL     1       1.290  -5.164  -2.356  0.00  0.00    +0.339 C 
ATOM     19  O   UNL     1       2.484  -5.009  -2.530  0.00  0.00    -0.245 OA
BRANCH  18  20
ATOM     20  O   UNL     1       0.411  -4.737  -3.288  0.00  0.00    -0.459 OA
BRANCH  20  21
ATOM     21  C   UNL     1       0.954  -4.112  -4.453  0.00  0.00    +0.171 C 
ATOM     22  C   UNL     1       1.218  -5.172  -5.524  0.00  0.00    +0.052 C 
ATOM     23  C   UNL     1      -0.042  -3.082  -4.989  0.00  0.00    +0.052 C 
ENDBRANCH  20  21
ENDBRANCH  18  20
ENDBRANCH   8  18
ENDBRANCH   3   7
BRANCH   1  24
ATOM     24  O   UNL     1      -1.062  -0.424   0.002  0.00  0.00    -0.489 OA
BRANCH  24  26
ATOM     25  C   UNL     1       0.334   1.532   0.262  0.00  0.00    +0.048 C 
ATOM     26  C   UNL     1       0.288   0.004   0.197  0.00  0.00    +0.226 C 
ENDBRANCH  24  26
ENDBRANCH   1  24
BRANCH   6  27
ATOM     27  O   UNL     1      -3.614  -1.389  -0.373  0.00  0.00    -0.484 OA
BRANCH  27  28
ATOM     28  C   UNL     1      -4.910  -1.960  -0.567  0.00  0.00    +0.264 C 
BRANCH  28  29
ATOM     29  C   UNL     1      -5.935  -0.860  -0.661  0.00  0.00    -0.010 A 
ATOM     30  C   UNL     1      -6.559  -0.397   0.482  0.00  0.00    +0.008 A 
ATOM     31  C   UNL     1      -7.499   0.612   0.397  0.00  0.00    +0.020 A 
ATOM     32  C   UNL     1      -7.817   1.159  -0.834  0.00  0.00    +0.041 A 
ATOM     33  C   UNL     1      -7.192   0.695  -1.978  0.00  0.00    +0.020 A 
ATOM     34  C   UNL     1      -6.248  -0.311  -1.891  0.00  0.00    +0.008 A 
ATOM     35 CL   UNL     1      -8.998   2.426  -0.943  0.00  0.00    -0.084 Cl
ENDBRANCH  28  29
ENDBRANCH  27  28
ENDBRANCH   6  27
TORSDOF 9
