REMARK  Name = ZINC37867289
REMARK  6 active torsions:
REMARK  status: ('A' for Active; 'I' for Inactive)
REMARK    1  A    between atoms: C_3  and  O_31
REMARK    2  A    between atoms: C_6  and  N_7
REMARK    3  A    between atoms: N_9  and  C_24
REMARK    4  A    between atoms: C_10  and  C_13
REMARK    5  A    between atoms: C_24  and  C_25
REMARK    6  A    between atoms: O_31  and  C_32
REMARK                            x       y       z     vdW  Elec       q    Type
REMARK                         _______ _______ _______ _____ _____    ______ ____
ROOT
ATOM      1  N   UNL     1      -1.030  -0.706  -0.325  0.00  0.00    -0.295 N 
ATOM      2  C   UNL     1      -1.087  -2.085  -0.208  0.00  0.00    +0.143 A 
ATOM      3  N   UNL     1      -2.008  -2.838   0.366  0.00  0.00    -0.320 N 
ATOM      4  C   UNL     1      -1.902  -4.159   0.386  0.00  0.00    +0.058 A 
ATOM      5  C   UNL     1      -0.819  -4.753  -0.198  0.00  0.00    +0.074 A 
ATOM      6  S   UNL     1       0.063  -3.319  -0.800  0.00  0.00    -0.062 S 
ATOM      7  H   UNL     1      -1.677  -0.152   0.141  0.00  0.00    +0.154 HD
ENDROOT
BRANCH   4   8
ATOM      8  C   UNL     1      -2.948  -4.985   1.036  0.00  0.00    +0.001 A 
ATOM      9  C   UNL     1      -4.284  -4.590   0.979  0.00  0.00    +0.013 A 
ATOM     10  C   UNL     1      -5.260  -5.358   1.583  0.00  0.00    +0.048 A 
ATOM     11  C   UNL     1      -4.913  -6.523   2.248  0.00  0.00    +0.142 A 
ATOM     12  C   UNL     1      -3.578  -6.923   2.308  0.00  0.00    +0.076 A 
ATOM     13  C   UNL     1      -2.598  -6.160   1.700  0.00  0.00    +0.037 A 
ATOM     14  N   UNL     1      -3.246  -8.104   2.987  0.00  0.00    -0.280 N 
ATOM     15  C   UNL     1      -4.226  -8.983   3.289  0.00  0.00    +0.255 C 
ATOM     16  O   UNL     1      -3.967  -9.997   3.902  0.00  0.00    -0.272 OA
ATOM     17  C   UNL     1      -5.644  -8.699   2.861  0.00  0.00    +0.325 C 
ATOM     18  O   UNL     1      -5.867  -7.286   2.847  0.00  0.00    -0.481 OA
ATOM     19  H   UNL     1      -2.327  -8.287   3.236  0.00  0.00    +0.155 HD
ENDBRANCH   4   8
BRANCH   1  25
ATOM     20  C   UNL     1       0.492  -0.797  -2.197  0.00  0.00    +0.027 A 
ATOM     21  C   UNL     1       1.469  -0.209  -2.976  0.00  0.00    +0.047 A 
ATOM     22  C   UNL     1       1.920   1.068  -2.676  0.00  0.00    +0.127 A 
ATOM     23  C   UNL     1       1.390   1.755  -1.594  0.00  0.00    +0.047 A 
ATOM     24  C   UNL     1       0.412   1.168  -0.814  0.00  0.00    +0.027 A 
ATOM     25  C   UNL     1      -0.040  -0.110  -1.114  0.00  0.00    +0.033 A 
BRANCH  22  26
ATOM     26  O   UNL     1       2.883   1.646  -3.443  0.00  0.00    -0.434 OA
BRANCH  26  27
ATOM     27  C   UNL     1       3.300   2.963  -3.076  0.00  0.00    +0.541 C 
ATOM     28  F   UNL     1       2.204   3.831  -3.131  0.00  0.00    -0.166 F 
ATOM     29  F   UNL     1       3.816   2.944  -1.776  0.00  0.00    -0.166 F 
ENDBRANCH  26  27
ENDBRANCH  22  26
ENDBRANCH   1  25
BRANCH   3  30
ATOM     30  C   UNL     1      -3.170  -2.202   0.992  0.00  0.00    +0.155 C 
BRANCH  30  31
ATOM     31  C   UNL     1      -3.941  -1.401  -0.059  0.00  0.00    +0.138 C 
ATOM     32  C   UNL     1      -5.096  -0.629   0.615  0.00  0.00    +0.035 C 
ATOM     33  C   UNL     1      -6.238  -0.769  -0.428  0.00  0.00    +0.031 C 
ATOM     34  C   UNL     1      -5.950  -2.183  -0.992  0.00  0.00    +0.160 C 
ATOM     35  O   UNL     1      -4.516  -2.291  -1.022  0.00  0.00    -0.375 OA
ENDBRANCH  30  31
ENDBRANCH   3  30
TORSDOF 6
