REMARK  Name = ZINC06272719
REMARK  3 active torsions:
REMARK  status: ('A' for Active; 'I' for Inactive)
REMARK    1  A    between atoms: C_1  and  C_2
REMARK    2  A    between atoms: C_5  and  C_8
REMARK    3  A    between atoms: N_9  and  N_10
REMARK                            x       y       z     vdW  Elec       q    Type
REMARK                         _______ _______ _______ _____ _____    ______ ____
ROOT
ATOM      1  C   UNL     1       0.060  -4.248  -0.021  0.00  0.00    +0.138 C 
ATOM      2  N   UNL     1       0.074  -4.903   1.100  0.00  0.00    -0.188 NA
ENDROOT
BRANCH   2   3
ATOM      3  N   UNL     1       0.093  -6.304   1.092  0.00  0.00    -0.205 N 
ATOM      4  C   UNL     1       0.108  -7.004   2.290  0.00  0.00    +0.235 A 
ATOM      5  N   UNL     1       0.133  -8.364   2.425  0.00  0.00    -0.303 N 
ATOM      6  H   UNL     1       0.142  -9.009   1.701  0.00  0.00    +0.171 HD
ATOM      7  C   UNL     1       0.142  -8.656   3.760  0.00  0.00    +0.201 A 
ATOM      8  S   UNL     1       0.173 -10.269   4.467  0.00  0.00    -0.009 SA
ATOM      9  N   UNL     1       0.124  -7.524   4.422  0.00  0.00    -0.120 NA
ATOM     10  N   UNL     1       0.108  -6.477   3.490  0.00  0.00    -0.111 NA
ATOM     11  H   UNL     1       0.095  -6.784   0.249  0.00  0.00    +0.177 HD
ENDBRANCH   2   3
BRANCH   1  16
ATOM     12  C   UNL     1      -0.018   1.503   0.010  0.00  0.00    +0.044 C 
ATOM     13  C   UNL     1       0.002  -0.004   0.002  0.00  0.00    -0.050 A 
ATOM     14  C   UNL     1       0.006  -0.686  -1.202  0.00  0.00    +0.004 A 
ATOM     15  C   UNL     1       0.024  -2.065  -1.217  0.00  0.00    +0.010 A 
ATOM     16  C   UNL     1       0.040  -2.773  -0.013  0.00  0.00    -0.005 A 
ATOM     17  C   UNL     1       0.037  -2.078   1.199  0.00  0.00    +0.010 A 
ATOM     18  C   UNL     1       0.023  -0.699   1.198  0.00  0.00    +0.004 A 
ENDBRANCH   1  16
TORSDOF 2
