REMARK  Name = ZINC39856120
REMARK  10 active torsions:
REMARK  status: ('A' for Active; 'I' for Inactive)
REMARK    1  A    between atoms: C_1  and  C_2
REMARK    2  A    between atoms: C_2  and  C_3
REMARK    3  A    between atoms: C_8  and  N_9
REMARK    4  A    between atoms: C_10  and  C_12
REMARK    5  A    between atoms: C_13  and  C_28
REMARK    6  A    between atoms: C_18  and  C_26
REMARK    7  A    between atoms: C_18  and  C_27
REMARK    8  A    between atoms: N_21  and  N_22
REMARK    9  A    between atoms: N_22  and  C_23
REMARK   10  A    between atoms: C_23  and  N_25
REMARK                            x       y       z     vdW  Elec       q    Type
REMARK                         _______ _______ _______ _____ _____    ______ ____
ROOT
ATOM      1  C   UNL     1       4.926  -0.226   1.137  0.00  0.00    +0.193 A 
ATOM      2  C   UNL     1       6.275  -0.390   1.288  0.00  0.00    +0.009 A 
ATOM      3  C   UNL     1       6.566  -0.040   2.612  0.00  0.00    +0.042 A 
ATOM      4  C   UNL     1       5.383   0.321   3.213  0.00  0.00    +0.116 A 
ATOM      5  O   UNL     1       4.412   0.210   2.309  0.00  0.00    -0.454 OA
ATOM      6  C   UNL     1       5.295   0.758   4.653  0.00  0.00    +0.081 C 
ATOM      7  C   UNL     1       6.524   0.254   5.414  0.00  0.00    -0.023 C 
ATOM      8  C   UNL     1       7.812   0.675   4.698  0.00  0.00    +0.064 C 
ATOM      9  C   UNL     1       7.852  -0.017   3.343  0.00  0.00    +0.070 C 
ATOM     10  N   UNL     1       8.935  -0.548   2.865  0.00  0.00    -0.185 NA
ATOM     11  C   UNL     1       6.518   0.841   6.827  0.00  0.00    +0.011 C 
ATOM     12  C   UNL     1       6.472  -1.272   5.502  0.00  0.00    +0.011 C 
ATOM     13  C   UNL     1       7.252  -0.855   0.239  0.00  0.00    +0.048 C 
ENDROOT
BRANCH   1  15
ATOM     14  N   UNL     1       2.833  -0.269  -0.114  0.00  0.00    -0.279 N 
ATOM     15  C   UNL     1       4.165  -0.474  -0.092  0.00  0.00    +0.284 C 
ATOM     16  O   UNL     1       4.736  -0.867  -1.093  0.00  0.00    -0.266 OA
ATOM     17  H   UNL     1       2.387   0.106   0.662  0.00  0.00    +0.155 HD
BRANCH  14  23
ATOM     18  C   UNL     1       0.800  -1.085  -1.129  0.00  0.00    -0.026 A 
ATOM     19  C   UNL     1       0.070  -1.401  -2.258  0.00  0.00    +0.005 A 
ATOM     20  C   UNL     1       0.627  -1.234  -3.512  0.00  0.00    +0.000 A 
ATOM     21  C   UNL     1       1.917  -0.750  -3.641  0.00  0.00    +0.002 A 
ATOM     22  C   UNL     1       2.652  -0.433  -2.516  0.00  0.00    +0.023 A 
ATOM     23  C   UNL     1       2.093  -0.595  -1.254  0.00  0.00    +0.037 A 
BRANCH  18  25
ATOM     24  C   UNL     1      -0.422   0.056   0.703  0.00  0.00    +0.009 C 
ATOM     25  C   UNL     1       0.192  -1.267   0.238  0.00  0.00    +0.033 C 
ENDBRANCH  18  25
ENDBRANCH  14  23
ENDBRANCH   1  15
BRANCH  10  26
ATOM     26  N   UNL     1      10.125  -0.497   3.601  0.00  0.00    -0.218 N 
ATOM     27  H   UNL     1      10.140  -0.065   4.470  0.00  0.00    +0.176 HD
BRANCH  26  28
ATOM     28  C   UNL     1      11.250  -1.049   3.104  0.00  0.00    +0.147 C 
ATOM     29  S   UNL     1      12.704  -0.987   4.004  0.00  0.00    -0.017 S 
BRANCH  28  30
ATOM     30  N   UNL     1      11.229  -1.649   1.897  0.00  0.00    -0.339 N 
ATOM     31  H   UNL     1      10.405  -1.684   1.387  0.00  0.00    +0.144 HD
ATOM     32  H   UNL     1      12.038  -2.046   1.539  0.00  0.00    +0.144 HD
ENDBRANCH  28  30
ENDBRANCH  26  28
ENDBRANCH  10  26
TORSDOF 6
