REMARK  Name = ZINC39920600
REMARK  6 active torsions:
REMARK  status: ('A' for Active; 'I' for Inactive)
REMARK    1  A    between atoms: C_10  and  O_11
REMARK    2  A    between atoms: O_11  and  C_12
REMARK    3  A    between atoms: C_12  and  C_13
REMARK    4  A    between atoms: N_15  and  N_16
REMARK    5  A    between atoms: C_17  and  C_29
REMARK    6  A    between atoms: C_32  and  O_35
REMARK                            x       y       z     vdW  Elec       q    Type
REMARK                         _______ _______ _______ _____ _____    ______ ____
ROOT
ATOM      1  N   UNL     1       9.579   0.631  -0.086  0.00  0.00    -0.191 N 
ATOM      2  C   UNL     1      10.331   0.829  -1.325  0.00  0.00    +0.212 C 
ATOM      3  N   UNL     1      10.886   2.187  -1.372  0.00  0.00    -0.320 N 
ATOM      4  C   UNL     1      11.489   2.698  -0.228  0.00  0.00    +0.041 A 
ATOM      5  C   UNL     1      12.517   3.623  -0.293  0.00  0.00    +0.025 A 
ATOM      6  C   UNL     1      13.085   4.097   0.875  0.00  0.00    +0.017 A 
ATOM      7  C   UNL     1      12.633   3.654   2.109  0.00  0.00    +0.019 A 
ATOM      8  C   UNL     1      11.607   2.733   2.190  0.00  0.00    +0.030 A 
ATOM      9  C   UNL     1      11.026   2.248   1.021  0.00  0.00    +0.060 A 
ATOM     10  C   UNL     1       9.919   1.275   1.049  0.00  0.00    +0.267 C 
ATOM     11  O   UNL     1       9.323   1.052   2.085  0.00  0.00    -0.268 OA
ATOM     12 BR   UNL     1      13.427   4.316   3.692  0.00  0.00    -0.050 Br
ATOM     13  H   UNL     1      10.833   2.716  -2.183  0.00  0.00    +0.148 HD
ENDROOT
BRANCH   2  14
ATOM     14  C   UNL     1      11.458  -0.169  -1.389  0.00  0.00    -0.008 A 
ATOM     15  C   UNL     1      11.320  -1.407  -0.788  0.00  0.00    +0.011 A 
ATOM     16  C   UNL     1      12.352  -2.323  -0.845  0.00  0.00    +0.046 A 
ATOM     17  C   UNL     1      13.528  -2.001  -1.506  0.00  0.00    +0.117 A 
ATOM     18  C   UNL     1      13.664  -0.759  -2.109  0.00  0.00    +0.046 A 
ATOM     19  C   UNL     1      12.627   0.152  -2.054  0.00  0.00    +0.011 A 
BRANCH  17  20
ATOM     20  O   UNL     1      14.545  -2.901  -1.563  0.00  0.00    -0.507 OA
ATOM     21  H   UNL     1      14.507  -3.489  -2.330  0.00  0.00    +0.292 HD
ENDBRANCH  17  20
ENDBRANCH   2  14
BRANCH   1  24
ATOM     22  C   UNL     1       7.228   0.256  -0.065  0.00  0.00    +0.267 C 
ATOM     23  O   UNL     1       7.051   1.456  -0.058  0.00  0.00    -0.271 OA
ATOM     24  N   UNL     1       8.481  -0.240  -0.080  0.00  0.00    -0.227 N 
ATOM     25  H   UNL     1       8.623  -1.199  -0.085  0.00  0.00    +0.173 HD
BRANCH  22  26
ATOM     26  C   UNL     1       6.047  -0.680  -0.059  0.00  0.00    +0.326 C 
BRANCH  26  27
ATOM     27  O   UNL     1       4.837   0.080  -0.043  0.00  0.00    -0.482 OA
BRANCH  27  37
ATOM     28  C   UNL     1      -0.016   1.357   0.009  0.00  0.00    +0.001 A 
ATOM     29  C   UNL     1       1.169   2.090   0.002  0.00  0.00    +0.001 A 
ATOM     30  C   UNL     1       2.379   1.467  -0.013  0.00  0.00    +0.012 A 
ATOM     31  C   UNL     1       2.437   0.064  -0.021  0.00  0.00    +0.024 A 
ATOM     32  C   UNL     1       1.233  -0.683  -0.013  0.00  0.00    -0.014 A 
ATOM     33  C   UNL     1       0.002  -0.004   0.002  0.00  0.00    +0.008 A 
ATOM     34  C   UNL     1       1.292  -2.087  -0.021  0.00  0.00    +0.009 A 
ATOM     35  C   UNL     1       2.501  -2.713  -0.035  0.00  0.00    +0.004 A 
ATOM     36  C   UNL     1       3.687  -1.984  -0.043  0.00  0.00    +0.046 A 
ATOM     37  C   UNL     1       3.671  -0.617  -0.036  0.00  0.00    +0.129 A 
ENDBRANCH  27  37
ENDBRANCH  26  27
ENDBRANCH  22  26
ENDBRANCH   1  24
TORSDOF 6
