REMARK  Name = ZINC17836138
REMARK  8 active torsions:
REMARK  status: ('A' for Active; 'I' for Inactive)
REMARK    1  A    between atoms: C_1  and  C_2
REMARK    2  A    between atoms: C_4  and  O_30
REMARK    3  A    between atoms: C_6  and  O_29
REMARK    4  A    between atoms: C_8  and  O_28
REMARK    5  A    between atoms: C_10  and  N_13
REMARK    6  A    between atoms: N_13  and  C_14
REMARK    7  A    between atoms: C_17  and  N_20
REMARK    8  A    between atoms: N_21  and  C_22
REMARK                            x       y       z     vdW  Elec       q    Type
REMARK                         _______ _______ _______ _____ _____    ______ ____
ROOT
ATOM      1  N   UNL     1       4.670  -2.960   1.544  0.00  0.00    -0.317 N 
ATOM      2  H   UNL     1       4.627  -4.058   1.589  0.00  0.00    +0.149 HD
ENDROOT
BRANCH   1   8
ATOM      3  C   UNL     1       8.000  -1.179   4.463  0.00  0.00    +0.041 C 
ATOM      4  C   UNL     1       7.651  -1.377   2.986  0.00  0.00    +0.149 C 
ATOM      5  C   UNL     1       8.746  -2.206   2.309  0.00  0.00    +0.174 C 
ATOM      6  C   UNL     1       8.360  -2.450   0.847  0.00  0.00    +0.178 C 
ATOM      7  C   UNL     1       6.994  -3.142   0.800  0.00  0.00    +0.192 C 
ATOM      8  C   UNL     1       5.967  -2.277   1.535  0.00  0.00    +0.235 C 
ATOM      9  O   UNL     1       6.401  -2.063   2.880  0.00  0.00    -0.351 OA
BRANCH   7  10
ATOM     10  O   UNL     1       6.590  -3.310  -0.560  0.00  0.00    -0.385 OA
ATOM     11  H   UNL     1       5.629  -3.792  -0.794  0.00  0.00    +0.210 HD
ENDBRANCH   7  10
BRANCH   6  12
ATOM     12  O   UNL     1       8.287  -1.201   0.157  0.00  0.00    -0.386 OA
ATOM     13  H   UNL     1       8.021  -1.177  -0.911  0.00  0.00    +0.210 HD
ENDBRANCH   6  12
BRANCH   5  14
ATOM     14  O   UNL     1       8.883  -3.458   2.983  0.00  0.00    -0.387 OA
ATOM     15  H   UNL     1       9.627  -4.191   2.635  0.00  0.00    +0.210 HD
ENDBRANCH   5  14
ENDBRANCH   1   8
BRANCH   1  16
ATOM     16  C   UNL     1       3.493  -2.219   1.496  0.00  0.00    +0.029 A 
ATOM     17  C   UNL     1       3.542  -0.831   1.593  0.00  0.00    +0.025 A 
ATOM     18  C   UNL     1       2.380  -0.094   1.546  0.00  0.00    +0.031 A 
ATOM     19  C   UNL     1       1.149  -0.742   1.401  0.00  0.00    +0.086 A 
ATOM     20  C   UNL     1       1.103  -2.138   1.310  0.00  0.00    +0.031 A 
ATOM     21  C   UNL     1       2.269  -2.867   1.352  0.00  0.00    +0.025 A 
BRANCH  19  22
ATOM     22  N   UNL     1      -0.005  -0.016   1.355  0.00  0.00    -0.149 NA
ATOM     23  N   UNL     1       0.035   1.242   1.070  0.00  0.00    -0.149 NA
BRANCH  23  24
ATOM     24  C   UNL     1       0.979   1.716   0.201  0.00  0.00    +0.086 A 
ATOM     25  C   UNL     1       1.291   3.078   0.179  0.00  0.00    +0.029 A 
ATOM     26  C   UNL     1       2.248   3.548  -0.696  0.00  0.00    +0.002 A 
ATOM     27  C   UNL     1       2.889   2.676  -1.559  0.00  0.00    +0.000 A 
ATOM     28  C   UNL     1       2.580   1.327  -1.547  0.00  0.00    +0.002 A 
ATOM     29  C   UNL     1       1.630   0.842  -0.673  0.00  0.00    +0.029 A 
ENDBRANCH  23  24
ENDBRANCH  19  22
ENDBRANCH   1  16
TORSDOF 7
