REMARK  Name = ZINC00968421
REMARK  7 active torsions:
REMARK  status: ('A' for Active; 'I' for Inactive)
REMARK    1  A    between atoms: C_1  and  C_2
REMARK    2  A    between atoms: C_2  and  C_3
REMARK    3  A    between atoms: C_2  and  C_4
REMARK    4  A    between atoms: C_8  and  O_11
REMARK    5  A    between atoms: C_9  and  O_10
REMARK    6  A    between atoms: C_16  and  C_25
REMARK    7  A    between atoms: C_16  and  C_26
REMARK                            x       y       z     vdW  Elec       q    Type
REMARK                         _______ _______ _______ _____ _____    ______ ____
ROOT
ATOM      1  C   UNL     1       1.381  -1.054   3.608  0.00  0.00    +0.001 A 
ATOM      2  C   UNL     1       1.935  -0.158   2.701  0.00  0.00    +0.015 A 
ATOM      3  C   UNL     1       1.262   0.114   1.546  0.00  0.00    +0.001 A 
ATOM      4  C   UNL     1       0.032  -0.495   1.276  0.00  0.00    +0.021 A 
ATOM      5  C   UNL     1      -0.522  -1.377   2.157  0.00  0.00    +0.163 A 
ATOM      6  C   UNL     1       0.165  -1.662   3.343  0.00  0.00    +0.162 A 
ATOM      7  C   UNL     1      -0.543  -0.052  -0.045  0.00  0.00    +0.100 C 
ATOM      8  C   UNL     1      -1.913  -0.625  -0.313  0.00  0.00    +0.023 C 
ATOM      9  C   UNL     1      -2.420  -0.158  -1.681  0.00  0.00    +0.002 C 
ATOM     10  C   UNL     1      -1.429  -0.594  -2.763  0.00  0.00    +0.007 C 
ATOM     11  C   UNL     1      -0.062   0.037  -2.493  0.00  0.00    -0.031 C 
ATOM     12  C   UNL     1       0.465  -0.442  -1.138  0.00  0.00    +0.020 C 
ATOM     13  C   UNL     1       1.808   0.237  -0.846  0.00  0.00    +0.055 C 
ATOM     14  C   UNL     1       1.721   1.059   0.455  0.00  0.00    +0.207 C 
ATOM     15  O   UNL     1       0.644   2.041   0.260  0.00  0.00    -0.456 OA
ATOM     16  C   UNL     1      -0.564   1.470  -0.012  0.00  0.00    +0.319 C 
ATOM     17  O   UNL     1      -1.565   2.117  -0.213  0.00  0.00    -0.250 OA
ATOM     18  C   UNL     1      -0.198   1.560  -2.477  0.00  0.00    +0.011 C 
ATOM     19  C   UNL     1       0.916  -0.376  -3.595  0.00  0.00    +0.011 C 
ENDROOT
BRANCH   1  21
ATOM     20  C   UNL     1       3.480  -1.965   4.563  0.00  0.00    +0.012 C 
ATOM     21  C   UNL     1       2.110  -1.367   4.889  0.00  0.00    +0.017 C 
ATOM     22  C   UNL     1       2.294  -0.082   5.699  0.00  0.00    +0.012 C 
ENDBRANCH   1  21
BRANCH   6  23
ATOM     23  O   UNL     1      -0.365  -2.538   4.239  0.00  0.00    -0.503 OA
ATOM     24  H   UNL     1      -0.937  -2.126   4.900  0.00  0.00    +0.292 HD
ENDBRANCH   6  23
BRANCH   5  25
ATOM     25  O   UNL     1      -1.717  -1.968   1.889  0.00  0.00    -0.503 OA
ATOM     26  H   UNL     1      -2.482  -1.473   2.214  0.00  0.00    +0.292 HD
ENDBRANCH   5  25
TORSDOF 3
