REMARK  Name = ZINC41451711
REMARK  8 active torsions:
REMARK  status: ('A' for Active; 'I' for Inactive)
REMARK    1  A    between atoms: C_1  and  N_2
REMARK    2  A    between atoms: N_2  and  C_3
REMARK    3  A    between atoms: N_2  and  C_4
REMARK    4  A    between atoms: C_4  and  C_5
REMARK    5  A    between atoms: C_5  and  N_6
REMARK    6  A    between atoms: N_6  and  S_7
REMARK    7  A    between atoms: S_7  and  C_10
REMARK    8  A    between atoms: C_13  and  N_16
REMARK                            x       y       z     vdW  Elec       q    Type
REMARK                         _______ _______ _______ _____ _____    ______ ____
ROOT
ATOM      1  C   UNL     1      -4.016  -0.511  -3.967  0.00  0.00    +0.105 A 
ATOM      2  C   UNL     1      -3.172   0.317  -4.685  0.00  0.00    +0.030 A 
ATOM      3  C   UNL     1      -2.744  -0.055  -5.944  0.00  0.00    +0.025 A 
ATOM      4  C   UNL     1      -3.162  -1.262  -6.490  0.00  0.00    +0.040 A 
ATOM      5  C   UNL     1      -4.009  -2.091  -5.766  0.00  0.00    +0.025 A 
ATOM      6  C   UNL     1      -4.429  -1.716  -4.505  0.00  0.00    +0.030 A 
ENDROOT
BRANCH   4   7
ATOM      7  N   UNL     1      -2.731  -1.642  -7.766  0.00  0.00    -0.234 N 
ATOM      8  C   UNL     1      -3.095  -2.885  -8.474  0.00  0.00    +0.158 C 
ATOM      9  C   UNL     1      -2.657  -2.576  -9.925  0.00  0.00    +0.253 C 
ATOM     10  O   UNL     1      -1.646  -1.569  -9.725  0.00  0.00    -0.448 OA
ATOM     11  C   UNL     1      -1.915  -0.936  -8.571  0.00  0.00    +0.407 C 
ATOM     12  O   UNL     1      -1.466   0.156  -8.283  0.00  0.00    -0.226 OA
ENDBRANCH   4   7
BRANCH   1  13
ATOM     13  S   UNL     1      -4.559  -0.033  -2.361  0.00  0.00    +0.058 S 
ATOM     14  O   UNL     1      -5.773  -0.731  -2.118  0.00  0.00    -0.153 OA
ATOM     15  O   UNL     1      -4.471   1.384  -2.307  0.00  0.00    -0.153 OA
BRANCH  13  16
ATOM     16  N   UNL     1      -3.452  -0.617  -1.276  0.00  0.00    -0.192 NA
ATOM     17  H   UNL     1      -3.714  -1.295  -0.633  0.00  0.00    +0.148 HD
BRANCH  16  18
ATOM     18  C   UNL     1      -2.078  -0.110  -1.286  0.00  0.00    +0.087 C 
BRANCH  18  19
ATOM     19  C   UNL     1      -1.376  -0.512   0.012  0.00  0.00    -0.063 C 
BRANCH  19  21
ATOM     20  C   UNL     1      -0.018   1.465   0.010  0.00  0.00    -0.097 C 
ATOM     21  N   UNL     1       0.002  -0.004   0.002  0.00  0.00    +0.377 N 
ATOM     22  C   UNL     1       0.713  -0.491   1.192  0.00  0.00    -0.097 C 
ATOM     23  H   UNL     1       0.474  -0.330  -0.828  0.00  0.00    -0.083 HD
ENDBRANCH  19  21
ENDBRANCH  18  19
ENDBRANCH  16  18
ENDBRANCH  13  16
ENDBRANCH   1  13
TORSDOF 6
