REMARK  Name = ZINC21573190
REMARK  9 active torsions:
REMARK  status: ('A' for Active; 'I' for Inactive)
REMARK    1  A    between atoms: C_1  and  C_2
REMARK    2  A    between atoms: C_4  and  C_32
REMARK    3  A    between atoms: C_5  and  C_9
REMARK    4  A    between atoms: C_7  and  C_8
REMARK    5  A    between atoms: C_9  and  C_11
REMARK    6  A    between atoms: C_11  and  C_12
REMARK    7  A    between atoms: C_12  and  O_31
REMARK    8  A    between atoms: N_19  and  C_22
REMARK    9  A    between atoms: C_22  and  C_23
REMARK                            x       y       z     vdW  Elec       q    Type
REMARK                         _______ _______ _______ _____ _____    ______ ____
ROOT
ATOM      1  C   UNL     1      -0.298  -0.107  -0.443  0.00  0.00    +0.175 C 
ATOM      2  C   UNL     1       1.044  -0.659  -0.022  0.00  0.00    +0.015 A 
ATOM      3  C   UNL     1       1.477  -1.927   0.295  0.00  0.00    +0.009 A 
ATOM      4  C   UNL     1       2.798  -2.136   0.652  0.00  0.00    +0.000 A 
ATOM      5  C   UNL     1       3.677  -1.070   0.691  0.00  0.00    +0.002 A 
ATOM      6  C   UNL     1       3.245   0.202   0.375  0.00  0.00    +0.024 A 
ATOM      7  C   UNL     1       1.917   0.420   0.013  0.00  0.00    +0.043 A 
ATOM      8  N   UNL     1       1.250   1.592  -0.345  0.00  0.00    -0.264 N 
ATOM      9  C   UNL     1      -0.045   1.374  -0.627  0.00  0.00    +0.257 C 
ATOM     10  O   UNL     1      -0.858   2.207  -0.970  0.00  0.00    -0.272 OA
ENDROOT
BRANCH   1  11
ATOM     11  O   UNL     1      -0.720  -0.700  -1.674  0.00  0.00    -0.374 OA
ATOM     12  H   UNL     1      -0.083  -0.624  -2.567  0.00  0.00    +0.211 HD
ENDBRANCH   1  11
BRANCH   1  13
ATOM     13  C   UNL     1      -1.342  -0.341   0.651  0.00  0.00    +0.129 C 
BRANCH  13  14
ATOM     14  C   UNL     1      -2.644   0.301   0.249  0.00  0.00    +0.167 C 
ATOM     15  O   UNL     1      -2.730   0.888  -0.809  0.00  0.00    -0.292 OA
BRANCH  14  20
ATOM     16  C   UNL     1      -7.208  -0.030   3.729  0.00  0.00    +0.044 C 
ATOM     17  C   UNL     1      -6.011   0.057   2.817  0.00  0.00    -0.047 A 
ATOM     18  C   UNL     1      -6.133   0.660   1.577  0.00  0.00    +0.007 A 
ATOM     19  C   UNL     1      -5.043   0.748   0.738  0.00  0.00    -0.040 A 
ATOM     20  C   UNL     1      -3.813   0.216   1.139  0.00  0.00    +0.021 A 
ATOM     21  C   UNL     1      -3.697  -0.391   2.394  0.00  0.00    +0.015 A 
ATOM     22  C   UNL     1      -4.797  -0.467   3.223  0.00  0.00    -0.047 A 
ATOM     23  C   UNL     1      -4.675  -1.121   4.575  0.00  0.00    +0.044 C 
ATOM     24  C   UNL     1      -5.176   1.410  -0.609  0.00  0.00    +0.044 C 
ENDBRANCH  14  20
ENDBRANCH  13  14
ENDBRANCH   1  13
BRANCH   8  25
ATOM     25  C   UNL     1       1.889   2.909  -0.407  0.00  0.00    +0.151 C 
BRANCH  25  26
ATOM     26  C   UNL     1       2.250   3.225  -1.836  0.00  0.00    +0.007 A 
ATOM     27  C   UNL     1       3.477   2.836  -2.343  0.00  0.00    +0.047 A 
ATOM     28  C   UNL     1       3.805   3.122  -3.656  0.00  0.00    +0.020 A 
ATOM     29  C   UNL     1       2.912   3.807  -4.458  0.00  0.00    +0.003 A 
ATOM     30  C   UNL     1       1.688   4.201  -3.951  0.00  0.00    +0.020 A 
ATOM     31  C   UNL     1       1.357   3.911  -2.640  0.00  0.00    +0.047 A 
ATOM     32 CL   UNL     1      -0.180   4.406  -2.003  0.00  0.00    -0.083 Cl
ATOM     33 CL   UNL     1       4.601   1.982  -1.333  0.00  0.00    -0.083 Cl
ENDBRANCH  25  26
ENDBRANCH   8  25
TORSDOF 6
