REMARK  Name = ZINC08453620
REMARK  4 active torsions:
REMARK  status: ('A' for Active; 'I' for Inactive)
REMARK    1  A    between atoms: C_4  and  C_7
REMARK    2  A    between atoms: C_10  and  C_22
REMARK    3  A    between atoms: C_15  and  C_16
REMARK    4  A    between atoms: N_24  and  C_25
REMARK                            x       y       z     vdW  Elec       q    Type
REMARK                         _______ _______ _______ _____ _____    ______ ____
ROOT
ATOM      1  C   UNL     1       3.438  -1.029   0.158  0.00  0.00    +0.023 A 
ATOM      2  C   UNL     1       3.832  -1.796  -0.979  0.00  0.00    +0.067 A 
ATOM      3  C   UNL     1       3.059  -2.185  -2.141  0.00  0.00    +0.208 A 
ATOM      4  C   UNL     1       3.675  -2.936  -3.116  0.00  0.00    +0.123 A 
ATOM      5  S   UNL     1       5.331  -3.144  -2.492  0.00  0.00    -0.058 S 
ATOM      6  C   UNL     1       5.176  -2.243  -0.971  0.00  0.00    +0.136 A 
ATOM      7  N   UNL     1       5.995  -1.964   0.020  0.00  0.00    -0.141 NA
ATOM      8  N   UNL     1       5.626  -1.272   1.039  0.00  0.00    -0.148 NA
ATOM      9  C   UNL     1       4.394  -0.788   1.151  0.00  0.00    +0.102 A 
ATOM     10  O   UNL     1       1.758  -1.818  -2.264  0.00  0.00    -0.286 OA
ENDROOT
BRANCH   1  14
ATOM     11  C   UNL     1      -0.514   0.493   0.506  0.00  0.00    +0.000 A 
ATOM     12  C   UNL     1       0.547   1.364   0.331  0.00  0.00    +0.001 A 
ATOM     13  C   UNL     1       1.833   0.876   0.217  0.00  0.00    +0.008 A 
ATOM     14  C   UNL     1       2.062  -0.499   0.280  0.00  0.00    -0.015 A 
ATOM     15  C   UNL     1       0.988  -1.372   0.457  0.00  0.00    +0.008 A 
ATOM     16  C   UNL     1      -0.293  -0.871   0.569  0.00  0.00    +0.001 A 
ENDBRANCH   1  14
BRANCH   9  17
ATOM     17  C   UNL     1       4.026   0.009   2.344  0.00  0.00    +0.003 A 
ATOM     18  C   UNL     1       2.816  -0.226   2.997  0.00  0.00    +0.010 A 
ATOM     19  C   UNL     1       2.479   0.520   4.108  0.00  0.00    +0.001 A 
ATOM     20  C   UNL     1       3.338   1.499   4.575  0.00  0.00    +0.000 A 
ATOM     21  C   UNL     1       4.539   1.736   3.931  0.00  0.00    +0.001 A 
ATOM     22  C   UNL     1       4.890   0.994   2.822  0.00  0.00    +0.010 A 
ENDBRANCH   9  17
BRANCH   4  23
ATOM     23  C   UNL     1       3.106  -3.444  -4.365  0.00  0.00    +0.259 C 
ATOM     24  O   UNL     1       1.944  -3.210  -4.644  0.00  0.00    -0.269 OA
ATOM     25  N   UNL     1       3.868  -4.169  -5.207  0.00  0.00    -0.281 N 
ATOM     26  H   UNL     1       4.772  -4.414  -4.954  0.00  0.00    +0.155 HD
BRANCH  25  27
ATOM     27  C   UNL     1       3.356  -4.569  -6.445  0.00  0.00    +0.034 A 
ATOM     28  C   UNL     1       3.740  -5.784  -6.998  0.00  0.00    +0.023 A 
ATOM     29  C   UNL     1       3.232  -6.176  -8.221  0.00  0.00    +0.002 A 
ATOM     30  C   UNL     1       2.342  -5.361  -8.895  0.00  0.00    +0.000 A 
ATOM     31  C   UNL     1       1.958  -4.151  -8.348  0.00  0.00    +0.002 A 
ATOM     32  C   UNL     1       2.457  -3.755  -7.122  0.00  0.00    +0.023 A 
ENDBRANCH  25  27
ENDBRANCH   4  23
TORSDOF 4
