REMARK  Name = ZINC13004700
REMARK  14 active torsions:
REMARK  status: ('A' for Active; 'I' for Inactive)
REMARK    1  A    between atoms: C_1  and  C_2
REMARK    2  A    between atoms: C_3  and  C_29
REMARK    3  A    between atoms: C_4  and  C_28
REMARK    4  A    between atoms: C_7  and  C_8
REMARK    5  A    between atoms: C_8  and  C_10
REMARK    6  A    between atoms: C_10  and  N_66
REMARK    7  A    between atoms: C_11  and  C_13
REMARK    8  A    between atoms: C_11  and  C_25
REMARK    9  A    between atoms: C_11  and  N_66
REMARK   10  A    between atoms: C_16  and  C_19
REMARK   11  A    between atoms: C_25  and  C_26
REMARK   12  A    between atoms: C_25  and  C_27
REMARK   13  A    between atoms: C_29  and  O_31
REMARK   14  A    between atoms: O_31  and  C_32
REMARK                            x       y       z     vdW  Elec       q    Type
REMARK                         _______ _______ _______ _____ _____    ______ ____
ROOT
ATOM      1  N   UNL     1       1.416   1.454   2.429  0.00  0.00    +0.389 N 
ATOM      2  H   UNL     1       1.920   0.824   1.794  0.00  0.00    -0.084 HD
ATOM      3  H   UNL     1       1.476   2.416   2.074  0.00  0.00    -0.084 HD
ENDROOT
BRANCH   1   4
ATOM      4  C   UNL     1       2.032   1.390   3.767  0.00  0.00    +0.001 C 
BRANCH   4   5
ATOM      5  C   UNL     1       3.504   1.690   3.649  0.00  0.00    +0.163 C 
ATOM      6  O   UNL     1       3.989   1.931   2.562  0.00  0.00    -0.293 OA
BRANCH   5  13
ATOM      7  C   UNL     1       6.559   2.265   3.660  0.00  0.00    +0.047 C 
ATOM      8  C   UNL     1       5.677   1.942   4.837  0.00  0.00    -0.008 A 
ATOM      9  C   UNL     1       6.078   1.841   6.187  0.00  0.00    +0.083 A 
ATOM     10  C   UNL     1       4.951   1.523   6.926  0.00  0.00    +0.028 A 
ATOM     11  N   UNL     1       3.903   1.434   6.094  0.00  0.00    -0.355 N 
ATOM     12  H   UNL     1       2.994   1.222   6.357  0.00  0.00    +0.166 HD
ATOM     13  C   UNL     1       4.322   1.691   4.804  0.00  0.00    +0.084 A 
ATOM     14  C   UNL     1       4.910   1.311   8.417  0.00  0.00    +0.064 C 
BRANCH   9  15
ATOM     15  C   UNL     1       7.441   2.033   6.710  0.00  0.00    +0.341 C 
ATOM     16  O   UNL     1       8.201   1.088   6.787  0.00  0.00    -0.245 OA
BRANCH  15  17
ATOM     17  O   UNL     1       7.845   3.257   7.104  0.00  0.00    -0.464 OA
ATOM     18  C   UNL     1       9.201   3.372   7.610  0.00  0.00    +0.280 C 
ENDBRANCH  15  17
ENDBRANCH   9  15
ENDBRANCH   5  13
ENDBRANCH   4   5
ENDBRANCH   1   4
BRANCH   1  19
ATOM     19  C   UNL     1       0.000   1.047   2.496  0.00  0.00    -0.038 C 
BRANCH  19  20
ATOM     20  C   UNL     1      -0.091  -0.457   2.518  0.00  0.00    -0.061 A 
ATOM     21  C   UNL     1       0.749  -1.212   1.721  0.00  0.00    +0.002 A 
ATOM     22  C   UNL     1       0.668  -2.592   1.745  0.00  0.00    +0.004 A 
ATOM     23  C   UNL     1      -0.259  -3.216   2.558  0.00  0.00    -0.044 A 
ATOM     24  C   UNL     1      -1.102  -2.461   3.352  0.00  0.00    +0.004 A 
ATOM     25  C   UNL     1      -1.018  -1.081   3.332  0.00  0.00    +0.002 A 
BRANCH  23  26
ATOM     26  C   UNL     1      -0.351  -4.721   2.580  0.00  0.00    +0.019 C 
ATOM     27  C   UNL     1       0.990  -5.306   3.029  0.00  0.00    +0.008 C 
ATOM     28  C   UNL     1       0.897  -6.833   3.052  0.00  0.00    +0.001 C 
ATOM     29  C   UNL     1       0.561  -7.345   1.649  0.00  0.00    +0.000 C 
ATOM     30  C   UNL     1      -0.779  -6.759   1.201  0.00  0.00    +0.001 C 
ATOM     31  C   UNL     1      -0.687  -5.232   1.178  0.00  0.00    +0.008 C 
ENDBRANCH  23  26
ENDBRANCH  19  20
BRANCH  19  32
ATOM     32  C   UNL     1      -0.736   1.585   1.267  0.00  0.00    -0.027 C 
ATOM     33  C   UNL     1      -0.007   1.135  -0.001  0.00  0.00    +0.006 C 
ATOM     34  C   UNL     1      -0.770   3.113   1.322  0.00  0.00    +0.006 C 
ENDBRANCH  19  32
ENDBRANCH   1  19
TORSDOF 9
