REMARK  Name = ZINC16011998
REMARK  3 active torsions:
REMARK  status: ('A' for Active; 'I' for Inactive)
REMARK    1  A    between atoms: C_4  and  C_7
REMARK    2  A    between atoms: C_7  and  C_8
REMARK    3  A    between atoms: N_16  and  C_19
REMARK                            x       y       z     vdW  Elec       q    Type
REMARK                         _______ _______ _______ _____ _____    ______ ____
ROOT
ATOM      1  C   UNL     1       4.171  -0.963   1.399  0.00  0.00    +0.072 C 
ATOM      2  C   UNL     1       5.482  -1.745   1.423  0.00  0.00    +0.108 C 
ATOM      3  C   UNL     1       5.855  -1.473   2.928  0.00  0.00    +0.123 C 
ATOM      4  C   UNL     1       6.870  -2.468   3.171  0.00  0.00    +0.233 C 
ATOM      5  O   UNL     1       7.831  -2.380   3.905  0.00  0.00    -0.274 OA
ATOM      6  N   UNL     1       6.510  -3.540   2.390  0.00  0.00    -0.210 N 
ATOM      7  C   UNL     1       5.498  -3.239   1.497  0.00  0.00    +0.232 C 
ATOM      8  O   UNL     1       4.774  -4.010   0.905  0.00  0.00    -0.274 OA
ATOM      9  C   UNL     1       5.527  -0.072   3.171  0.00  0.00    +0.136 C 
ATOM     10  N   UNL     1       4.578   0.320   2.074  0.00  0.00    -0.295 NA
ATOM     11  C   UNL     1       4.860   0.198   4.496  0.00  0.00    +0.003 A 
ATOM     12  C   UNL     1       3.739  -0.318   5.107  0.00  0.00    +0.008 A 
ATOM     13  C   UNL     1       3.361   0.139   6.357  0.00  0.00    +0.000 A 
ATOM     14  C   UNL     1       4.111   1.114   6.990  0.00  0.00    +0.002 A 
ATOM     15  C   UNL     1       5.235   1.632   6.381  0.00  0.00    +0.023 A 
ATOM     16  C   UNL     1       5.623   1.177   5.122  0.00  0.00    +0.039 A 
ATOM     17  N   UNL     1       6.701   1.540   4.313  0.00  0.00    -0.283 N 
ATOM     18  C   UNL     1       6.719   0.857   3.155  0.00  0.00    +0.243 C 
ATOM     19  O   UNL     1       7.537   0.966   2.266  0.00  0.00    -0.273 OA
ATOM     20  H   UNL     1       5.028   0.945   1.421  0.00  0.00    +0.124 HD
ATOM     21  H   UNL     1       7.361   2.207   4.558  0.00  0.00    +0.155 HD
ENDROOT
BRANCH   6  22
ATOM     22  C   UNL     1       7.112  -4.803   2.476  0.00  0.00    +0.044 A 
ATOM     23  C   UNL     1       8.129  -5.027   3.394  0.00  0.00    +0.025 A 
ATOM     24  C   UNL     1       8.720  -6.273   3.477  0.00  0.00    +0.022 A 
ATOM     25  C   UNL     1       8.300  -7.297   2.647  0.00  0.00    +0.041 A 
ATOM     26  C   UNL     1       7.286  -7.076   1.731  0.00  0.00    +0.022 A 
ATOM     27  C   UNL     1       6.688  -5.834   1.648  0.00  0.00    +0.025 A 
ATOM     28 CL   UNL     1       9.045  -8.861   2.754  0.00  0.00    -0.084 Cl
ENDBRANCH   6  22
BRANCH   1  29
ATOM     29  C   UNL     1       3.711  -0.707  -0.038  0.00  0.00    +0.054 C 
BRANCH  29  33
ATOM     30  C   UNL     1      -0.017   1.378   0.010  0.00  0.00    +0.000 A 
ATOM     31  C   UNL     1       1.171   2.086   0.002  0.00  0.00    +0.000 A 
ATOM     32  C   UNL     1       2.377   1.411  -0.013  0.00  0.00    +0.004 A 
ATOM     33  C   UNL     1       2.396   0.029  -0.020  0.00  0.00    -0.046 A 
ATOM     34  C   UNL     1       1.208  -0.679  -0.012  0.00  0.00    +0.004 A 
ATOM     35  C   UNL     1       0.002  -0.004   0.002  0.00  0.00    +0.000 A 
ENDBRANCH  29  33
ENDBRANCH   1  29
TORSDOF 3
