REMARK  Name = ZINC65393738
REMARK  9 active torsions:
REMARK  status: ('A' for Active; 'I' for Inactive)
REMARK    1  A    between atoms: C_1  and  C_2
REMARK    2  A    between atoms: C_4  and  C_8
REMARK    3  A    between atoms: C_8  and  C_9
REMARK    4  A    between atoms: C_9  and  C_11
REMARK    5  A    between atoms: C_9  and  N_12
REMARK    6  A    between atoms: C_15  and  C_26
REMARK    7  A    between atoms: C_16  and  C_17
REMARK    8  A    between atoms: N_21  and  C_23
REMARK    9  A    between atoms: C_23  and  C_24
REMARK                            x       y       z     vdW  Elec       q    Type
REMARK                         _______ _______ _______ _____ _____    ______ ____
ROOT
ATOM      1  N   UNL     1      -4.892   4.393  -4.369  0.00  0.00    -0.331 N 
ATOM      2  C   UNL     1      -6.105   4.312  -3.779  0.00  0.00    +0.174 A 
ATOM      3  N   UNL     1      -7.012   4.735  -4.614  0.00  0.00    -0.346 N 
ATOM      4  C   UNL     1      -6.417   5.101  -5.767  0.00  0.00    +0.067 A 
ATOM      5  C   UNL     1      -5.081   4.896  -5.626  0.00  0.00    +0.050 A 
ATOM      6  H   UNL     1      -7.964   4.780  -4.434  0.00  0.00    +0.167 HD
ENDROOT
BRANCH   5   7
ATOM      7  C   UNL     1      -4.015   5.168  -6.656  0.00  0.00    +0.068 C 
ATOM      8  C   UNL     1      -2.919   6.094  -6.080  0.00  0.00    +0.109 C 
ATOM      9  N   UNL     1      -1.636   5.563  -6.582  0.00  0.00    -0.253 NA
ATOM     10  N   UNL     1      -1.916   4.414  -7.441  0.00  0.00    -0.239 NA
ATOM     11  C   UNL     1      -3.228   3.874  -6.989  0.00  0.00    +0.113 C 
ATOM     12  H   UNL     1      -1.029   5.305  -5.819  0.00  0.00    +0.141 HD
BRANCH  10  13
ATOM     13  C   UNL     1      -0.860   3.400  -7.325  0.00  0.00    +0.128 C 
BRANCH  13  14
ATOM     14  C   UNL     1       0.436   3.963  -7.848  0.00  0.00    -0.018 C 
ATOM     15  C   UNL     1       1.506   3.958  -7.091  0.00  0.00    +0.005 C 
ENDBRANCH  13  14
ENDBRANCH  10  13
ENDBRANCH   5   7
BRANCH   4  16
ATOM     16  C   UNL     1      -7.097   5.637  -6.972  0.00  0.00    +0.000 A 
ATOM     17  C   UNL     1      -6.798   5.122  -8.232  0.00  0.00    +0.010 A 
ATOM     18  C   UNL     1      -7.434   5.624  -9.349  0.00  0.00    +0.001 A 
ATOM     19  C   UNL     1      -8.368   6.636  -9.219  0.00  0.00    +0.000 A 
ATOM     20  C   UNL     1      -8.669   7.151  -7.971  0.00  0.00    +0.001 A 
ATOM     21  C   UNL     1      -8.043   6.653  -6.847  0.00  0.00    +0.010 A 
ENDBRANCH   4  16
BRANCH   1  22
ATOM     22  C   UNL     1      -3.609   4.015  -3.771  0.00  0.00    +0.091 C 
ATOM     23  C   UNL     1      -3.369   4.850  -2.511  0.00  0.00    +0.031 C 
BRANCH  22  24
ATOM     24  C   UNL     1      -3.637   2.530  -3.401  0.00  0.00    +0.082 C 
BRANCH  24  28
ATOM     25  C   UNL     1       0.056   0.647  -0.443  0.00  0.00    +0.065 C 
ATOM     26  C   UNL     1      -0.677   1.285  -1.594  0.00  0.00    +0.033 A 
ATOM     27  C   UNL     1      -2.011   1.500  -1.670  0.00  0.00    +0.047 A 
ATOM     28  C   UNL     1      -2.279   2.113  -2.899  0.00  0.00    +0.065 A 
ATOM     29  N   UNL     1      -1.146   2.259  -3.538  0.00  0.00    -0.179 NA
ATOM     30  H   UNL     1       0.824   1.730  -2.955  0.00  0.00    +0.189 HD
ATOM     31  N   UNL     1      -0.120   1.749  -2.733  0.00  0.00    -0.282 N 
ENDBRANCH  24  28
ENDBRANCH  22  24
ENDBRANCH   1  22
TORSDOF 7
