REMARK  Name = ZINC66121036
REMARK  7 active torsions:
REMARK  status: ('A' for Active; 'I' for Inactive)
REMARK    1  A    between atoms: C_1  and  C_2
REMARK    2  A    between atoms: C_10  and  C_11
REMARK    3  A    between atoms: C_11  and  C_13
REMARK    4  A    between atoms: C_11  and  N_14
REMARK    5  A    between atoms: C_21  and  C_24
REMARK    6  A    between atoms: C_24  and  C_25
REMARK    7  A    between atoms: C_25  and  C_26
REMARK                            x       y       z     vdW  Elec       q    Type
REMARK                         _______ _______ _______ _____ _____    ______ ____
ROOT
ATOM      1  N   UNL     1       1.021  -1.120   3.261  0.00  0.00    -0.290 N 
ATOM      2  C   UNL     1       1.577  -0.595   4.370  0.00  0.00    +0.303 C 
ATOM      3  O   UNL     1       1.322   0.549   4.695  0.00  0.00    -0.253 OA
ATOM      4  N   UNL     1       2.415  -1.337   5.121  0.00  0.00    -0.285 N 
ATOM      5  C   UNL     1       2.827  -2.677   4.680  0.00  0.00    +0.109 C 
ATOM      6  C   UNL     1       4.357  -2.747   4.682  0.00  0.00    +0.019 C 
ATOM      7  C   UNL     1       4.881  -2.352   6.065  0.00  0.00    +0.006 C 
ATOM      8  C   UNL     1       4.463  -0.914   6.378  0.00  0.00    +0.007 C 
ATOM      9  C   UNL     1       2.939  -0.820   6.392  0.00  0.00    +0.112 C 
ATOM     10  H   UNL     1       1.279  -2.006   2.962  0.00  0.00    +0.151 HD
ENDROOT
BRANCH   1  11
ATOM     11  C   UNL     1       0.027  -0.353   2.506  0.00  0.00    +0.138 C 
ATOM     12  C   UNL     1      -1.357  -0.566   3.123  0.00  0.00    +0.036 C 
BRANCH  11  22
ATOM     13  C   UNL     1      -0.022   1.495   0.008  0.00  0.00    +0.048 C 
ATOM     14  C   UNL     1      -0.006  -0.012   0.004  0.00  0.00    +0.000 A 
ATOM     15  C   UNL     1      -0.003  -0.890  -1.172  0.00  0.00    +0.023 A 
ATOM     16  C   UNL     1      -0.015  -0.675  -2.550  0.00  0.00    +0.012 A 
ATOM     17  C   UNL     1      -0.009  -1.743  -3.403  0.00  0.00    +0.001 A 
ATOM     18  C   UNL     1       0.009  -3.039  -2.906  0.00  0.00    +0.004 A 
ATOM     19  C   UNL     1       0.020  -3.271  -1.547  0.00  0.00    +0.047 A 
ATOM     20  C   UNL     1       0.014  -2.199  -0.663  0.00  0.00    +0.136 A 
ATOM     21  O   UNL     1       0.021  -2.106   0.682  0.00  0.00    -0.458 OA
ATOM     22  C   UNL     1       0.015  -0.819   1.073  0.00  0.00    +0.129 A 
ENDBRANCH  11  22
ENDBRANCH   1  11
BRANCH   8  23
ATOM     23  C   UNL     1       5.015  -0.508   7.746  0.00  0.00    +0.014 C 
BRANCH  23  24
ATOM     24  C   UNL     1       4.705   0.967   8.005  0.00  0.00    +0.096 C 
BRANCH  24  25
ATOM     25  C   UNL     1       5.248   1.367   9.352  0.00  0.00    +0.210 C 
ATOM     26  O   UNL     1       5.827   0.551  10.038  0.00  0.00    -0.276 OA
ATOM     27  N   UNL     1       5.091   2.630   9.795  0.00  0.00    -0.329 N 
ATOM     28  H   UNL     1       4.628   3.282   9.246  0.00  0.00    +0.145 HD
ATOM     29  H   UNL     1       5.441   2.887  10.662  0.00  0.00    +0.145 HD
ENDBRANCH  24  25
ENDBRANCH  23  24
ENDBRANCH   8  23
TORSDOF 5
