REMARK  Name = ZINC20206084
REMARK  10 active torsions:
REMARK  status: ('A' for Active; 'I' for Inactive)
REMARK    1  A    between atoms: C_1  and  O_2
REMARK    2  A    between atoms: O_2  and  C_3
REMARK    3  A    between atoms: C_5  and  C_19
REMARK    4  A    between atoms: C_8  and  O_9
REMARK    5  A    between atoms: O_9  and  C_10
REMARK    6  A    between atoms: C_10  and  C_11
REMARK    7  A    between atoms: C_11  and  S_12
REMARK    8  A    between atoms: S_12  and  C_13
REMARK    9  A    between atoms: C_30  and  S_31
REMARK   10  A    between atoms: S_31  and  C_34
REMARK                            x       y       z     vdW  Elec       q    Type
REMARK                         _______ _______ _______ _____ _____    ______ ____
ROOT
ATOM      1  C   UNL     1      -1.253  -0.673  -0.584  0.00  0.00    +0.162 A 
ATOM      2  C   UNL     1      -2.375   0.120  -0.712  0.00  0.00    +0.057 A 
ATOM      3  C   UNL     1      -3.636  -0.399  -0.388  0.00  0.00    -0.021 A 
ATOM      4  C   UNL     1      -3.749  -1.722   0.064  0.00  0.00    +0.012 A 
ATOM      5  C   UNL     1      -2.624  -2.504   0.188  0.00  0.00    +0.050 A 
ATOM      6  C   UNL     1      -1.375  -1.990  -0.139  0.00  0.00    +0.162 A 
ENDROOT
BRANCH   3   7
ATOM      7  C   UNL     1      -4.831   0.437  -0.520  0.00  0.00    +0.024 C 
ATOM      8  C   UNL     1      -5.985  -0.091  -1.055  0.00  0.00    +0.079 C 
ATOM      9  C   UNL     1      -7.275   0.658  -1.039  0.00  0.00    +0.138 C 
ATOM     10  N   UNL     1      -7.352   1.958  -1.125  0.00  0.00    -0.284 NA
ATOM     11  N   UNL     1      -8.402  -0.181  -0.923  0.00  0.00    -0.201 N 
ATOM     12  C   UNL     1      -8.284  -1.497  -1.320  0.00  0.00    +0.183 C 
ATOM     13  N   UNL     1      -7.185  -2.102  -1.712  0.00  0.00    -0.152 NA
ATOM     14  C   UNL     1      -6.013  -1.435  -1.684  0.00  0.00    +0.273 C 
ATOM     15  O   UNL     1      -5.001  -1.924  -2.159  0.00  0.00    -0.268 OA
ATOM     16  S   UNL     1      -9.835  -2.086  -1.153  0.00  0.00    +0.049 S 
ATOM     17  N   UNL     1     -10.571  -0.730  -0.498  0.00  0.00    -0.174 NA
ATOM     18  C   UNL     1      -9.628   0.161  -0.464  0.00  0.00    +0.257 C 
ATOM     19  H   UNL     1      -6.544   2.488  -1.204  0.00  0.00    +0.188 HD
BRANCH  18  20
ATOM     20  S   UNL     1      -9.937   1.777   0.165  0.00  0.00    +0.026 S 
ATOM     21  O   UNL     1     -11.123   1.645   0.937  0.00  0.00    -0.167 OA
ATOM     22  O   UNL     1      -8.715   2.168   0.775  0.00  0.00    -0.167 OA
ATOM     23  C   UNL     1     -10.257   2.796  -1.302  0.00  0.00    +0.203 C 
ENDBRANCH  18  20
ENDBRANCH   3   7
BRANCH   1  25
ATOM     24  C   UNL     1       0.024   1.183  -1.347  0.00  0.00    +0.277 C 
ATOM     25  O   UNL     1      -0.028  -0.173  -0.898  0.00  0.00    -0.491 OA
ENDBRANCH   1  25
BRANCH   6  26
ATOM     26  O   UNL     1      -0.270  -2.769  -0.020  0.00  0.00    -0.487 OA
BRANCH  26  27
ATOM     27  C   UNL     1      -0.466  -4.107   0.441  0.00  0.00    +0.240 C 
BRANCH  27  28
ATOM     28  C   UNL     1       0.882  -4.826   0.510  0.00  0.00    +0.115 C 
BRANCH  28  29
ATOM     29  S   UNL     1       0.633  -6.525   1.096  0.00  0.00    -0.122 S 
BRANCH  29  30
ATOM     30  C   UNL     1       2.256  -7.210   1.121  0.00  0.00    +0.008 A 
ATOM     31  C   UNL     1       3.345  -6.435   0.740  0.00  0.00    +0.015 A 
ATOM     32  C   UNL     1       4.616  -6.975   0.760  0.00  0.00    +0.001 A 
ATOM     33  C   UNL     1       4.806  -8.286   1.159  0.00  0.00    +0.000 A 
ATOM     34  C   UNL     1       3.724  -9.060   1.538  0.00  0.00    +0.001 A 
ATOM     35  C   UNL     1       2.451  -8.525   1.526  0.00  0.00    +0.015 A 
ENDBRANCH  29  30
ENDBRANCH  28  29
ENDBRANCH  27  28
ENDBRANCH  26  27
ENDBRANCH   6  26
TORSDOF 8
