REMARK  Name = ZINC02338028
REMARK  8 active torsions:
REMARK  status: ('A' for Active; 'I' for Inactive)
REMARK    1  A    between atoms: C_1  and  C_2
REMARK    2  A    between atoms: C_2  and  O_3
REMARK    3  A    between atoms: O_3  and  C_4
REMARK    4  A    between atoms: C_6  and  C_12
REMARK    5  A    between atoms: C_9  and  O_10
REMARK    6  A    between atoms: N_13  and  N_14
REMARK    7  A    between atoms: C_15  and  C_17
REMARK    8  A    between atoms: C_18  and  C_28
REMARK                            x       y       z     vdW  Elec       q    Type
REMARK                         _______ _______ _______ _____ _____    ______ ____
ROOT
ATOM      1  C   UNL     1      -2.452   0.871   0.018  0.00  0.00    +0.177 A 
ATOM      2  C   UNL     1      -3.729   1.420   0.033  0.00  0.00    +0.109 A 
ATOM      3  N   UNL     1      -4.597   0.365   0.025  0.00  0.00    -0.187 N 
ATOM      4  N   UNL     1      -3.815  -0.798   0.016  0.00  0.00    -0.058 NA
ATOM      5  N   UNL     1      -2.573  -0.467   0.012  0.00  0.00    -0.124 NA
ATOM      6  C   UNL     1      -5.994   0.433   0.032  0.00  0.00    +0.241 A 
ATOM      7  C   UNL     1      -6.908  -0.713   0.030  0.00  0.00    +0.206 A 
ATOM      8  N   UNL     1      -8.132  -0.261   0.038  0.00  0.00    -0.032 NA
ATOM      9  O   UNL     1      -8.072   1.155   0.046  0.00  0.00    -0.239 OA
ATOM     10  N   UNL     1      -6.705   1.525   0.047  0.00  0.00    -0.027 NA
ATOM     11  N   UNL     1      -6.535  -2.052   0.020  0.00  0.00    -0.337 N 
ATOM     12  H   UNL     1      -5.596  -2.294   0.014  0.00  0.00    +0.144 HD
ATOM     13  H   UNL     1      -7.214  -2.745   0.019  0.00  0.00    +0.144 HD
ENDROOT
BRANCH   2  14
ATOM     14  C   UNL     1      -4.077   2.855   0.049  0.00  0.00    +0.003 A 
ATOM     15  C   UNL     1      -5.075   3.345  -0.796  0.00  0.00    +0.010 A 
ATOM     16  C   UNL     1      -5.399   4.686  -0.772  0.00  0.00    +0.001 A 
ATOM     17  C   UNL     1      -4.729   5.547   0.080  0.00  0.00    +0.000 A 
ATOM     18  C   UNL     1      -3.736   5.069   0.916  0.00  0.00    +0.001 A 
ATOM     19  C   UNL     1      -3.406   3.730   0.906  0.00  0.00    +0.010 A 
ENDBRANCH   2  14
BRANCH   1  21
ATOM     20  N   UNL     1      -0.011   0.966   0.007  0.00  0.00    -0.202 N 
ATOM     21  C   UNL     1      -1.187   1.624   0.017  0.00  0.00    +0.286 C 
ATOM     22  O   UNL     1      -1.204   2.840   0.023  0.00  0.00    -0.267 OA
ATOM     23  H   UNL     1       0.002  -0.004   0.002  0.00  0.00    +0.178 HD
BRANCH  20  25
ATOM     24  C   UNL     1       2.325   1.049  -0.015  0.00  0.00    +0.138 C 
ATOM     25  N   UNL     1       1.193   1.683  -0.000  0.00  0.00    -0.187 NA
BRANCH  24  28
ATOM     26  C   UNL     1       5.997   1.835  -0.044  0.00  0.00    +0.163 A 
ATOM     27  C   UNL     1       4.812   1.123  -0.032  0.00  0.00    +0.059 A 
ATOM     28  C   UNL     1       3.592   1.804  -0.023  0.00  0.00    -0.001 A 
ATOM     29  C   UNL     1       3.575   3.201  -0.015  0.00  0.00    +0.028 A 
ATOM     30  C   UNL     1       4.761   3.905  -0.022  0.00  0.00    +0.063 A 
ATOM     31  C   UNL     1       5.973   3.228  -0.037  0.00  0.00    +0.173 A 
ATOM     32 BR   UNL     1       4.737   5.795  -0.012  0.00  0.00    -0.046 Br
BRANCH  31  33
ATOM     33  O   UNL     1       7.140   3.926  -0.044  0.00  0.00    -0.503 OA
ATOM     34  H   UNL     1       7.486   4.124   0.837  0.00  0.00    +0.292 HD
ENDBRANCH  31  33
BRANCH  26  35
ATOM     35  O   UNL     1       7.186   1.176  -0.058  0.00  0.00    -0.489 OA
BRANCH  35  37
ATOM     36  C   UNL     1       8.560  -0.812  -0.081  0.00  0.00    +0.048 C 
ATOM     37  C   UNL     1       7.136  -0.252  -0.066  0.00  0.00    +0.226 C 
ENDBRANCH  35  37
ENDBRANCH  26  35
ENDBRANCH  24  28
ENDBRANCH  20  25
ENDBRANCH   1  21
TORSDOF 7
