REMARK  Name = ZINC39529303
REMARK  11 active torsions:
REMARK  status: ('A' for Active; 'I' for Inactive)
REMARK    1  A    between atoms: C_1  and  C_2
REMARK    2  A    between atoms: C_2  and  C_3
REMARK    3  A    between atoms: C_2  and  C_4
REMARK    4  A    between atoms: C_4  and  C_5
REMARK    5  A    between atoms: C_7  and  C_24
REMARK    6  A    between atoms: C_10  and  N_11
REMARK    7  A    between atoms: C_15  and  S_18
REMARK    8  A    between atoms: S_18  and  C_21
REMARK    9  A    between atoms: C_21  and  C_22
REMARK   10  A    between atoms: C_21  and  C_23
REMARK   11  A    between atoms: C_29  and  O_30
REMARK                            x       y       z     vdW  Elec       q    Type
REMARK                         _______ _______ _______ _____ _____    ______ ____
ROOT
ATOM      1  C   UNL     1      -2.125  -0.137  -1.266  0.00  0.00    -0.026 A 
ATOM      2  C   UNL     1      -2.891   1.008  -1.309  0.00  0.00    +0.014 A 
ATOM      3  C   UNL     1      -3.530   1.375  -2.492  0.00  0.00    -0.014 A 
ATOM      4  C   UNL     1      -3.392   0.582  -3.631  0.00  0.00    +0.010 A 
ATOM      5  C   UNL     1      -2.625  -0.563  -3.584  0.00  0.00    +0.024 A 
ATOM      6  C   UNL     1      -1.984  -0.923  -2.404  0.00  0.00    +0.033 A 
ENDROOT
BRANCH   6   7
ATOM      7  N   UNL     1      -1.204  -2.080  -2.360  0.00  0.00    -0.325 N 
ATOM      8  C   UNL     1      -1.796  -3.378  -2.003  0.00  0.00    +0.120 C 
ATOM      9  C   UNL     1      -1.408  -4.402  -3.075  0.00  0.00    +0.101 C 
ATOM     10  N   UNL     1       0.052  -4.408  -3.235  0.00  0.00    -0.293 NA
ATOM     11  C   UNL     1       0.542  -3.109  -3.715  0.00  0.00    +0.215 C 
ATOM     12  C   UNL     1       0.232  -2.034  -2.675  0.00  0.00    +0.147 C 
ATOM     13  H   UNL     1       0.509  -4.671  -2.375  0.00  0.00    +0.124 HD
BRANCH  11  14
ATOM     14  S   UNL     1       2.334  -3.199  -3.983  0.00  0.00    -0.012 S 
ATOM     15  O   UNL     1       2.763  -1.975  -4.563  0.00  0.00    -0.173 OA
ATOM     16  O   UNL     1       2.946  -3.646  -2.781  0.00  0.00    -0.173 OA
BRANCH  14  17
ATOM     17  C   UNL     1       2.488  -4.509  -5.228  0.00  0.00    +0.126 C 
ATOM     18  C   UNL     1       1.722  -4.106  -6.489  0.00  0.00    +0.031 C 
ATOM     19  C   UNL     1       3.965  -4.714  -5.572  0.00  0.00    +0.031 C 
ENDBRANCH  14  17
ENDBRANCH  11  14
ENDBRANCH   6   7
BRANCH   3  20
ATOM     20  C   UNL     1      -4.356   2.606  -2.540  0.00  0.00    +0.024 A 
ATOM     21  C   UNL     1      -5.323   2.838  -1.565  0.00  0.00    +0.012 A 
ATOM     22  C   UNL     1      -6.088   3.986  -1.614  0.00  0.00    +0.001 A 
ATOM     23  C   UNL     1      -5.899   4.907  -2.629  0.00  0.00    +0.004 A 
ATOM     24  C   UNL     1      -4.942   4.686  -3.602  0.00  0.00    +0.046 A 
ATOM     25  C   UNL     1      -4.163   3.541  -3.561  0.00  0.00    +0.125 A 
BRANCH  25  26
ATOM     26  O   UNL     1      -3.218   3.326  -4.513  0.00  0.00    -0.506 OA
ATOM     27  H   UNL     1      -3.542   2.844  -5.287  0.00  0.00    +0.292 HD
ENDBRANCH  25  26
ENDBRANCH   3  20
BRANCH   1  28
ATOM     28  C   UNL     1      -1.433  -0.534   0.013  0.00  0.00    +0.040 C 
BRANCH  28  30
ATOM     29  C   UNL     1      -0.019   1.526   0.010  0.00  0.00    +0.007 C 
ATOM     30  C   UNL     1       0.002  -0.004   0.002  0.00  0.00    -0.013 C 
ATOM     31  C   UNL     1       0.742  -0.511   1.242  0.00  0.00    +0.007 C 
ENDBRANCH  28  30
ENDBRANCH   1  28
TORSDOF 7
