REMARK  Name = ZINC20720693
REMARK  6 active torsions:
REMARK  status: ('A' for Active; 'I' for Inactive)
REMARK    1  A    between atoms: C_1  and  C_2
REMARK    2  A    between atoms: C_2  and  C_3
REMARK    3  A    between atoms: C_3  and  C_5
REMARK    4  A    between atoms: C_3  and  N_6
REMARK    5  A    between atoms: C_7  and  C_9
REMARK    6  A    between atoms: C_16  and  C_25
REMARK                            x       y       z     vdW  Elec       q    Type
REMARK                         _______ _______ _______ _____ _____    ______ ____
ROOT
ATOM      1  C   UNL     1       1.406   3.260  -0.564  0.00  0.00    +0.058 A 
ATOM      2  C   UNL     1       2.660   3.873  -0.569  0.00  0.00    +0.015 A 
ATOM      3  C   UNL     1       3.749   3.199  -0.060  0.00  0.00    +0.001 A 
ATOM      4  C   UNL     1       3.574   1.963   0.486  0.00  0.00    +0.006 A 
ATOM      5  C   UNL     1       2.344   1.321   0.489  0.00  0.00    -0.019 A 
ATOM      6  C   UNL     1       1.259   1.961  -0.040  0.00  0.00    +0.044 A 
ATOM      7  N   UNL     1      -0.005   1.393  -0.055  0.00  0.00    -0.336 N 
ATOM      8  C   UNL     1       0.045  -0.070  -0.080  0.00  0.00    +0.107 C 
ATOM      9  C   UNL     1       0.821  -0.573   1.140  0.00  0.00    +0.029 C 
ATOM     10  C   UNL     1       2.277  -0.070   1.048  0.00  0.00    +0.049 C 
ATOM     11  C   UNL     1       2.937  -1.085   0.106  0.00  0.00    -0.023 C 
ATOM     12  C   UNL     1       2.246  -2.196   0.065  0.00  0.00    -0.030 C 
ATOM     13  C   UNL     1       1.034  -2.103   0.972  0.00  0.00    +0.033 C 
ATOM     14  H   UNL     1      -0.976   1.910  -0.050  0.00  0.00    +0.147 HD
ENDROOT
BRANCH   8  15
ATOM     15  C   UNL     1      -1.357  -0.621  -0.046  0.00  0.00    -0.002 A 
ATOM     16  C   UNL     1      -1.847  -1.603  -0.819  0.00  0.00    +0.089 A 
ATOM     17  N   UNL     1      -3.159  -1.834  -0.503  0.00  0.00    -0.360 N 
ATOM     18  H   UNL     1      -3.725  -2.610  -1.040  0.00  0.00    +0.165 HD
ATOM     19  C   UNL     1      -3.554  -0.985   0.506  0.00  0.00    +0.047 A 
ATOM     20  C   UNL     1      -2.441  -0.192   0.841  0.00  0.00    +0.005 A 
ATOM     21  C   UNL     1      -2.548   0.768   1.849  0.00  0.00    +0.010 A 
ATOM     22  C   UNL     1      -3.733   0.929   2.509  0.00  0.00    +0.001 A 
ATOM     23  C   UNL     1      -4.833   0.147   2.185  0.00  0.00    +0.002 A 
ATOM     24  C   UNL     1      -4.752  -0.800   1.188  0.00  0.00    +0.026 A 
ENDBRANCH   8  15
BRANCH   1  26
ATOM     25  N   UNL     1       0.396   5.159  -1.727  0.00  0.00    -0.309 N 
ATOM     26  C   UNL     1       0.235   3.974  -1.105  0.00  0.00    +0.246 C 
ATOM     27  O   UNL     1      -0.876   3.493  -0.991  0.00  0.00    -0.270 OA
ATOM     28  H   UNL     1       1.401   5.594  -1.830  0.00  0.00    +0.149 HD
BRANCH  25  29
ATOM     29  C   UNL     1      -0.768   5.867  -2.265  0.00  0.00    +0.070 C 
ATOM     30  C   UNL     1      -1.082   5.341  -3.667  0.00  0.00    +0.028 C 
BRANCH  29  32
ATOM     31  C   UNL     1      -0.272   7.917  -0.925  0.00  0.00    +0.005 C 
ATOM     32  C   UNL     1      -0.464   7.365  -2.339  0.00  0.00    +0.018 C 
ENDBRANCH  29  32
ENDBRANCH  25  29
ENDBRANCH   1  26
TORSDOF 4
