REMARK  Name = ZINC58952382
REMARK  9 active torsions:
REMARK  status: ('A' for Active; 'I' for Inactive)
REMARK    1  A    between atoms: C_1  and  C_2
REMARK    2  A    between atoms: N_7  and  C_9
REMARK    3  A    between atoms: C_9  and  C_10
REMARK    4  A    between atoms: C_15  and  C_16
REMARK    5  A    between atoms: C_16  and  N_17
REMARK    6  A    between atoms: C_18  and  C_20
REMARK    7  A    between atoms: C_20  and  N_21
REMARK    8  A    between atoms: C_24  and  C_28
REMARK    9  A    between atoms: C_24  and  C_29
REMARK                            x       y       z     vdW  Elec       q    Type
REMARK                         _______ _______ _______ _____ _____    ______ ____
ROOT
ATOM      1  N   UNL     1       4.527  -3.586   1.870  0.00  0.00    -0.310 N 
ATOM      2  C   UNL     1       5.645  -2.996   1.403  0.00  0.00    +0.231 C 
ATOM      3  O   UNL     1       5.738  -2.719   0.226  0.00  0.00    -0.274 OA
ATOM      4  H   UNL     1       4.453  -3.807   2.812  0.00  0.00    +0.149 HD
ENDROOT
BRANCH   1   5
ATOM      5  C   UNL     1       3.424  -3.893   0.957  0.00  0.00    +0.139 C 
BRANCH   5  11
ATOM      6  C   UNL     1       1.396  -3.548   2.383  0.00  0.00    -0.059 A 
ATOM      7  C   UNL     1       0.319  -4.034   3.100  0.00  0.00    +0.002 A 
ATOM      8  C   UNL     1       0.102  -5.397   3.181  0.00  0.00    +0.000 A 
ATOM      9  C   UNL     1       0.961  -6.273   2.545  0.00  0.00    +0.000 A 
ATOM     10  C   UNL     1       2.038  -5.787   1.828  0.00  0.00    +0.005 A 
ATOM     11  C   UNL     1       2.253  -4.423   1.743  0.00  0.00    -0.029 A 
BRANCH   6  12
ATOM     12  C   UNL     1       1.633  -2.062   2.294  0.00  0.00    -0.043 C 
BRANCH  12  18
ATOM     13  C   UNL     1       4.454   1.618   3.864  0.00  0.00    +0.005 C 
ATOM     14  C   UNL     1       4.105   0.141   4.060  0.00  0.00    -0.031 C 
ATOM     15  C   UNL     1       3.630  -0.086   5.498  0.00  0.00    -0.001 C 
ATOM     16  C   UNL     1       3.209  -1.549   5.661  0.00  0.00    -0.018 C 
ATOM     17  C   UNL     1       2.126  -1.880   4.633  0.00  0.00    -0.078 C 
ATOM     18  N   UNL     1       2.650  -1.669   3.279  0.00  0.00    +0.383 N 
ATOM     19  C   UNL     1       2.989  -0.253   3.090  0.00  0.00    -0.075 C 
ATOM     20  H   UNL     1       3.477  -2.231   3.147  0.00  0.00    -0.081 HD
ENDBRANCH  12  18
ENDBRANCH   6  12
ENDBRANCH   5  11
ENDBRANCH   1   5
BRANCH   2  21
ATOM     21  C   UNL     1       6.780  -2.680   2.343  0.00  0.00    +0.213 C 
BRANCH  21  22
ATOM     22  N   UNL     1       7.870  -2.047   1.597  0.00  0.00    -0.215 N 
ATOM     23  C   UNL     1       8.876  -2.723   1.006  0.00  0.00    +0.251 C 
ATOM     24  O   UNL     1       9.042  -3.923   0.993  0.00  0.00    -0.272 OA
ATOM     25  C   UNL     1       9.754  -1.669   0.362  0.00  0.00    +0.135 C 
ATOM     26  N   UNL     1       9.078  -0.403   0.695  0.00  0.00    -0.281 N 
ATOM     27  C   UNL     1       7.987  -0.727   1.413  0.00  0.00    +0.310 C 
ATOM     28  O   UNL     1       7.198   0.089   1.848  0.00  0.00    -0.252 OA
ATOM     29  C   UNL     1      11.162  -1.702   0.961  0.00  0.00    +0.047 C 
ATOM     30  H   UNL     1       9.363   0.490   0.444  0.00  0.00    +0.152 HD
BRANCH  25  31
ATOM     31  C   UNL     1       9.808  -1.864  -1.131  0.00  0.00    -0.015 A 
ATOM     32  C   UNL     1       9.674  -3.131  -1.668  0.00  0.00    +0.009 A 
ATOM     33  C   UNL     1       9.722  -3.311  -3.037  0.00  0.00    +0.039 A 
ATOM     34  C   UNL     1       9.905  -2.222  -3.872  0.00  0.00    +0.123 A 
ATOM     35  C   UNL     1      10.039  -0.953  -3.334  0.00  0.00    +0.039 A 
ATOM     36  C   UNL     1       9.985  -0.775  -1.964  0.00  0.00    +0.009 A 
ATOM     37  F   UNL     1       9.952  -2.397  -5.211  0.00  0.00    -0.205 F 
ENDBRANCH  25  31
ENDBRANCH  21  22
ENDBRANCH   2  21
TORSDOF 7
