REMARK  Name = ZINC22846777
REMARK  10 active torsions:
REMARK  status: ('A' for Active; 'I' for Inactive)
REMARK    1  A    between atoms: C_1  and  C_2
REMARK    2  A    between atoms: C_2  and  C_3
REMARK    3  A    between atoms: C_3  and  C_4
REMARK    4  A    between atoms: C_4  and  N_5
REMARK    5  A    between atoms: C_6  and  N_36
REMARK    6  A    between atoms: C_7  and  N_14
REMARK    7  A    between atoms: N_14  and  C_15
REMARK    8  A    between atoms: C_15  and  C_16
REMARK    9  A    between atoms: C_22  and  C_24
REMARK   10  A    between atoms: C_24  and  N_25
REMARK                            x       y       z     vdW  Elec       q    Type
REMARK                         _______ _______ _______ _____ _____    ______ ____
ROOT
ATOM      1  N   UNL     1       2.249   3.570   0.098  0.00  0.00    -0.259 N 
ATOM      2  C   UNL     1       2.568   4.878   0.191  0.00  0.00    +0.238 C 
ATOM      3  O   UNL     1       1.790   5.721  -0.204  0.00  0.00    -0.274 OA
ENDROOT
BRANCH   1   6
ATOM      4  N   UNL     1      -1.158   2.199  -0.009  0.00  0.00    -0.280 N 
ATOM      5  C   UNL     1       0.078   2.562   0.475  0.00  0.00    +0.127 A 
ATOM      6  C   UNL     1       0.974   3.186  -0.368  0.00  0.00    +0.140 A 
ATOM      7  C   UNL     1       0.595   3.433  -1.701  0.00  0.00    +0.277 A 
ATOM      8  O   UNL     1       1.368   3.982  -2.467  0.00  0.00    -0.266 OA
ATOM      9  N   UNL     1      -0.628   3.057  -2.124  0.00  0.00    -0.273 N 
ATOM     10  H   UNL     1      -0.930   3.241  -3.166  0.00  0.00    +0.173 HD
ATOM     11  C   UNL     1      -1.490   2.455  -1.287  0.00  0.00    +0.331 A 
ATOM     12  O   UNL     1      -2.590   2.130  -1.694  0.00  0.00    -0.246 OA
BRANCH   5  13
ATOM     13  N   UNL     1       0.415   2.306   1.782  0.00  0.00    -0.343 N 
ATOM     14  H   UNL     1       1.405   2.599   2.162  0.00  0.00    +0.144 HD
ATOM     15  H   UNL     1      -0.304   1.808   2.449  0.00  0.00    +0.144 HD
ENDBRANCH   5  13
BRANCH   4  16
ATOM     16  C   UNL     1      -2.120   1.536   0.876  0.00  0.00    +0.128 C 
BRANCH  16  17
ATOM     17  C   UNL     1      -2.984   2.591   1.571  0.00  0.00    +0.021 C 
BRANCH  17  19
ATOM     18  C   UNL     1      -4.852   2.952   3.190  0.00  0.00    +0.004 C 
ATOM     19  C   UNL     1      -3.988   1.898   2.494  0.00  0.00    -0.002 C 
ENDBRANCH  17  19
ENDBRANCH  16  17
ENDBRANCH   4  16
ENDBRANCH   1   6
BRANCH   1  20
ATOM     20  C   UNL     1       3.228   2.549   0.481  0.00  0.00    +0.149 C 
BRANCH  20  21
ATOM     21  C   UNL     1       3.986   2.097  -0.740  0.00  0.00    -0.030 A 
ATOM     22  C   UNL     1       3.493   1.067  -1.518  0.00  0.00    +0.005 A 
ATOM     23  C   UNL     1       4.186   0.655  -2.642  0.00  0.00    +0.000 A 
ATOM     24  C   UNL     1       5.378   1.268  -2.980  0.00  0.00    +0.000 A 
ATOM     25  C   UNL     1       5.875   2.294  -2.199  0.00  0.00    +0.000 A 
ATOM     26  C   UNL     1       5.179   2.709  -1.079  0.00  0.00    +0.005 A 
ENDBRANCH  20  21
ENDBRANCH   1  20
BRANCH   2  27
ATOM     27  C   UNL     1       3.890   5.291   0.784  0.00  0.00    +0.201 C 
BRANCH  27  28
ATOM     28  N   UNL     1       3.891   6.742   1.016  0.00  0.00    -0.319 N 
ATOM     29  C   UNL     1       2.667   7.164   1.700  0.00  0.00    +0.106 C 
ATOM     30  C   UNL     1       2.736   8.678   1.939  0.00  0.00    +0.024 C 
ATOM     31  C   UNL     1       3.835   8.942   2.971  0.00  0.00    +0.038 C 
ATOM     32  C   UNL     1       5.079   8.175   2.596  0.00  0.00    -0.023 A 
ATOM     33  C   UNL     1       5.054   7.142   1.677  0.00  0.00    +0.069 A 
ATOM     34  C   UNL     1       6.236   6.457   1.382  0.00  0.00    +0.145 A 
ATOM     35  C   UNL     1       7.419   6.811   1.999  0.00  0.00    +0.040 A 
ATOM     36  C   UNL     1       7.438   7.848   2.913  0.00  0.00    +0.003 A 
ATOM     37  C   UNL     1       6.272   8.526   3.208  0.00  0.00    +0.005 A 
ATOM     38  F   UNL     1       6.220   5.444   0.489  0.00  0.00    -0.204 F 
ENDBRANCH  27  28
ENDBRANCH   2  27
TORSDOF 9
