REMARK  Name = ZINC63494301
REMARK  5 active torsions:
REMARK  status: ('A' for Active; 'I' for Inactive)
REMARK    1  A    between atoms: C_1  and  C_2
REMARK    2  A    between atoms: C_11  and  C_17
REMARK    3  A    between atoms: N_19  and  C_20
REMARK    4  A    between atoms: N_19  and  C_23
REMARK    5  A    between atoms: C_20  and  C_21
REMARK                            x       y       z     vdW  Elec       q    Type
REMARK                         _______ _______ _______ _____ _____    ______ ____
ROOT
ATOM      1  C   UNL     1      -0.132   1.616   0.127  0.00  0.00    +0.044 C 
ATOM      2  C   UNL     1      -0.072   0.110   0.086  0.00  0.00    -0.050 A 
ATOM      3  C   UNL     1      -0.045  -0.544  -1.141  0.00  0.00    +0.005 A 
ATOM      4  C   UNL     1       0.009  -1.905  -1.208  0.00  0.00    +0.024 A 
ATOM      5  C   UNL     1       0.038  -2.667  -0.029  0.00  0.00    +0.042 A 
ATOM      6  N   UNL     1       0.092  -4.004  -0.096  0.00  0.00    -0.281 N 
ATOM      7  C   UNL     1       0.122  -4.793   0.959  0.00  0.00    +0.249 C 
ATOM      8  O   UNL     1       0.171  -6.004   0.808  0.00  0.00    -0.270 OA
ATOM      9  C   UNL     1       0.099  -4.216   2.341  0.00  0.00    +0.049 C 
ATOM     10  C   UNL     1       0.125  -4.889   3.508  0.00  0.00    +0.011 C 
ATOM     11  C   UNL     1       0.091  -4.027   4.750  0.00  0.00    +0.161 C 
ATOM     12  S   UNL     1       0.024  -2.341   4.028  0.00  0.00    -0.107 S 
ATOM     13  C   UNL     1       0.040  -2.748   2.407  0.00  0.00    +0.030 C 
ATOM     14  C   UNL     1       0.011  -1.998   1.220  0.00  0.00    +0.011 A 
ATOM     15  C   UNL     1      -0.040  -0.595   1.253  0.00  0.00    +0.014 A 
ATOM     16  H   UNL     1       0.109  -4.416  -0.974  0.00  0.00    +0.155 HD
ENDROOT
BRANCH  11  17
ATOM     17  C   UNL     1       1.340  -4.214   5.572  0.00  0.00    +0.237 C 
ATOM     18  O   UNL     1       2.404  -4.408   5.023  0.00  0.00    -0.274 OA
ATOM     19  N   UNL     1       1.275  -4.167   6.918  0.00  0.00    -0.266 N 
BRANCH  19  20
ATOM     20  C   UNL     1       2.409  -4.457   7.684  0.00  0.00    +0.037 A 
ATOM     21  C   UNL     1       3.062  -5.673   7.528  0.00  0.00    +0.023 A 
ATOM     22  C   UNL     1       4.181  -5.956   8.286  0.00  0.00    +0.002 A 
ATOM     23  C   UNL     1       4.653  -5.030   9.198  0.00  0.00    +0.000 A 
ATOM     24  C   UNL     1       4.005  -3.818   9.356  0.00  0.00    +0.002 A 
ATOM     25  C   UNL     1       2.889  -3.527   8.597  0.00  0.00    +0.023 A 
ENDBRANCH  19  20
BRANCH  19  26
ATOM     26  C   UNL     1       0.017  -3.811   7.578  0.00  0.00    +0.140 C 
BRANCH  26  27
ATOM     27  C   UNL     1      -0.786  -5.060   7.835  0.00  0.00    -0.015 C 
ATOM     28  C   UNL     1      -1.196  -5.337   9.048  0.00  0.00    +0.005 C 
ENDBRANCH  26  27
ENDBRANCH  19  26
ENDBRANCH  11  17
TORSDOF 4
