REMARK  Name = ZINC13050790
REMARK  7 active torsions:
REMARK  status: ('A' for Active; 'I' for Inactive)
REMARK    1  A    between atoms: C_4  and  C_7
REMARK    2  A    between atoms: C_10  and  C_12
REMARK    3  A    between atoms: C_12  and  S_13
REMARK    4  A    between atoms: S_13  and  C_14
REMARK    5  A    between atoms: C_18  and  C_31
REMARK    6  A    between atoms: N_24  and  C_25
REMARK    7  A    between atoms: C_25  and  C_26
REMARK                            x       y       z     vdW  Elec       q    Type
REMARK                         _______ _______ _______ _____ _____    ______ ____
ROOT
ATOM      1  C   UNL     1       2.001   2.243   1.181  0.00  0.00    +0.173 A 
ATOM      2  N   UNL     1       3.230   2.691   1.248  0.00  0.00    -0.223 NA
ATOM      3  C   UNL     1       3.946   2.965   0.132  0.00  0.00    +0.080 A 
ATOM      4  C   UNL     1       5.256   3.448   0.205  0.00  0.00    +0.043 A 
ATOM      5  C   UNL     1       5.952   3.714  -0.967  0.00  0.00    +0.065 A 
ATOM      6  C   UNL     1       5.351   3.503  -2.215  0.00  0.00    +0.016 A 
ATOM      7  C   UNL     1       4.072   3.032  -2.299  0.00  0.00    +0.016 A 
ATOM      8  C   UNL     1       3.354   2.758  -1.135  0.00  0.00    +0.065 A 
ATOM      9  C   UNL     1       1.974   2.248  -1.180  0.00  0.00    +0.263 A 
ATOM     10  O   UNL     1       1.410   2.049  -2.239  0.00  0.00    -0.267 OA
ATOM     11  N   UNL     1       1.356   2.010  -0.000  0.00  0.00    -0.280 N 
ENDROOT
BRANCH   5  12
ATOM     12  C   UNL     1       7.339   4.225  -0.898  0.00  0.00    +0.387 C 
ATOM     13  O   UNL     1       7.864   4.410   0.181  0.00  0.00    -0.241 OA
ATOM     14  O   UNL     1       8.018   4.486  -2.031  0.00  0.00    -0.241 OA
ENDBRANCH   5  12
BRANCH   1  15
ATOM     15  S   UNL     1       1.142   1.921   2.685  0.00  0.00    -0.078 S 
BRANCH  15  16
ATOM     16  C   UNL     1       2.417   2.387   3.882  0.00  0.00    +0.175 C 
BRANCH  16  20
ATOM     17  C   UNL     1       0.955   2.503   7.195  0.00  0.00    +0.248 A 
ATOM     18  N   UNL     1       1.429   1.282   7.135  0.00  0.00    -0.107 NA
ATOM     19  N   UNL     1       1.987   1.098   5.990  0.00  0.00    -0.111 NA
ATOM     20  C   UNL     1       1.891   2.187   5.280  0.00  0.00    +0.228 A 
ATOM     21  O   UNL     1       1.243   3.102   6.022  0.00  0.00    -0.419 OA
BRANCH  17  25
ATOM     22  C   UNL     1      -1.094   4.253  10.479  0.00  0.00    +0.000 A 
ATOM     23  C   UNL     1      -0.650   2.946  10.562  0.00  0.00    +0.001 A 
ATOM     24  C   UNL     1       0.016   2.371   9.498  0.00  0.00    +0.013 A 
ATOM     25  C   UNL     1       0.241   3.112   8.338  0.00  0.00    +0.038 A 
ATOM     26  C   UNL     1      -0.204   4.433   8.262  0.00  0.00    +0.013 A 
ATOM     27  C   UNL     1      -0.875   4.993   9.330  0.00  0.00    +0.001 A 
ENDBRANCH  17  25
ENDBRANCH  16  20
ENDBRANCH  15  16
ENDBRANCH   1  15
BRANCH  11  28
ATOM     28  C   UNL     1      -0.018   1.503   0.010  0.00  0.00    +0.201 C 
BRANCH  28  29
ATOM     29  C   UNL     1       0.002  -0.004   0.002  0.00  0.00    +0.125 A 
ATOM     30  C   UNL     1       0.029  -0.796   1.089  0.00  0.00    +0.046 A 
ATOM     31  C   UNL     1       0.037  -2.131   0.622  0.00  0.00    +0.041 A 
ATOM     32  C   UNL     1       0.024  -2.074  -0.722  0.00  0.00    +0.195 A 
ATOM     33  O   UNL     1       0.003  -0.783  -1.092  0.00  0.00    -0.466 OA
ENDBRANCH  28  29
ENDBRANCH  11  28
TORSDOF 7
