REMARK  Name = ZINC39362934
REMARK  7 active torsions:
REMARK  status: ('A' for Active; 'I' for Inactive)
REMARK    1  A    between atoms: C_3  and  C_11
REMARK    2  A    between atoms: C_5  and  C_7
REMARK    3  A    between atoms: C_11  and  S_12
REMARK    4  A    between atoms: S_12  and  C_13
REMARK    5  A    between atoms: C_16  and  C_26
REMARK    6  A    between atoms: N_18  and  C_19
REMARK    7  A    between atoms: C_26  and  C_27
REMARK                            x       y       z     vdW  Elec       q    Type
REMARK                         _______ _______ _______ _____ _____    ______ ____
ROOT
ATOM      1  C   UNL     1       5.731   3.354   1.505  0.00  0.00    +0.180 C 
ATOM      2  N   UNL     1       6.242   3.688   0.369  0.00  0.00    -0.162 NA
ATOM      3  N   UNL     1       7.417   4.432   0.534  0.00  0.00    -0.246 N 
ATOM      4  C   UNL     1       7.626   4.552   1.987  0.00  0.00    +0.187 C 
ATOM      5  N   UNL     1       6.483   3.829   2.570  0.00  0.00    -0.258 N 
ATOM      6  H   UNL     1       7.980   4.795  -0.168  0.00  0.00    +0.170 HD
ENDROOT
BRANCH   5   7
ATOM      7  C   UNL     1       6.211   3.653   3.931  0.00  0.00    +0.038 A 
ATOM      8  C   UNL     1       7.061   2.886   4.716  0.00  0.00    +0.026 A 
ATOM      9  C   UNL     1       6.791   2.714   6.060  0.00  0.00    +0.040 A 
ATOM     10  C   UNL     1       5.672   3.305   6.623  0.00  0.00    +0.124 A 
ATOM     11  C   UNL     1       4.823   4.070   5.842  0.00  0.00    +0.040 A 
ATOM     12  C   UNL     1       5.093   4.250   4.499  0.00  0.00    +0.026 A 
ATOM     13  F   UNL     1       5.409   3.135   7.937  0.00  0.00    -0.205 F 
ENDBRANCH   5   7
BRANCH   1  14
ATOM     14  S   UNL     1       4.251   2.414   1.684  0.00  0.00    -0.084 S 
BRANCH  14  15
ATOM     15  C   UNL     1       3.730   2.088  -0.023  0.00  0.00    +0.112 C 
BRANCH  15  18
ATOM     16  C   UNL     1       0.065   1.179   0.000  0.00  0.00    +0.001 A 
ATOM     17  C   UNL     1       1.233   1.920  -0.007  0.00  0.00    +0.004 A 
ATOM     18  C   UNL     1       2.458   1.280  -0.014  0.00  0.00    -0.037 A 
ATOM     19  C   UNL     1       2.516  -0.101  -0.013  0.00  0.00    +0.016 A 
ATOM     20  C   UNL     1       1.349  -0.842  -0.005  0.00  0.00    +0.055 A 
ATOM     21  C   UNL     1       0.124  -0.202   0.001  0.00  0.00    +0.012 A 
BRANCH  20  22
ATOM     22  C   UNL     1       1.412  -2.348  -0.005  0.00  0.00    +0.417 C 
ATOM     23  F   UNL     1       1.441  -2.813   1.314  0.00  0.00    -0.166 F 
ATOM     24  F   UNL     1       0.286  -2.862  -0.656  0.00  0.00    -0.166 F 
ATOM     25  F   UNL     1       2.569  -2.766  -0.672  0.00  0.00    -0.166 F 
ENDBRANCH  20  22
ENDBRANCH  15  18
ENDBRANCH  14  15
ENDBRANCH   1  14
BRANCH   4  26
ATOM     26  C   UNL     1       7.603   6.021   2.413  0.00  0.00    +0.097 C 
BRANCH  26  27
ATOM     27  C   UNL     1       8.722   6.761   1.726  0.00  0.00    +0.029 A 
ATOM     28  N   UNL     1       9.981   6.757   2.262  0.00  0.00    -0.311 N 
ATOM     29  C   UNL     1      10.986   7.414   1.655  0.00  0.00    +0.327 A 
ATOM     30  O   UNL     1      12.097   7.397   2.149  0.00  0.00    -0.247 OA
ATOM     31  N   UNL     1      10.779   8.089   0.509  0.00  0.00    -0.275 N 
ATOM     32  C   UNL     1       9.553   8.118  -0.051  0.00  0.00    +0.254 A 
ATOM     33  O   UNL     1       9.365   8.729  -1.087  0.00  0.00    -0.268 OA
ATOM     34  C   UNL     1       8.487   7.427   0.575  0.00  0.00    +0.091 A 
ATOM     35  H   UNL     1      11.515   8.558   0.085  0.00  0.00    +0.173 HD
ATOM     36  H   UNL     1      10.150   6.276   3.087  0.00  0.00    +0.170 HD
ENDBRANCH  26  27
ENDBRANCH   4  26
TORSDOF 7
