REMARK  Name = ZINC63351189
REMARK  5 active torsions:
REMARK  status: ('A' for Active; 'I' for Inactive)
REMARK    1  A    between atoms: C_1  and  C_2
REMARK    2  A    between atoms: C_2  and  C_3
REMARK    3  A    between atoms: C_2  and  C_4
REMARK    4  A    between atoms: C_7  and  N_10
REMARK    5  A    between atoms: C_13  and  C_20
REMARK                            x       y       z     vdW  Elec       q    Type
REMARK                         _______ _______ _______ _____ _____    ______ ____
ROOT
ATOM      1  N   UNL     1       2.624  -1.891  -4.666  0.00  0.00    -0.229 N 
ATOM      2  C   UNL     1       3.780  -2.576  -4.553  0.00  0.00    +0.270 A 
ATOM      3  O   UNL     1       4.225  -2.852  -3.453  0.00  0.00    -0.267 OA
ATOM      4  C   UNL     1       4.468  -2.970  -5.714  0.00  0.00    +0.101 A 
ATOM      5  C   UNL     1       3.949  -2.649  -6.933  0.00  0.00    +0.263 A 
ATOM      6  N   UNL     1       2.770  -1.951  -7.003  0.00  0.00    -0.274 N 
ATOM      7  H   UNL     1       2.397  -1.721  -7.868  0.00  0.00    +0.173 HD
ATOM      8  C   UNL     1       2.126  -1.589  -5.878  0.00  0.00    +0.337 A 
ATOM      9  O   UNL     1       1.079  -0.975  -5.959  0.00  0.00    -0.246 OA
ATOM     10  O   UNL     1       4.590  -3.015  -8.063  0.00  0.00    -0.267 OA
ENDROOT
BRANCH   4  11
ATOM     11  C   UNL     1       5.763  -3.735  -5.612  0.00  0.00    +0.121 C 
ATOM     12  C   UNL     1       6.862  -2.994  -6.375  0.00  0.00    +0.128 C 
ATOM     13  C   UNL     1       6.468  -3.044  -7.847  0.00  0.00    -0.035 C 
ATOM     14  C   UNL     1       6.467  -1.790  -8.278  0.00  0.00    -0.001 A 
ATOM     15  C   UNL     1       6.252  -1.212  -9.615  0.00  0.00    +0.010 A 
ATOM     16  C   UNL     1       6.309   0.143  -9.698  0.00  0.00    +0.001 A 
ATOM     17  C   UNL     1       6.553   0.972  -8.598  0.00  0.00    +0.002 A 
ATOM     18  C   UNL     1       6.767   0.526  -7.335  0.00  0.00    +0.026 A 
ATOM     19  C   UNL     1       6.739  -0.882  -7.122  0.00  0.00    +0.043 A 
ATOM     20  N   UNL     1       6.938  -1.578  -6.019  0.00  0.00    -0.376 N 
ATOM     21  C   UNL     1       6.080  -4.339  -8.519  0.00  0.00    +0.048 C 
ATOM     22  C   UNL     1       5.070  -5.024  -7.581  0.00  0.00    +0.086 C 
ATOM     23  N   UNL     1       5.599  -5.068  -6.214  0.00  0.00    -0.307 NA
ATOM     24  H   UNL     1       6.462  -5.590  -6.177  0.00  0.00    +0.123 HD
ATOM     25  H   UNL     1       7.100  -1.224  -5.130  0.00  0.00    +0.160 HD
ENDBRANCH   4  11
BRANCH   1  29
ATOM     26  C   UNL     1       0.573  -0.719  -1.232  0.00  0.00    -0.045 A 
ATOM     27  C   UNL     1       0.305  -1.945  -1.811  0.00  0.00    +0.006 A 
ATOM     28  C   UNL     1       0.983  -2.337  -2.949  0.00  0.00    +0.027 A 
ATOM     29  C   UNL     1       1.935  -1.497  -3.512  0.00  0.00    +0.054 A 
ATOM     30  C   UNL     1       2.201  -0.266  -2.929  0.00  0.00    +0.027 A 
ATOM     31  C   UNL     1       1.517   0.122  -1.793  0.00  0.00    +0.006 A 
BRANCH  26  33
ATOM     32  C   UNL     1      -1.669  -0.252  -0.283  0.00  0.00    +0.012 C 
ATOM     33  C   UNL     1      -0.168  -0.295   0.009  0.00  0.00    +0.013 C 
ATOM     34  C   UNL     1       0.104  -1.296   1.133  0.00  0.00    +0.012 C 
ENDBRANCH  26  33
ENDBRANCH   1  29
TORSDOF 3
