REMARK  Name = ZINC36590038
REMARK  13 active torsions:
REMARK  status: ('A' for Active; 'I' for Inactive)
REMARK    1  A    between atoms: C_1  and  C_2
REMARK    2  A    between atoms: C_5  and  S_8
REMARK    3  A    between atoms: S_8  and  C_11
REMARK    4  A    between atoms: C_11  and  N_12
REMARK    5  A    between atoms: C_13  and  C_15
REMARK    6  A    between atoms: C_15  and  C_17
REMARK    7  A    between atoms: C_15  and  N_27
REMARK    8  A    between atoms: C_20  and  C_23
REMARK    9  A    between atoms: N_27  and  C_32
REMARK   10  A    between atoms: C_28  and  C_30
REMARK   11  A    between atoms: C_32  and  C_33
REMARK   12  A    between atoms: C_32  and  C_34
REMARK   13  A    between atoms: C_32  and  C_35
REMARK                            x       y       z     vdW  Elec       q    Type
REMARK                         _______ _______ _______ _____ _____    ______ ____
ROOT
ATOM      1  C   UNL     1       2.970  -5.141   3.895  0.00  0.00    +0.193 C 
ENDROOT
BRANCH   1   2
ATOM      2  C   UNL     1       1.488  -5.298   3.672  0.00  0.00    -0.018 A 
ATOM      3  C   UNL     1       0.986  -6.486   3.173  0.00  0.00    +0.006 A 
ATOM      4  C   UNL     1      -0.373  -6.629   2.969  0.00  0.00    +0.013 A 
ATOM      5  C   UNL     1      -1.231  -5.586   3.264  0.00  0.00    +0.055 A 
ATOM      6  C   UNL     1      -0.729  -4.399   3.764  0.00  0.00    +0.013 A 
ATOM      7  C   UNL     1       0.630  -4.257   3.972  0.00  0.00    +0.006 A 
BRANCH   5   8
ATOM      8  C   UNL     1      -2.713  -5.743   3.040  0.00  0.00    +0.417 C 
ATOM      9  F   UNL     1      -3.309  -6.251   4.200  0.00  0.00    -0.166 F 
ATOM     10  F   UNL     1      -3.273  -4.497   2.736  0.00  0.00    -0.166 F 
ATOM     11  F   UNL     1      -2.934  -6.625   1.977  0.00  0.00    -0.166 F 
ENDBRANCH   5   8
ENDBRANCH   1   2
BRANCH   1  13
ATOM     12  N   UNL     1       4.837  -3.935   2.808  0.00  0.00    -0.294 N 
ATOM     13  C   UNL     1       3.580  -4.416   2.724  0.00  0.00    +0.239 C 
ATOM     14  O   UNL     1       2.941  -4.265   1.704  0.00  0.00    -0.273 OA
ATOM     15  H   UNL     1       5.348  -4.056   3.624  0.00  0.00    +0.150 HD
BRANCH  12  16
ATOM     16  C   UNL     1       5.430  -3.231   1.669  0.00  0.00    +0.278 C 
BRANCH  16  17
ATOM     17  S   UNL     1       5.195  -1.444   1.875  0.00  0.00    +0.013 S 
ATOM     18  O   UNL     1       3.848  -1.165   2.235  0.00  0.00    -0.168 OA
ATOM     19  O   UNL     1       5.820  -0.742   0.810  0.00  0.00    -0.168 OA
BRANCH  17  24
ATOM     20  C   UNL     1       8.421  -0.005   6.767  0.00  0.00    +0.044 C 
ATOM     21  C   UNL     1       7.615  -0.365   5.545  0.00  0.00    -0.050 A 
ATOM     22  C   UNL     1       8.202  -0.325   4.294  0.00  0.00    +0.005 A 
ATOM     23  C   UNL     1       7.463  -0.655   3.174  0.00  0.00    +0.027 A 
ATOM     24  C   UNL     1       6.137  -1.024   3.304  0.00  0.00    +0.090 A 
ATOM     25  C   UNL     1       5.551  -1.065   4.555  0.00  0.00    +0.027 A 
ATOM     26  C   UNL     1       6.291  -0.740   5.676  0.00  0.00    +0.005 A 
ENDBRANCH  17  24
ENDBRANCH  16  17
ENDBRANCH  12  16
ENDBRANCH   1  13
BRANCH   1  27
ATOM     27  N   UNL     1       3.587  -6.464   4.026  0.00  0.00    -0.280 N 
ATOM     28  C   UNL     1       3.630  -7.295   2.966  0.00  0.00    +0.232 C 
ATOM     29  O   UNL     1       4.104  -8.405   3.085  0.00  0.00    -0.274 OA
BRANCH  27  30
ATOM     30  C   UNL     1       4.157  -6.882   5.309  0.00  0.00    +0.030 C 
ATOM     31  C   UNL     1       4.219  -5.682   6.255  0.00  0.00    +0.031 C 
ATOM     32  C   UNL     1       3.279  -7.973   5.926  0.00  0.00    +0.031 C 
ATOM     33  C   UNL     1       5.569  -7.429   5.086  0.00  0.00    +0.031 C 
ENDBRANCH  27  30
BRANCH  28  34
ATOM     34  C   UNL     1       3.088  -6.846   1.633  0.00  0.00    +0.204 C 
ATOM     35 CL   UNL     1       2.883  -8.276   0.555  0.00  0.00    -0.116 Cl
ENDBRANCH  28  34
ENDBRANCH   1  27
TORSDOF 9
