REMARK  Name = ZINC19973203
REMARK  14 active torsions:
REMARK  status: ('A' for Active; 'I' for Inactive)
REMARK    1  A    between atoms: C_1  and  C_2
REMARK    2  A    between atoms: C_2  and  C_3
REMARK    3  A    between atoms: C_3  and  C_4
REMARK    4  A    between atoms: C_3  and  C_5
REMARK    5  A    between atoms: C_3  and  N_6
REMARK    6  A    between atoms: C_7  and  C_11
REMARK    7  A    between atoms: C_11  and  C_13
REMARK    8  A    between atoms: C_11  and  N_27
REMARK    9  A    between atoms: C_16  and  C_26
REMARK   10  A    between atoms: C_18  and  C_25
REMARK   11  A    between atoms: N_27  and  C_28
REMARK   12  A    between atoms: N_27  and  C_35
REMARK   13  A    between atoms: C_28  and  C_29
REMARK   14  A    between atoms: C_35  and  C_36
REMARK                            x       y       z     vdW  Elec       q    Type
REMARK                         _______ _______ _______ _____ _____    ______ ____
ROOT
ATOM      1  C   UNL     1       4.472   4.251   0.537  0.00  0.00    +0.163 C 
ENDROOT
BRANCH   1   2
ATOM      2  C   UNL     1       3.050   3.768   0.653  0.00  0.00    +0.042 A 
ATOM      3  C   UNL     1       2.799   2.460   0.910  0.00  0.00    +0.021 A 
ATOM      4  C   UNL     1       1.406   2.023   1.017  0.00  0.00    +0.002 A 
ATOM      5  C   UNL     1       1.085   0.687   1.280  0.00  0.00    -0.041 A 
ATOM      6  C   UNL     1      -0.224   0.311   1.374  0.00  0.00    +0.007 A 
ATOM      7  C   UNL     1      -1.240   1.243   1.211  0.00  0.00    -0.048 A 
ATOM      8  C   UNL     1      -0.948   2.564   0.952  0.00  0.00    +0.029 A 
ATOM      9  C   UNL     1       0.379   2.971   0.852  0.00  0.00    +0.050 A 
ATOM     10  N   UNL     1       0.700   4.286   0.593  0.00  0.00    -0.322 N 
ATOM     11  H   UNL     1      -0.098   5.032   0.462  0.00  0.00    +0.169 HD
ATOM     12  C   UNL     1       1.983   4.678   0.495  0.00  0.00    +0.254 A 
ATOM     13  O   UNL     1       2.230   5.849   0.266  0.00  0.00    -0.268 OA
ATOM     14  C   UNL     1      -2.678   0.805   1.320  0.00  0.00    +0.044 C 
ATOM     15  C   UNL     1       2.180  -0.333   1.459  0.00  0.00    +0.044 C 
ENDBRANCH   1   2
BRANCH   1  17
ATOM     16  N   UNL     1       5.632   4.957   2.696  0.00  0.00    -0.222 N 
ATOM     17  C   UNL     1       4.780   5.185   1.679  0.00  0.00    +0.174 A 
ATOM     18  N   UNL     1       4.276   6.379   1.871  0.00  0.00    -0.111 NA
ATOM     19  N   UNL     1       4.785   6.856   2.954  0.00  0.00    -0.023 NA
ATOM     20  N   UNL     1       5.607   6.000   3.454  0.00  0.00    -0.043 NA
BRANCH  16  21
ATOM     21  C   UNL     1       6.435   3.749   2.904  0.00  0.00    +0.062 C 
ATOM     22  C   UNL     1       5.514   2.530   2.982  0.00  0.00    +0.036 C 
ATOM     23  C   UNL     1       7.410   3.578   1.737  0.00  0.00    +0.036 C 
BRANCH  21  25
ATOM     24  C   UNL     1       8.061   2.618   4.427  0.00  0.00    +0.006 C 
ATOM     25  C   UNL     1       7.221   3.879   4.210  0.00  0.00    +0.026 C 
ENDBRANCH  21  25
ENDBRANCH  16  21
ENDBRANCH   1  17
BRANCH   1  26
ATOM     26  N   UNL     1       4.645   4.962  -0.737  0.00  0.00    -0.280 NA
BRANCH  26  27
ATOM     27  C   UNL     1       4.391   4.070  -1.877  0.00  0.00    +0.121 C 
BRANCH  27  28
ATOM     28  C   UNL     1       5.378   2.932  -1.854  0.00  0.00    -0.033 A 
ATOM     29  C   UNL     1       6.612   3.075  -2.461  0.00  0.00    +0.005 A 
ATOM     30  C   UNL     1       7.519   2.033  -2.435  0.00  0.00    +0.000 A 
ATOM     31  C   UNL     1       7.189   0.844  -1.813  0.00  0.00    +0.000 A 
ATOM     32  C   UNL     1       5.953   0.698  -1.211  0.00  0.00    +0.000 A 
ATOM     33  C   UNL     1       5.048   1.743  -1.231  0.00  0.00    +0.005 A 
ENDBRANCH  27  28
ENDBRANCH  26  27
BRANCH  26  34
ATOM     34  C   UNL     1       5.983   5.562  -0.828  0.00  0.00    +0.128 C 
BRANCH  34  35
ATOM     35  C   UNL     1       5.994   6.604  -1.917  0.00  0.00    +0.004 A 
ATOM     36  C   UNL     1       5.795   7.941  -1.822  0.00  0.00    +0.012 A 
ATOM     37  C   UNL     1       5.852   8.710  -2.969  0.00  0.00    +0.008 A 
ATOM     38  C   UNL     1       6.105   8.105  -4.155  0.00  0.00    +0.045 A 
ATOM     39  S   UNL     1       6.279   6.396  -3.667  0.00  0.00    -0.100 S 
ENDBRANCH  34  35
ENDBRANCH  26  34
ENDBRANCH   1  26
TORSDOF 9
