REMARK  Name = ZINC63577483
REMARK  6 active torsions:
REMARK  status: ('A' for Active; 'I' for Inactive)
REMARK    1  A    between atoms: C_1  and  C_2
REMARK    2  A    between atoms: C_2  and  O_3
REMARK    3  A    between atoms: O_3  and  C_4
REMARK    4  A    between atoms: C_4  and  C_6
REMARK    5  A    between atoms: C_9  and  N_12
REMARK    6  A    between atoms: C_28  and  C_33
REMARK                            x       y       z     vdW  Elec       q    Type
REMARK                         _______ _______ _______ _____ _____    ______ ____
ROOT
ATOM      1  N   UNL     1       4.716  -3.982  -5.413  0.00  0.00    -0.220 N 
ATOM      2  C   UNL     1       4.843  -5.290  -5.722  0.00  0.00    +0.246 C 
ATOM      3  O   UNL     1       4.880  -6.224  -4.951  0.00  0.00    -0.273 OA
ATOM      4  C   UNL     1       4.930  -5.346  -7.232  0.00  0.00    +0.167 C 
ATOM      5  C   UNL     1       6.253  -6.007  -7.658  0.00  0.00    +0.065 C 
ATOM      6  C   UNL     1       6.546  -5.512  -9.054  0.00  0.00    -0.034 C 
ATOM      7  C   UNL     1       6.793  -6.181 -10.176  0.00  0.00    -0.001 A 
ATOM      8  C   UNL     1       6.965  -7.618 -10.440  0.00  0.00    +0.010 A 
ATOM      9  C   UNL     1       7.192  -7.967 -11.734  0.00  0.00    +0.001 A 
ATOM     10  C   UNL     1       7.265  -7.040 -12.779  0.00  0.00    +0.002 A 
ATOM     11  C   UNL     1       7.128  -5.699 -12.626  0.00  0.00    +0.026 A 
ATOM     12  C   UNL     1       6.891  -5.210 -11.308  0.00  0.00    +0.043 A 
ATOM     13  N   UNL     1       6.742  -3.993 -10.876  0.00  0.00    -0.375 N 
ATOM     14  C   UNL     1       6.587  -4.034  -9.421  0.00  0.00    +0.131 C 
ATOM     15  C   UNL     1       5.247  -3.427  -8.979  0.00  0.00    +0.132 C 
ATOM     16  N   UNL     1       4.960  -3.922  -7.622  0.00  0.00    -0.291 N 
ATOM     17  C   UNL     1       4.747  -3.210  -6.508  0.00  0.00    +0.148 C 
ATOM     18  S   UNL     1       4.544  -1.510  -6.484  0.00  0.00    -0.018 S 
ATOM     19  H   UNL     1       6.735  -3.193 -11.425  0.00  0.00    +0.160 HD
ENDROOT
BRANCH  15  20
ATOM     20  C   UNL     1       5.342  -1.923  -8.971  0.00  0.00    -0.025 A 
ATOM     21  C   UNL     1       6.421  -1.301  -8.371  0.00  0.00    +0.007 A 
ATOM     22  C   UNL     1       6.508   0.078  -8.364  0.00  0.00    +0.020 A 
ATOM     23  C   UNL     1       5.515   0.837  -8.957  0.00  0.00    +0.041 A 
ATOM     24  C   UNL     1       4.435   0.214  -9.558  0.00  0.00    +0.020 A 
ATOM     25  C   UNL     1       4.352  -1.165  -9.569  0.00  0.00    +0.007 A 
ATOM     26 CL   UNL     1       5.623   2.570  -8.948  0.00  0.00    -0.084 Cl
ENDBRANCH  15  20
BRANCH   1  30
ATOM     27  C   UNL     1       4.263  -2.529  -1.533  0.00  0.00    +0.059 A 
ATOM     28  C   UNL     1       3.255  -3.305  -2.112  0.00  0.00    +0.017 A 
ATOM     29  C   UNL     1       3.408  -3.783  -3.394  0.00  0.00    +0.025 A 
ATOM     30  C   UNL     1       4.564  -3.495  -4.113  0.00  0.00    +0.043 A 
ATOM     31  C   UNL     1       5.569  -2.723  -3.539  0.00  0.00    +0.025 A 
ATOM     32  C   UNL     1       5.420  -2.237  -2.260  0.00  0.00    +0.017 A 
BRANCH  27  33
ATOM     33  C   UNL     1       4.103  -2.015  -0.160  0.00  0.00    +0.339 C 
ATOM     34  O   UNL     1       4.977  -1.336   0.341  0.00  0.00    -0.245 OA
BRANCH  33  35
ATOM     35  O   UNL     1       2.986  -2.297   0.540  0.00  0.00    -0.461 OA
BRANCH  35  37
ATOM     36  C   UNL     1       1.570  -2.190   2.495  0.00  0.00    +0.048 C 
ATOM     37  C   UNL     1       2.898  -1.767   1.863  0.00  0.00    +0.229 C 
ENDBRANCH  35  37
ENDBRANCH  33  35
ENDBRANCH  27  33
ENDBRANCH   1  30
TORSDOF 5
