REMARK  Name = ZINC33398133
REMARK  7 active torsions:
REMARK  status: ('A' for Active; 'I' for Inactive)
REMARK    1  A    between atoms: C_1  and  C_2
REMARK    2  A    between atoms: C_2  and  C_4
REMARK    3  A    between atoms: C_2  and  N_10
REMARK    4  A    between atoms: C_15  and  C_28
REMARK    5  A    between atoms: N_17  and  C_23
REMARK    6  A    between atoms: C_23  and  C_24
REMARK    7  A    between atoms: C_24  and  C_25
REMARK                            x       y       z     vdW  Elec       q    Type
REMARK                         _______ _______ _______ _____ _____    ______ ____
ROOT
ATOM      1  N   UNL     1       0.818  -0.417   1.147  0.00  0.00    -0.232 N 
ATOM      2  C   UNL     1       0.390  -1.294   2.062  0.00  0.00    +0.230 C 
ATOM      3  O   UNL     1      -0.692  -1.841   2.056  0.00  0.00    -0.275 OA
ATOM      4  C   UNL     1       1.466  -1.495   3.106  0.00  0.00    +0.139 C 
ATOM      5  C   UNL     1       0.995  -0.871   4.439  0.00  0.00    +0.129 C 
ATOM      6  N   UNL     1       1.448   0.542   4.327  0.00  0.00    -0.178 NA
ATOM      7  O   UNL     1       2.756   0.442   3.649  0.00  0.00    -0.283 OA
ATOM      8  C   UNL     1       2.615  -0.575   2.618  0.00  0.00    +0.241 C 
ATOM      9  C   UNL     1       2.055   0.048   1.359  0.00  0.00    +0.254 C 
ATOM     10  O   UNL     1       2.634   0.846   0.654  0.00  0.00    -0.272 OA
ENDROOT
BRANCH   5  11
ATOM     11  C   UNL     1      -0.505  -0.945   4.562  0.00  0.00    -0.026 A 
ATOM     12  C   UNL     1      -1.299  -0.025   3.902  0.00  0.00    +0.005 A 
ATOM     13  C   UNL     1      -2.675  -0.092   4.014  0.00  0.00    +0.002 A 
ATOM     14  C   UNL     1      -3.258  -1.079   4.786  0.00  0.00    +0.020 A 
ATOM     15  C   UNL     1      -2.465  -2.000   5.446  0.00  0.00    +0.041 A 
ATOM     16  C   UNL     1      -1.088  -1.936   5.329  0.00  0.00    +0.025 A 
ATOM     17 CL   UNL     1      -3.197  -3.240   6.416  0.00  0.00    -0.084 Cl
ENDBRANCH   5  11
BRANCH   1  19
ATOM     18  C   UNL     1      -0.227   1.508   0.058  0.00  0.00    +0.033 C 
ATOM     19  C   UNL     1       0.002  -0.004   0.002  0.00  0.00    +0.111 C 
BRANCH  19  20
ATOM     20  C   UNL     1       0.716  -0.357  -1.277  0.00  0.00    -0.027 A 
ATOM     21  C   UNL     1       1.493  -1.499  -1.343  0.00  0.00    +0.005 A 
ATOM     22  C   UNL     1       2.148  -1.822  -2.517  0.00  0.00    +0.000 A 
ATOM     23  C   UNL     1       2.026  -1.004  -3.624  0.00  0.00    +0.000 A 
ATOM     24  C   UNL     1       1.250   0.137  -3.558  0.00  0.00    +0.000 A 
ATOM     25  C   UNL     1       0.591   0.459  -2.386  0.00  0.00    +0.005 A 
ENDBRANCH  19  20
ENDBRANCH   1  19
BRANCH   6  26
ATOM     26  C   UNL     1       1.587   1.157   5.653  0.00  0.00    +0.124 C 
BRANCH  26  27
ATOM     27  C   UNL     1       1.809   2.663   5.496  0.00  0.00    +0.113 C 
BRANCH  27  28
ATOM     28  C   UNL     1       1.952   3.294   6.857  0.00  0.00    +0.212 C 
ATOM     29  O   UNL     1       1.883   2.608   7.854  0.00  0.00    -0.276 OA
ATOM     30  N   UNL     1       2.156   4.622   6.966  0.00  0.00    -0.329 N 
ATOM     31  H   UNL     1       2.211   5.171   6.168  0.00  0.00    +0.145 HD
ATOM     32  H   UNL     1       2.248   5.029   7.841  0.00  0.00    +0.145 HD
ENDBRANCH  27  28
ENDBRANCH  26  27
ENDBRANCH   6  26
TORSDOF 6
