REMARK  Name = ZINC43339992
REMARK  10 active torsions:
REMARK  status: ('A' for Active; 'I' for Inactive)
REMARK    1  A    between atoms: C_1  and  C_2
REMARK    2  A    between atoms: C_2  and  C_3
REMARK    3  A    between atoms: C_7  and  C_26
REMARK    4  A    between atoms: C_8  and  N_9
REMARK    5  A    between atoms: N_12  and  C_13
REMARK    6  A    between atoms: C_13  and  C_15
REMARK    7  A    between atoms: C_13  and  C_16
REMARK    8  A    between atoms: C_20  and  S_22
REMARK    9  A    between atoms: S_22  and  N_25
REMARK   10  A    between atoms: C_26  and  C_27
REMARK                            x       y       z     vdW  Elec       q    Type
REMARK                         _______ _______ _______ _____ _____    ______ ____
ROOT
ATOM      1  N   UNL     1      -3.666   1.886  -0.216  0.00  0.00    -0.269 N 
ATOM      2  C   UNL     1      -3.977   2.515  -1.367  0.00  0.00    +0.304 C 
ATOM      3  O   UNL     1      -3.781   1.963  -2.433  0.00  0.00    -0.252 OA
ATOM      4  N   UNL     1      -4.504   3.755  -1.336  0.00  0.00    -0.293 N 
ATOM      5  H   UNL     1      -3.901   2.288   0.635  0.00  0.00    +0.156 HD
ATOM      6  H   UNL     1      -4.660   4.194  -0.486  0.00  0.00    +0.151 HD
ENDROOT
BRANCH   1  12
ATOM      7  C   UNL     1      -1.655   0.579   0.065  0.00  0.00    -0.026 A 
ATOM      8  C   UNL     1      -1.007  -0.641   0.037  0.00  0.00    +0.005 A 
ATOM      9  C   UNL     1      -1.700  -1.786  -0.308  0.00  0.00    +0.001 A 
ATOM     10  C   UNL     1      -3.044  -1.715  -0.626  0.00  0.00    +0.005 A 
ATOM     11  C   UNL     1      -3.697  -0.499  -0.601  0.00  0.00    -0.026 A 
ATOM     12  C   UNL     1      -3.006   0.653  -0.249  0.00  0.00    +0.041 A 
BRANCH   7  14
ATOM     13  C   UNL     1      -1.079   2.102   1.935  0.00  0.00    +0.009 C 
ATOM     14  C   UNL     1      -0.898   1.827   0.441  0.00  0.00    +0.033 C 
ENDBRANCH   7  14
BRANCH  11  15
ATOM     15  C   UNL     1      -5.162  -0.422  -0.949  0.00  0.00    +0.033 C 
ATOM     16  C   UNL     1      -5.657  -1.804  -1.381  0.00  0.00    +0.009 C 
ENDBRANCH  11  15
ENDBRANCH   1  12
BRANCH   4  17
ATOM     17  C   UNL     1      -4.841   4.438  -2.587  0.00  0.00    +0.102 C 
ATOM     18  C   UNL     1      -6.240   4.013  -3.039  0.00  0.00    +0.033 C 
BRANCH  17  19
ATOM     19  C   UNL     1      -4.816   5.929  -2.368  0.00  0.00    -0.026 A 
ATOM     20  C   UNL     1      -5.314   6.464  -1.194  0.00  0.00    +0.005 A 
ATOM     21  C   UNL     1      -5.290   7.831  -0.993  0.00  0.00    +0.002 A 
ATOM     22  C   UNL     1      -4.768   8.664  -1.965  0.00  0.00    +0.028 A 
ATOM     23  C   UNL     1      -4.269   8.129  -3.138  0.00  0.00    +0.105 A 
ATOM     24  C   UNL     1      -4.288   6.761  -3.337  0.00  0.00    +0.034 A 
BRANCH  23  25
ATOM     25  S   UNL     1      -3.603   9.190  -4.377  0.00  0.00    +0.056 S 
ATOM     26  O   UNL     1      -3.700   8.488  -5.609  0.00  0.00    -0.153 OA
ATOM     27  O   UNL     1      -4.196  10.467  -4.179  0.00  0.00    -0.153 OA
BRANCH  25  28
ATOM     28  N   UNL     1      -1.988   9.364  -4.057  0.00  0.00    -0.204 NA
ATOM     29  H   UNL     1      -1.363   9.516  -4.784  0.00  0.00    +0.144 HD
ATOM     30  H   UNL     1      -1.666   9.313  -3.143  0.00  0.00    +0.144 HD
ENDBRANCH  25  28
ENDBRANCH  23  25
ENDBRANCH  17  19
ENDBRANCH   4  17
TORSDOF 7
