REMARK  Name = ZINC64715726
REMARK  10 active torsions:
REMARK  status: ('A' for Active; 'I' for Inactive)
REMARK    1  A    between atoms: C_1  and  C_2
REMARK    2  A    between atoms: C_2  and  C_33
REMARK    3  A    between atoms: N_5  and  C_9
REMARK    4  A    between atoms: C_9  and  C_10
REMARK    5  A    between atoms: N_12  and  C_13
REMARK    6  A    between atoms: C_13  and  C_14
REMARK    7  A    between atoms: C_14  and  C_16
REMARK    8  A    between atoms: C_14  and  C_24
REMARK    9  A    between atoms: C_19  and  O_22
REMARK   10  A    between atoms: O_22  and  C_23
REMARK                            x       y       z     vdW  Elec       q    Type
REMARK                         _______ _______ _______ _____ _____    ______ ____
ROOT
ATOM      1  C   UNL     1       6.179  -0.440  -2.655  0.00  0.00    +0.116 C 
ENDROOT
BRANCH   1   4
ATOM      2  C   UNL     1       3.998  -0.950  -1.696  0.00  0.00    +0.231 C 
ATOM      3  O   UNL     1       3.959   0.180  -1.258  0.00  0.00    -0.274 OA
ATOM      4  N   UNL     1       5.066  -1.360  -2.409  0.00  0.00    -0.313 N 
ATOM      5  H   UNL     1       5.097  -2.264  -2.760  0.00  0.00    +0.149 HD
BRANCH   2   6
ATOM      6  C   UNL     1       2.853  -1.896  -1.443  0.00  0.00    +0.213 C 
BRANCH   6  11
ATOM      7  C   UNL     1      -0.019   1.526   0.010  0.00  0.00    +0.050 C 
ATOM      8  C   UNL     1       0.002  -0.004   0.002  0.00  0.00    +0.168 C 
ATOM      9  C   UNL     1       0.799  -0.520  -1.180  0.00  0.00    +0.254 C 
ATOM     10  O   UNL     1       0.564  -0.342  -2.356  0.00  0.00    -0.272 OA
ATOM     11  N   UNL     1       1.824  -1.217  -0.651  0.00  0.00    -0.215 N 
ATOM     12  C   UNL     1       1.786  -1.214   0.686  0.00  0.00    +0.310 C 
ATOM     13  O   UNL     1       2.604  -1.776   1.387  0.00  0.00    -0.252 OA
ATOM     14  N   UNL     1       0.740  -0.519   1.169  0.00  0.00    -0.279 N 
ATOM     15  H   UNL     1       0.515  -0.383   2.102  0.00  0.00    +0.152 HD
BRANCH   8  16
ATOM     16  C   UNL     1      -1.402  -0.552  -0.021  0.00  0.00    +0.137 A 
ATOM     17  C   UNL     1      -2.157  -0.826   1.057  0.00  0.00    +0.047 A 
ATOM     18  C   UNL     1      -3.393  -1.317   0.577  0.00  0.00    +0.041 A 
ATOM     19  C   UNL     1      -3.319  -1.313  -0.766  0.00  0.00    +0.195 A 
ATOM     20  O   UNL     1      -2.113  -0.843  -1.123  0.00  0.00    -0.465 OA
ENDBRANCH   8  16
ENDBRANCH   6  11
ENDBRANCH   2   6
ENDBRANCH   1   4
BRANCH   1  21
ATOM     21  C   UNL     1       7.253  -1.149  -3.482  0.00  0.00    +0.064 C 
BRANCH  21  22
ATOM     22  C   UNL     1       6.701  -1.480  -4.845  0.00  0.00    -0.033 C 
ATOM     23  C   UNL     1       6.572  -2.709  -5.394  0.00  0.00    -0.000 A 
ATOM     24  C   UNL     1       6.897  -4.055  -4.905  0.00  0.00    +0.010 A 
ATOM     25  C   UNL     1       6.649  -5.120  -5.702  0.00  0.00    +0.001 A 
ATOM     26  C   UNL     1       6.092  -4.970  -6.979  0.00  0.00    +0.002 A 
ATOM     27  C   UNL     1       5.767  -3.767  -7.497  0.00  0.00    +0.026 A 
ATOM     28  C   UNL     1       5.984  -2.579  -6.746  0.00  0.00    +0.043 A 
ATOM     29  N   UNL     1       5.758  -1.317  -7.023  0.00  0.00    -0.380 N 
ATOM     30  C   UNL     1       6.172  -0.505  -5.873  0.00  0.00    +0.145 C 
ATOM     31  H   UNL     1       5.378  -0.978  -7.848  0.00  0.00    +0.160 HD
ENDBRANCH  21  22
BRANCH  21  32
ATOM     32  C   UNL     1       8.450  -0.246  -3.631  0.00  0.00    -0.038 A 
ATOM     33  C   UNL     1       8.312   0.988  -4.240  0.00  0.00    +0.008 A 
ATOM     34  C   UNL     1       9.408   1.818  -4.378  0.00  0.00    +0.046 A 
ATOM     35  C   UNL     1      10.648   1.413  -3.905  0.00  0.00    +0.120 A 
ATOM     36  C   UNL     1      10.783   0.174  -3.294  0.00  0.00    +0.046 A 
ATOM     37  C   UNL     1       9.683  -0.649  -3.154  0.00  0.00    +0.008 A 
BRANCH  35  38
ATOM     38  O   UNL     1      11.727   2.227  -4.040  0.00  0.00    -0.495 OA
ATOM     39  C   UNL     1      12.972   1.744  -3.530  0.00  0.00    +0.277 C 
ENDBRANCH  35  38
ENDBRANCH  21  32
ENDBRANCH   1  21
TORSDOF 8
