REMARK  Name = ZINC40014199
REMARK  10 active torsions:
REMARK  status: ('A' for Active; 'I' for Inactive)
REMARK    1  A    between atoms: C_1  and  N_2
REMARK    2  A    between atoms: N_2  and  C_3
REMARK    3  A    between atoms: N_2  and  C_4
REMARK    4  A    between atoms: C_4  and  C_5
REMARK    5  A    between atoms: C_5  and  C_6
REMARK    6  A    between atoms: C_6  and  N_7
REMARK    7  A    between atoms: C_8  and  C_24
REMARK    8  A    between atoms: C_27  and  O_30
REMARK    9  A    between atoms: O_30  and  C_31
REMARK   10  A    between atoms: C_31  and  C_32
REMARK                            x       y       z     vdW  Elec       q    Type
REMARK                         _______ _______ _______ _____ _____    ______ ____
ROOT
ATOM      1  N   UNL     1      -0.082  -0.239   4.890  0.00  0.00    -0.284 N 
ATOM      2  C   UNL     1       0.074   1.008   5.656  0.00  0.00    +0.144 C 
ATOM      3  C   UNL     1      -0.901   0.917   6.784  0.00  0.00    +0.072 A 
ATOM      4  C   UNL     1      -1.200   1.845   7.880  0.00  0.00    +0.199 A 
ATOM      5  O   UNL     1      -0.767   2.983   7.927  0.00  0.00    -0.287 OA
ATOM      6  C   UNL     1      -2.080   1.266   8.925  0.00  0.00    +0.067 A 
ATOM      7  C   UNL     1      -2.295   1.947  10.124  0.00  0.00    +0.053 A 
ATOM      8  C   UNL     1      -3.111   1.391  11.086  0.00  0.00    +0.124 A 
ATOM      9  C   UNL     1      -3.716   0.160  10.859  0.00  0.00    +0.042 A 
ATOM     10  C   UNL     1      -3.512  -0.518   9.679  0.00  0.00    +0.050 A 
ATOM     11  C   UNL     1      -2.692   0.024   8.690  0.00  0.00    +0.140 A 
ATOM     12  O   UNL     1      -2.517  -0.660   7.536  0.00  0.00    -0.450 OA
ATOM     13  C   UNL     1      -1.560  -0.274   6.670  0.00  0.00    +0.199 A 
ATOM     14  C   UNL     1      -1.040  -0.979   5.485  0.00  0.00    +0.283 C 
ATOM     15  O   UNL     1      -1.417  -2.068   5.102  0.00  0.00    -0.267 OA
ATOM     16  F   UNL     1      -3.325   2.044  12.249  0.00  0.00    -0.205 F 
ENDROOT
BRANCH   2  17
ATOM     17  C   UNL     1      -0.245   2.196   4.785  0.00  0.00    -0.022 A 
ATOM     18  C   UNL     1      -1.307   2.139   3.902  0.00  0.00    +0.009 A 
ATOM     19  C   UNL     1      -1.602   3.227   3.103  0.00  0.00    +0.046 A 
ATOM     20  C   UNL     1      -0.830   4.377   3.187  0.00  0.00    +0.121 A 
ATOM     21  C   UNL     1       0.235   4.431   4.074  0.00  0.00    +0.046 A 
ATOM     22  C   UNL     1       0.522   3.343   4.875  0.00  0.00    +0.009 A 
BRANCH  20  23
ATOM     23  O   UNL     1      -1.117   5.448   2.401  0.00  0.00    -0.488 OA
BRANCH  23  24
ATOM     24  C   UNL     1      -0.281   6.598   2.541  0.00  0.00    +0.256 C 
BRANCH  24  25
ATOM     25  C   UNL     1      -0.747   7.676   1.598  0.00  0.00    +0.006 C 
ATOM     26  C   UNL     1      -0.853   8.913   2.017  0.00  0.00    +0.007 C 
ENDBRANCH  24  25
ENDBRANCH  23  24
ENDBRANCH  20  23
ENDBRANCH   2  17
BRANCH   1  27
ATOM     27  C   UNL     1       0.669  -0.610   3.687  0.00  0.00    +0.107 C 
BRANCH  27  28
ATOM     28  C   UNL     1      -0.071  -0.103   2.448  0.00  0.00    +0.000 C 
BRANCH  28  29
ATOM     29  C   UNL     1       0.713  -0.491   1.192  0.00  0.00    -0.078 C 
BRANCH  29  31
ATOM     30  C   UNL     1      -0.018   1.465   0.010  0.00  0.00    -0.097 C 
ATOM     31  N   UNL     1       0.002  -0.004   0.002  0.00  0.00    +0.376 N 
ATOM     32  C   UNL     1       0.690  -0.478  -1.207  0.00  0.00    -0.097 C 
ATOM     33  H   UNL     1      -0.945  -0.353   0.009  0.00  0.00    -0.083 HD
ENDBRANCH  29  31
ENDBRANCH  28  29
ENDBRANCH  27  28
ENDBRANCH   1  27
TORSDOF 8
