REMARK  Name = ZINC19169265
REMARK  3 active torsions:
REMARK  status: ('A' for Active; 'I' for Inactive)
REMARK    1  A    between atoms: C_6  and  C_7
REMARK    2  A    between atoms: C_9  and  C_20
REMARK    3  A    between atoms: C_11  and  C_18
REMARK                            x       y       z     vdW  Elec       q    Type
REMARK                         _______ _______ _______ _____ _____    ______ ____
ROOT
ATOM      1  C   UNL     1      -1.293  -0.775   0.011  0.00  0.00    +0.122 C 
ATOM      2  C   UNL     1      -1.577  -1.313   1.425  0.00  0.00    +0.147 C 
ATOM      3  C   UNL     1      -2.047  -2.763   1.185  0.00  0.00    +0.193 C 
ATOM      4  N   UNL     1      -1.394  -3.157  -0.076  0.00  0.00    -0.222 NA
ATOM      5  N   UNL     1      -1.187  -1.950  -0.874  0.00  0.00    -0.230 NA
ATOM      6  C   UNL     1      -2.294  -1.914  -1.867  0.00  0.00    +0.104 C 
ATOM      7  C   UNL     1      -2.506  -3.412  -2.198  0.00  0.00    +0.034 C 
ATOM      8  C   UNL     1      -2.235  -4.097  -0.837  0.00  0.00    +0.105 C 
ENDROOT
BRANCH   1  14
ATOM      9  C   UNL     1      -0.017   1.378   0.010  0.00  0.00    +0.007 A 
ATOM     10  C   UNL     1       1.171   2.086   0.002  0.00  0.00    +0.020 A 
ATOM     11  C   UNL     1       2.378   1.410  -0.013  0.00  0.00    +0.041 A 
ATOM     12  C   UNL     1       2.396   0.027  -0.021  0.00  0.00    +0.020 A 
ATOM     13  C   UNL     1       1.208  -0.679  -0.013  0.00  0.00    +0.007 A 
ATOM     14  C   UNL     1       0.002  -0.004   0.002  0.00  0.00    -0.028 A 
ATOM     15 CL   UNL     1       3.870   2.298  -0.023  0.00  0.00    -0.084 Cl
ENDBRANCH   1  14
BRANCH   3  16
ATOM     16  C   UNL     1      -1.609  -3.634   2.288  0.00  0.00    +0.084 C 
ATOM     17  N   UNL     1      -1.271  -4.307   3.139  0.00  0.00    -0.195 NA
ENDBRANCH   3  16
BRANCH   2  18
ATOM     18  C   UNL     1      -2.637  -0.524   2.074  0.00  0.00    +0.070 C 
ATOM     19  N   UNL     1      -3.456   0.084   2.574  0.00  0.00    -0.196 NA
ENDBRANCH   2  18
TORSDOF 3
