REMARK  Name = ZINC09380814
REMARK  8 active torsions:
REMARK  status: ('A' for Active; 'I' for Inactive)
REMARK    1  A    between atoms: C_1  and  C_2
REMARK    2  A    between atoms: C_2  and  S_3
REMARK    3  A    between atoms: S_3  and  N_6
REMARK    4  A    between atoms: N_6  and  C_7
REMARK    5  A    between atoms: C_10  and  C_13
REMARK    6  A    between atoms: N_15  and  S_26
REMARK    7  A    between atoms: C_16  and  C_19
REMARK    8  A    between atoms: S_26  and  C_29
REMARK                            x       y       z     vdW  Elec       q    Type
REMARK                         _______ _______ _______ _____ _____    ______ ____
ROOT
ATOM      1  C   UNL     1       1.268  -0.498   0.057  0.00  0.00    +0.070 C 
ATOM      2  N   UNL     1       0.096   0.029   0.139  0.00  0.00    -0.167 NA
ATOM      3  N   UNL     1       0.098   1.423   0.149  0.00  0.00    -0.120 N 
ATOM      4  C   UNL     1       1.488   1.897   0.059  0.00  0.00    +0.153 C 
ATOM      5  C   UNL     1       2.311   0.595  -0.004  0.00  0.00    +0.088 C 
ENDROOT
BRANCH   4   6
ATOM      6  C   UNL     1       1.854   2.697   1.283  0.00  0.00    -0.023 A 
ATOM      7  C   UNL     1       1.393   2.308   2.526  0.00  0.00    +0.008 A 
ATOM      8  C   UNL     1       1.732   3.038   3.650  0.00  0.00    +0.038 A 
ATOM      9  C   UNL     1       2.527   4.166   3.528  0.00  0.00    +0.123 A 
ATOM     10  C   UNL     1       2.984   4.558   2.281  0.00  0.00    +0.038 A 
ATOM     11  C   UNL     1       2.647   3.823   1.160  0.00  0.00    +0.008 A 
ATOM     12  F   UNL     1       2.856   4.883   4.624  0.00  0.00    -0.205 F 
ENDBRANCH   4   6
BRANCH   1  16
ATOM     13  C   UNL     1       2.081  -4.665  -0.023  0.00  0.00    +0.048 A 
ATOM     14  C   UNL     1       0.768  -4.216   0.067  0.00  0.00    +0.025 A 
ATOM     15  C   UNL     1       0.500  -2.865   0.093  0.00  0.00    +0.011 A 
ATOM     16  C   UNL     1       1.550  -1.945   0.029  0.00  0.00    -0.002 A 
ATOM     17  C   UNL     1       2.868  -2.400  -0.067  0.00  0.00    +0.011 A 
ATOM     18  C   UNL     1       3.128  -3.753  -0.087  0.00  0.00    +0.025 A 
BRANCH  13  19
ATOM     19  N   UNL     1       2.348  -6.035  -0.050  0.00  0.00    -0.221 N 
ATOM     20  H   UNL     1       1.911  -6.627   0.582  0.00  0.00    +0.173 HD
BRANCH  19  21
ATOM     21  S   UNL     1       3.410  -6.650  -1.162  0.00  0.00    +0.043 S 
ATOM     22  O   UNL     1       4.605  -5.905  -0.971  0.00  0.00    -0.155 OA
ATOM     23  O   UNL     1       3.389  -8.054  -0.946  0.00  0.00    -0.155 OA
BRANCH  21  25
ATOM     24  C   UNL     1       3.519  -6.888  -3.885  0.00  0.00    +0.030 C 
ATOM     25  C   UNL     1       2.678  -6.255  -2.774  0.00  0.00    +0.185 C 
ENDBRANCH  21  25
ENDBRANCH  19  21
ENDBRANCH  13  19
ENDBRANCH   1  16
BRANCH   3  26
ATOM     26  S   UNL     1      -1.246   2.387   0.238  0.00  0.00    +0.057 S 
ATOM     27  O   UNL     1      -2.180   1.636   1.001  0.00  0.00    -0.154 OA
ATOM     28  O   UNL     1      -0.763   3.637   0.711  0.00  0.00    -0.154 OA
ATOM     29  C   UNL     1      -1.821   2.545  -1.475  0.00  0.00    +0.220 C 
ENDBRANCH   3  26
TORSDOF 6
