REMARK  Name = ZINC39652761
REMARK  10 active torsions:
REMARK  status: ('A' for Active; 'I' for Inactive)
REMARK    1  A    between atoms: C_1  and  C_2
REMARK    2  A    between atoms: C_2  and  O_3
REMARK    3  A    between atoms: O_3  and  C_4
REMARK    4  A    between atoms: C_9  and  C_10
REMARK    5  A    between atoms: C_10  and  C_11
REMARK    6  A    between atoms: C_11  and  N_12
REMARK    7  A    between atoms: C_13  and  C_15
REMARK    8  A    between atoms: C_26  and  C_28
REMARK    9  A    between atoms: C_30  and  C_37
REMARK   10  A    between atoms: C_32  and  C_33
REMARK                            x       y       z     vdW  Elec       q    Type
REMARK                         _______ _______ _______ _____ _____    ______ ____
ROOT
ATOM      1  C   UNL     1       5.735   1.333  -4.896  0.00  0.00    +0.100 C 
ATOM      2  C   UNL     1       4.867   2.593  -5.119  0.00  0.00    +0.121 C 
ATOM      3  N   UNL     1       5.447   3.612  -4.212  0.00  0.00    -0.296 N 
ATOM      4  C   UNL     1       6.911   3.398  -4.307  0.00  0.00    +0.115 C 
ATOM      5  C   UNL     1       7.077   1.867  -4.367  0.00  0.00    -0.004 C 
ATOM      6  C   UNL     1       8.207   1.494  -5.322  0.00  0.00    -0.010 C 
ATOM      7  C   UNL     1       9.538   1.984  -4.745  0.00  0.00    -0.082 C 
ATOM      8  N   UNL     1       9.759   1.371  -3.430  0.00  0.00    +0.379 N 
ATOM      9  C   UNL     1       8.719   1.809  -2.492  0.00  0.00    -0.082 C 
ATOM     10  C   UNL     1       7.353   1.311  -2.973  0.00  0.00    -0.010 C 
ATOM     11  C   UNL     1       4.792   4.526  -3.470  0.00  0.00    +0.250 C 
ATOM     12  O   UNL     1       3.577   4.503  -3.410  0.00  0.00    -0.270 OA
ATOM     13  H   UNL     1       9.729   0.366  -3.520  0.00  0.00    -0.086 HD
ATOM     14  H   UNL     1      10.665   1.647  -3.080  0.00  0.00    -0.086 HD
ENDROOT
BRANCH  11  15
ATOM     15  C   UNL     1       5.547   5.554  -2.732  0.00  0.00    +0.087 A 
ATOM     16  C   UNL     1       6.991   5.820  -2.805  0.00  0.00    +0.058 A 
ATOM     17  C   UNL     1       7.221   6.840  -1.964  0.00  0.00    +0.103 A 
ATOM     18  O   UNL     1       6.064   7.211  -1.395  0.00  0.00    -0.455 OA
ATOM     19  C   UNL     1       5.051   6.462  -1.842  0.00  0.00    +0.220 A 
ATOM     20  C   UNL     1       8.565   7.468  -1.699  0.00  0.00    +0.086 C 
BRANCH  19  21
ATOM     21  C   UNL     1       3.607   6.595  -1.431  0.00  0.00    +0.451 C 
ATOM     22  F   UNL     1       3.362   5.781  -0.320  0.00  0.00    -0.163 F 
ATOM     23  F   UNL     1       3.337   7.927  -1.102  0.00  0.00    -0.163 F 
ATOM     24  F   UNL     1       2.783   6.199  -2.490  0.00  0.00    -0.163 F 
ENDBRANCH  19  21
ENDBRANCH  11  15
BRANCH   1  26
ATOM     25  N   UNL     1       5.275  -0.906  -3.952  0.00  0.00    -0.315 N 
ATOM     26  C   UNL     1       5.092   0.427  -3.878  0.00  0.00    +0.218 C 
ATOM     27  O   UNL     1       4.410   0.897  -2.992  0.00  0.00    -0.275 OA
ATOM     28  H   UNL     1       5.821  -1.282  -4.661  0.00  0.00    +0.149 HD
BRANCH  25  29
ATOM     29  C   UNL     1       4.651  -1.788  -2.963  0.00  0.00    +0.109 C 
BRANCH  29  30
ATOM     30  C   UNL     1       5.014  -3.241  -3.273  0.00  0.00    +0.057 C 
BRANCH  30  36
ATOM     31  C   UNL     1       3.065  -4.577  -2.434  0.00  0.00    +0.124 A 
ATOM     32  C   UNL     1       2.478  -5.416  -1.498  0.00  0.00    +0.046 A 
ATOM     33  C   UNL     1       3.194  -5.818  -0.387  0.00  0.00    +0.004 A 
ATOM     34  C   UNL     1       4.495  -5.385  -0.208  0.00  0.00    +0.000 A 
ATOM     35  C   UNL     1       5.082  -4.548  -1.139  0.00  0.00    +0.007 A 
ATOM     36  C   UNL     1       4.372  -4.148  -2.255  0.00  0.00    -0.004 A 
BRANCH  31  37
ATOM     37  O   UNL     1       2.362  -4.180  -3.528  0.00  0.00    -0.492 OA
BRANCH  37  39
ATOM     38  C   UNL     1       0.396  -4.112  -4.931  0.00  0.00    +0.048 C 
ATOM     39  C   UNL     1       1.022  -4.660  -3.647  0.00  0.00    +0.225 C 
ENDBRANCH  37  39
ENDBRANCH  31  37
ENDBRANCH  30  36
ENDBRANCH  29  30
ENDBRANCH  25  29
ENDBRANCH   1  26
TORSDOF 8
