REMARK  Name = ZINC64202369
REMARK  5 active torsions:
REMARK  status: ('A' for Active; 'I' for Inactive)
REMARK    1  A    between atoms: C_4  and  C_7
REMARK    2  A    between atoms: C_7  and  C_9
REMARK    3  A    between atoms: C_7  and  C_20
REMARK    4  A    between atoms: C_9  and  N_10
REMARK    5  A    between atoms: N_10  and  C_11
REMARK                            x       y       z     vdW  Elec       q    Type
REMARK                         _______ _______ _______ _____ _____    ______ ____
ROOT
ATOM      1  C   UNL     1       3.069  -0.600   0.094  0.00  0.00    +0.030 C 
ENDROOT
BRANCH   1   2
ATOM      2  C   UNL     1       2.477  -1.396  -1.040  0.00  0.00    -0.036 C 
ATOM      3  C   UNL     1       3.053  -1.663  -2.234  0.00  0.00    -0.001 A 
ATOM      4  C   UNL     1       4.354  -1.305  -2.813  0.00  0.00    +0.010 A 
ATOM      5  C   UNL     1       4.655  -1.728  -4.062  0.00  0.00    +0.001 A 
ATOM      6  C   UNL     1       3.758  -2.497  -4.816  0.00  0.00    +0.002 A 
ATOM      7  C   UNL     1       2.545  -2.866  -4.352  0.00  0.00    +0.026 A 
ATOM      8  C   UNL     1       2.124  -2.477  -3.051  0.00  0.00    +0.043 A 
ATOM      9  N   UNL     1       1.017  -2.704  -2.387  0.00  0.00    -0.380 N 
ATOM     10  C   UNL     1       1.120  -2.064  -1.071  0.00  0.00    +0.145 C 
ATOM     11  H   UNL     1       0.257  -3.213  -2.711  0.00  0.00    +0.160 HD
ENDBRANCH   1   2
BRANCH   1  15
ATOM     12  C   UNL     1       0.560   2.753   0.939  0.00  0.00    +0.000 A 
ATOM     13  C   UNL     1       1.875   2.952   0.558  0.00  0.00    +0.000 A 
ATOM     14  C   UNL     1       2.686   1.867   0.285  0.00  0.00    +0.004 A 
ATOM     15  C   UNL     1       2.184   0.583   0.393  0.00  0.00    -0.042 A 
ATOM     16  C   UNL     1       0.870   0.385   0.774  0.00  0.00    +0.004 A 
ATOM     17  C   UNL     1       0.058   1.470   1.046  0.00  0.00    +0.000 A 
ENDBRANCH   1  15
BRANCH   1  18
ATOM     18  C   UNL     1       3.175  -1.484   1.338  0.00  0.00    -0.069 C 
BRANCH  18  19
ATOM     19  N   UNL     1       3.861  -0.746   2.406  0.00  0.00    +0.387 N 
ATOM     20  H   UNL     1       4.786  -0.488   2.097  0.00  0.00    -0.085 HD
ATOM     21  H   UNL     1       3.337   0.087   2.630  0.00  0.00    -0.085 HD
BRANCH  19  22
ATOM     22  C   UNL     1       3.963  -1.595   3.601  0.00  0.00    +0.016 C 
ATOM     23  C   UNL     1       5.249  -2.423   3.535  0.00  0.00    -0.007 C 
ATOM     24  C   UNL     1       6.363  -1.633   2.873  0.00  0.00    +0.000 C 
ATOM     25  C   UNL     1       6.826  -0.433   3.680  0.00  0.00    +0.019 C 
ATOM     26  C   UNL     1       5.726   0.627   3.760  0.00  0.00    +0.104 C 
ATOM     27  N   UNL     1       4.849   0.311   4.899  0.00  0.00    -0.317 N 
ATOM     28  C   UNL     1       4.008  -0.727   4.840  0.00  0.00    +0.199 C 
ATOM     29  O   UNL     1       3.285  -0.978   5.781  0.00  0.00    -0.278 OA
ATOM     30  H   UNL     1       4.879   0.861   5.697  0.00  0.00    +0.149 HD
ENDBRANCH  19  22
ENDBRANCH  18  19
ENDBRANCH   1  18
TORSDOF 5
