REMARK  Name = ZINC00267939
REMARK  6 active torsions:
REMARK  status: ('A' for Active; 'I' for Inactive)
REMARK    1  A    between atoms: C_4  and  N_7
REMARK    2  A    between atoms: N_7  and  C_8
REMARK    3  A    between atoms: C_8  and  N_10
REMARK    4  A    between atoms: N_10  and  C_11
REMARK    5  A    between atoms: C_11  and  C_17
REMARK    6  A    between atoms: C_23  and  O_25
REMARK                            x       y       z     vdW  Elec       q    Type
REMARK                         _______ _______ _______ _____ _____    ______ ____
ROOT
ATOM      1  C   UNL     1       5.009  -4.105  -0.180  0.00  0.00    +0.039 C 
ATOM      2  C   UNL     1       4.226  -4.776  -1.311  0.00  0.00    +0.026 C 
ATOM      3  C   UNL     1       2.778  -4.283  -1.290  0.00  0.00    +0.002 C 
ATOM      4  C   UNL     1       2.137  -4.636   0.054  0.00  0.00    +0.000 C 
ATOM      5  C   UNL     1       2.921  -3.965   1.184  0.00  0.00    +0.002 C 
ATOM      6  C   UNL     1       4.369  -4.458   1.163  0.00  0.00    +0.026 C 
ENDROOT
BRANCH   1   7
ATOM      7  C   UNL     1       6.457  -4.598  -0.201  0.00  0.00    +0.041 C 
ATOM      8  C   UNL     1       6.475  -6.127  -0.218  0.00  0.00    +0.008 C 
ATOM      9  C   UNL     1       7.923  -6.620  -0.238  0.00  0.00    +0.001 C 
ATOM     10  C   UNL     1       8.626  -6.088  -1.489  0.00  0.00    +0.003 C 
ATOM     11  C   UNL     1       8.608  -4.558  -1.472  0.00  0.00    +0.032 C 
ATOM     12  C   UNL     1       7.160  -4.065  -1.452  0.00  0.00    +0.120 C 
BRANCH  12  13
ATOM     13  O   UNL     1       6.480  -4.537  -2.617  0.00  0.00    -0.391 OA
ATOM     14  H   UNL     1       6.871  -4.237  -3.449  0.00  0.00    +0.210 HD
ENDBRANCH  12  13
ENDBRANCH   1   7
BRANCH   1  15
ATOM     15  N   UNL     1       4.985  -2.651  -0.366  0.00  0.00    -0.320 N 
ATOM     16  H   UNL     1       4.521  -2.267  -1.126  0.00  0.00    +0.148 HD
BRANCH  15  17
ATOM     17  C   UNL     1       5.608  -1.849   0.520  0.00  0.00    +0.135 C 
ATOM     18  S   UNL     1       6.538  -2.530   1.786  0.00  0.00    -0.019 S 
BRANCH  17  19
ATOM     19  N   UNL     1       5.499  -0.510   0.409  0.00  0.00    -0.297 N 
ATOM     20  H   UNL     1       4.928  -0.125  -0.274  0.00  0.00    +0.154 HD
BRANCH  19  24
ATOM     21  C   UNL     1       7.614   1.974   2.998  0.00  0.00    +0.000 A 
ATOM     22  C   UNL     1       7.584   2.254   1.644  0.00  0.00    +0.002 A 
ATOM     23  C   UNL     1       6.884   1.433   0.783  0.00  0.00    +0.023 A 
ATOM     24  C   UNL     1       6.210   0.324   1.278  0.00  0.00    +0.033 A 
ATOM     25  C   UNL     1       6.242   0.046   2.639  0.00  0.00    +0.023 A 
ATOM     26  C   UNL     1       6.944   0.872   3.494  0.00  0.00    +0.002 A 
ENDBRANCH  19  24
ENDBRANCH  17  19
ENDBRANCH  15  17
ENDBRANCH   1  15
TORSDOF 6
