REMARK  Name = ZINC22609370
REMARK  7 active torsions:
REMARK  status: ('A' for Active; 'I' for Inactive)
REMARK    1  A    between atoms: C_1  and  C_2
REMARK    2  A    between atoms: C_5  and  N_9
REMARK    3  A    between atoms: C_13  and  N_17
REMARK    4  A    between atoms: C_22  and  O_29
REMARK    5  A    between atoms: C_23  and  O_27
REMARK    6  A    between atoms: O_27  and  C_28
REMARK    7  A    between atoms: O_29  and  C_30
REMARK                            x       y       z     vdW  Elec       q    Type
REMARK                         _______ _______ _______ _____ _____    ______ ____
ROOT
ATOM      1  N   UNL     1       0.059  -4.173  -0.022  0.00  0.00    -0.209 N 
ATOM      2  C   UNL     1      -0.030  -4.892  -1.148  0.00  0.00    +0.228 C 
ATOM      3  O   UNL     1      -0.134  -4.435  -2.266  0.00  0.00    -0.275 OA
ATOM      4  C   UNL     1       0.020  -6.364  -0.804  0.00  0.00    +0.125 C 
ATOM      5  C   UNL     1       0.155  -6.372   0.733  0.00  0.00    +0.153 C 
ATOM      6  C   UNL     1       0.172  -4.903   1.094  0.00  0.00    +0.244 C 
ATOM      7  O   UNL     1       0.271  -4.458   2.217  0.00  0.00    -0.273 OA
ENDROOT
BRANCH   5   8
ATOM      8  N   UNL     1       1.411  -7.018   1.138  0.00  0.00    -0.287 NA
ATOM      9  C   UNL     1       1.451  -7.224   2.595  0.00  0.00    +0.090 C 
ATOM     10  C   UNL     1       2.578  -8.206   2.914  0.00  0.00    +0.051 C 
ATOM     11  C   UNL     1       3.853  -7.765   2.242  0.00  0.00    -0.038 A 
ATOM     12  C   UNL     1       5.052  -8.302   2.685  0.00  0.00    +0.053 A 
ATOM     13  C   UNL     1       6.246  -7.930   2.094  0.00  0.00    +0.162 A 
ATOM     14  C   UNL     1       6.241  -7.010   1.049  0.00  0.00    +0.162 A 
ATOM     15  C   UNL     1       5.042  -6.476   0.612  0.00  0.00    +0.054 A 
ATOM     16  C   UNL     1       3.847  -6.851   1.209  0.00  0.00    -0.026 A 
ATOM     17  C   UNL     1       2.570  -6.232   0.704  0.00  0.00    +0.120 C 
BRANCH  14  18
ATOM     18  O   UNL     1       7.409  -6.639   0.460  0.00  0.00    -0.491 OA
ATOM     19  C   UNL     1       7.325  -5.691  -0.606  0.00  0.00    +0.277 C 
ENDBRANCH  14  18
BRANCH  13  20
ATOM     20  O   UNL     1       7.420  -8.459   2.533  0.00  0.00    -0.491 OA
ATOM     21  C   UNL     1       7.347  -9.395   3.609  0.00  0.00    +0.277 C 
ENDBRANCH  13  20
ENDBRANCH   5   8
BRANCH   1  26
ATOM     22  C   UNL     1      -0.015   1.503   0.010  0.00  0.00    +0.045 C 
ATOM     23  C   UNL     1       0.004  -0.004   0.002  0.00  0.00    -0.032 A 
ATOM     24  C   UNL     1       1.071  -0.677  -0.564  0.00  0.00    +0.006 A 
ATOM     25  C   UNL     1       1.092  -2.058  -0.574  0.00  0.00    +0.024 A 
ATOM     26  C   UNL     1       0.040  -2.771  -0.013  0.00  0.00    +0.045 A 
ATOM     27  C   UNL     1      -1.030  -2.094   0.555  0.00  0.00    +0.044 A 
ATOM     28  C   UNL     1      -1.043  -0.711   0.566  0.00  0.00    +0.046 A 
ATOM     29 CL   UNL     1      -2.377   0.138   1.281  0.00  0.00    -0.083 Cl
ENDBRANCH   1  26
TORSDOF 4
