REMARK  Name = ZINC39661079
REMARK  5 active torsions:
REMARK  status: ('A' for Active; 'I' for Inactive)
REMARK    1  A    between atoms: C_4  and  C_6
REMARK    2  A    between atoms: C_6  and  C_7
REMARK    3  A    between atoms: C_7  and  C_8
REMARK    4  A    between atoms: C_12  and  C_21
REMARK    5  A    between atoms: N_23  and  C_24
REMARK                            x       y       z     vdW  Elec       q    Type
REMARK                         _______ _______ _______ _____ _____    ______ ____
ROOT
ATOM      1  C   UNL     1       0.360  -3.392  -2.460  0.00  0.00    +0.216 C 
ATOM      2  O   UNL     1       0.740  -2.871  -3.487  0.00  0.00    -0.276 OA
ATOM      3  N   UNL     1      -0.220  -4.608  -2.495  0.00  0.00    -0.300 N 
ATOM      4  C   UNL     1      -0.749  -5.396  -1.357  0.00  0.00    +0.121 C 
ATOM      5  C   UNL     1      -2.045  -6.041  -1.897  0.00  0.00    +0.100 C 
ATOM      6  C   UNL     1      -1.856  -6.082  -3.423  0.00  0.00    -0.004 C 
ATOM      7  C   UNL     1      -0.478  -5.458  -3.682  0.00  0.00    +0.115 C 
ATOM      8  C   UNL     1      -2.940  -5.258  -4.112  0.00  0.00    -0.010 C 
ATOM      9  C   UNL     1      -2.765  -5.362  -5.630  0.00  0.00    -0.082 C 
ATOM     10  N   UNL     1      -2.856  -6.768  -6.040  0.00  0.00    +0.379 N 
ATOM     11  C   UNL     1      -1.755  -7.535  -5.446  0.00  0.00    -0.082 C 
ATOM     12  C   UNL     1      -1.887  -7.524  -3.920  0.00  0.00    -0.010 C 
ATOM     13  H   UNL     1      -3.737  -7.151  -5.730  0.00  0.00    -0.086 HD
ATOM     14  H   UNL     1      -2.802  -6.828  -7.046  0.00  0.00    -0.086 HD
ENDROOT
BRANCH   5  15
ATOM     15  C   UNL     1      -3.241  -5.197  -1.537  0.00  0.00    +0.219 C 
ATOM     16  O   UNL     1      -3.122  -3.995  -1.421  0.00  0.00    -0.275 OA
ATOM     17  N   UNL     1      -4.441  -5.777  -1.342  0.00  0.00    -0.304 N 
ATOM     18  H   UNL     1      -4.536  -6.738  -1.435  0.00  0.00    +0.149 HD
BRANCH  17  19
ATOM     19  C   UNL     1      -5.604  -4.957  -0.992  0.00  0.00    +0.151 C 
ATOM     20  C   UNL     1      -6.873  -5.663  -1.472  0.00  0.00    +0.042 C 
ATOM     21  C   UNL     1      -8.055  -5.131  -0.627  0.00  0.00    +0.079 C 
ATOM     22  S   UNL     1      -7.226  -4.726   0.959  0.00  0.00    -0.086 S 
ATOM     23  C   UNL     1      -5.613  -4.732   0.501  0.00  0.00    +0.209 C 
ATOM     24  O   UNL     1      -4.650  -4.583   1.224  0.00  0.00    -0.283 OA
ENDBRANCH  17  19
ENDBRANCH   5  15
BRANCH   1  25
ATOM     25  C   UNL     1       0.535  -2.679  -1.144  0.00  0.00    +0.096 C 
BRANCH  25  26
ATOM     26  C   UNL     1       1.214  -1.329  -1.382  0.00  0.00    +0.013 C 
BRANCH  26  30
ATOM     27  C   UNL     1       0.029   1.339   0.637  0.00  0.00    +0.000 C 
ATOM     28  C   UNL     1       1.532   1.705   0.727  0.00  0.00    +0.000 C 
ATOM     29  C   UNL     1       2.187   0.701  -0.255  0.00  0.00    +0.003 C 
ATOM     30  C   UNL     1       1.393  -0.605  -0.046  0.00  0.00    -0.011 C 
ATOM     31  C   UNL     1       0.021  -0.199   0.521  0.00  0.00    +0.003 C 
ENDBRANCH  26  30
ENDBRANCH  25  26
ENDBRANCH   1  25
TORSDOF 5
