REMARK  Name = ZINC39387789
REMARK  6 active torsions:
REMARK  status: ('A' for Active; 'I' for Inactive)
REMARK    1  A    between atoms: C_1  and  C_2
REMARK    2  A    between atoms: N_8  and  C_9
REMARK    3  A    between atoms: C_9  and  C_10
REMARK    4  A    between atoms: N_12  and  C_15
REMARK    5  A    between atoms: N_18  and  C_21
REMARK    6  A    between atoms: C_21  and  C_22
REMARK                            x       y       z     vdW  Elec       q    Type
REMARK                         _______ _______ _______ _____ _____    ______ ____
ROOT
ATOM      1  C   UNL     1       3.055  -0.917   1.203  0.00  0.00    +0.066 A 
ATOM      2  C   UNL     1       3.827  -1.944   1.631  0.00  0.00    +0.132 A 
ATOM      3  N   UNL     1       4.236  -1.614   2.878  0.00  0.00    -0.249 N 
ATOM      4  N   UNL     1       3.740  -0.464   3.174  0.00  0.00    -0.065 NA
ATOM      5  N   UNL     1       3.035  -0.019   2.194  0.00  0.00    -0.136 NA
ENDROOT
BRANCH   3   6
ATOM      6  C   UNL     1       5.096  -2.426   3.743  0.00  0.00    +0.105 C 
ATOM      7  C   UNL     1       6.119  -3.177   2.887  0.00  0.00    +0.008 C 
ATOM      8  C   UNL     1       6.962  -4.084   3.787  0.00  0.00    -0.077 C 
ATOM      9  N   UNL     1       6.090  -5.048   4.469  0.00  0.00    +0.382 N 
ATOM     10  C   UNL     1       5.153  -4.338   5.347  0.00  0.00    -0.077 C 
ATOM     11  C   UNL     1       4.241  -3.441   4.507  0.00  0.00    +0.008 C 
ATOM     12  H   UNL     1       5.572  -5.576   3.783  0.00  0.00    -0.082 HD
BRANCH   9  13
ATOM     13  C   UNL     1       6.911  -5.965   5.271  0.00  0.00    -0.028 C 
BRANCH  13  14
ATOM     14  C   UNL     1       6.069  -7.174   5.684  0.00  0.00    +0.204 C 
ATOM     15  N   UNL     1       5.396  -7.747   4.511  0.00  0.00    -0.266 NA
ATOM     16  C   UNL     1       4.125  -7.669   4.723  0.00  0.00    +0.126 C 
ATOM     17  C   UNL     1       3.876  -7.047   6.034  0.00  0.00    +0.126 C 
ATOM     18  N   UNL     1       4.999  -6.756   6.600  0.00  0.00    -0.266 NA
ENDBRANCH  13  14
ENDBRANCH   9  13
ENDBRANCH   3   6
BRANCH   1  19
ATOM     19  C   UNL     1       2.361  -0.806  -0.129  0.00  0.00    -0.019 C 
BRANCH  19  26
ATOM     20  C   UNL     1       0.343   0.428  -1.642  0.00  0.00    -0.013 C 
ATOM     21  C   UNL     1       0.265  -1.053  -1.265  0.00  0.00    -0.071 C 
ATOM     22  C   UNL     1      -1.202  -1.462  -1.110  0.00  0.00    -0.016 C 
ATOM     23  C   UNL     1      -1.275  -2.945  -0.733  0.00  0.00    -0.003 C 
ATOM     24  C   UNL     1      -0.469  -3.176   0.548  0.00  0.00    -0.019 C 
ATOM     25  C   UNL     1       0.971  -2.703   0.331  0.00  0.00    -0.078 C 
ATOM     26  N   UNL     1       0.974  -1.273   0.001  0.00  0.00    +0.385 N 
ATOM     27  H   UNL     1       0.515  -0.757   0.736  0.00  0.00    -0.081 HD
ENDBRANCH  19  26
ENDBRANCH   1  19
TORSDOF 5
