REMARK  Name = ZINC25168615
REMARK  4 active torsions:
REMARK  status: ('A' for Active; 'I' for Inactive)
REMARK    1  A    between atoms: C_3  and  C_6
REMARK    2  A    between atoms: C_11  and  N_14
REMARK    3  A    between atoms: N_14  and  S_15
REMARK    4  A    between atoms: S_15  and  C_18
REMARK                            x       y       z     vdW  Elec       q    Type
REMARK                         _______ _______ _______ _____ _____    ______ ____
ROOT
ATOM      1  C   UNL     1      -2.736   5.714  -6.215  0.00  0.00    +0.282 C 
ATOM      2  O   UNL     1      -2.658   4.603  -6.704  0.00  0.00    -0.267 OA
ATOM      3  N   UNL     1      -2.382   5.910  -4.929  0.00  0.00    -0.295 N 
ATOM      4  C   UNL     1      -2.318   7.268  -4.370  0.00  0.00    +0.110 C 
ATOM      5  C   UNL     1      -0.936   7.477  -3.742  0.00  0.00    +0.039 C 
ATOM      6  C   UNL     1      -0.667   6.364  -2.726  0.00  0.00    +0.079 C 
ATOM      7  C   UNL     1      -0.675   5.009  -3.437  0.00  0.00    +0.039 C 
ATOM      8  C   UNL     1      -2.054   4.772  -4.061  0.00  0.00    +0.110 C 
ENDROOT
BRANCH   1  11
ATOM      9  C   UNL     1      -3.907   8.099  -8.718  0.00  0.00    +0.042 A 
ATOM     10  C   UNL     1      -3.468   6.814  -8.365  0.00  0.00    +0.054 A 
ATOM     11  C   UNL     1      -3.217   6.839  -7.023  0.00  0.00    +0.189 A 
ATOM     12  O   UNL     1      -3.494   8.080  -6.570  0.00  0.00    -0.458 OA
ATOM     13  C   UNL     1      -3.905   8.844  -7.590  0.00  0.00    +0.196 A 
ENDBRANCH   1  11
BRANCH   6  14
ATOM     14  N   UNL     1       0.639   6.580  -2.100  0.00  0.00    -0.187 NA
ATOM     15  H   UNL     1       1.509   6.846  -2.719  0.00  0.00    +0.148 HD
BRANCH  14  16
ATOM     16  S   UNL     1       0.870   6.187  -0.508  0.00  0.00    +0.060 S 
ATOM     17  O   UNL     1      -0.212   6.760   0.213  0.00  0.00    -0.153 OA
ATOM     18  O   UNL     1       2.227   6.484  -0.209  0.00  0.00    -0.153 OA
BRANCH  16  19
ATOM     19  C   UNL     1       0.695   4.439  -0.373  0.00  0.00    +0.123 A 
ATOM     20  C   UNL     1       1.797   3.609  -0.521  0.00  0.00    +0.033 A 
ATOM     21  C   UNL     1       1.613   2.241  -0.406  0.00  0.00    +0.042 A 
ATOM     22  C   UNL     1       0.345   1.750  -0.149  0.00  0.00    +0.129 A 
ATOM     23  N   UNL     1      -0.681   2.570  -0.019  0.00  0.00    -0.242 NA
ATOM     24  C   UNL     1      -0.541   3.878  -0.117  0.00  0.00    +0.141 A 
ATOM     25 CL   UNL     1       0.100   0.038  -0.003  0.00  0.00    -0.062 Cl
ENDBRANCH  16  19
ENDBRANCH  14  16
ENDBRANCH   6  14
TORSDOF 4
