REMARK  Name = ZINC27550132
REMARK  9 active torsions:
REMARK  status: ('A' for Active; 'I' for Inactive)
REMARK    1  A    between atoms: C_1  and  O_2
REMARK    2  A    between atoms: O_2  and  C_3
REMARK    3  A    between atoms: C_6  and  C_9
REMARK    4  A    between atoms: C_9  and  C_10
REMARK    5  A    between atoms: C_10  and  N_11
REMARK    6  A    between atoms: N_11  and  C_12
REMARK    7  A    between atoms: N_17  and  C_20
REMARK    8  A    between atoms: C_23  and  N_26
REMARK    9  A    between atoms: N_27  and  C_28
REMARK                            x       y       z     vdW  Elec       q    Type
REMARK                         _______ _______ _______ _____ _____    ______ ____
ROOT
ATOM      1  C   UNL     1      11.046  -2.626  -1.588  0.00  0.00    +0.026 C 
ATOM      2  C   UNL     1      11.461  -3.029  -3.017  0.00  0.00    +0.090 C 
ATOM      3  C   UNL     1      11.033  -4.477  -3.117  0.00  0.00    +0.225 C 
ATOM      4  O   UNL     1      11.175  -5.186  -4.089  0.00  0.00    -0.275 OA
ATOM      5  N   UNL     1      10.472  -4.850  -1.960  0.00  0.00    -0.212 N 
ATOM      6  C   UNL     1      10.427  -3.888  -1.026  0.00  0.00    +0.213 C 
ATOM      7  O   UNL     1       9.966  -4.008   0.089  0.00  0.00    -0.277 OA
ENDROOT
BRANCH   5   8
ATOM      8  C   UNL     1       9.973  -6.139  -1.742  0.00  0.00    +0.044 A 
ATOM      9  C   UNL     1       9.524  -6.504  -0.477  0.00  0.00    +0.026 A 
ATOM     10  C   UNL     1       9.034  -7.772  -0.258  0.00  0.00    +0.031 A 
ATOM     11  C   UNL     1       8.987  -8.693  -1.310  0.00  0.00    +0.086 A 
ATOM     12  C   UNL     1       9.439  -8.322  -2.580  0.00  0.00    +0.031 A 
ATOM     13  C   UNL     1       9.924  -7.050  -2.792  0.00  0.00    +0.026 A 
BRANCH  11  14
ATOM     14  N   UNL     1       8.502  -9.951  -1.096  0.00  0.00    -0.149 NA
ATOM     15  N   UNL     1       7.786 -10.198  -0.052  0.00  0.00    -0.149 NA
BRANCH  15  16
ATOM     16  C   UNL     1       6.983  -9.224   0.472  0.00  0.00    +0.086 A 
ATOM     17  C   UNL     1       6.484  -9.350   1.772  0.00  0.00    +0.029 A 
ATOM     18  C   UNL     1       5.675  -8.363   2.294  0.00  0.00    +0.002 A 
ATOM     19  C   UNL     1       5.357  -7.250   1.535  0.00  0.00    +0.000 A 
ATOM     20  C   UNL     1       5.847  -7.119   0.248  0.00  0.00    +0.002 A 
ATOM     21  C   UNL     1       6.662  -8.095  -0.286  0.00  0.00    +0.029 A 
ENDBRANCH  15  16
ENDBRANCH  11  14
ENDBRANCH   5   8
BRANCH   1  22
ATOM     22  N   UNL     1      10.059  -1.538  -1.623  0.00  0.00    +0.387 N 
ATOM     23  H   UNL     1       9.222  -1.858  -2.086  0.00  0.00    -0.085 HD
ATOM     24  H   UNL     1      10.443  -0.752  -2.126  0.00  0.00    -0.085 HD
BRANCH  22  25
ATOM     25  C   UNL     1       9.732  -1.129  -0.250  0.00  0.00    -0.077 C 
BRANCH  25  26
ATOM     26  C   UNL     1       8.705   0.004  -0.287  0.00  0.00    +0.016 C 
BRANCH  26  30
ATOM     27  C   UNL     1       7.755   1.195   3.706  0.00  0.00    +0.120 A 
ATOM     28  C   UNL     1       8.799   1.808   3.028  0.00  0.00    +0.046 A 
ATOM     29  C   UNL     1       9.104   1.421   1.737  0.00  0.00    +0.007 A 
ATOM     30  C   UNL     1       8.370   0.424   1.121  0.00  0.00    -0.049 A 
ATOM     31  C   UNL     1       7.329  -0.188   1.795  0.00  0.00    +0.007 A 
ATOM     32  C   UNL     1       7.023   0.192   3.088  0.00  0.00    +0.046 A 
BRANCH  27  34
ATOM     33  C   UNL     1       8.248   2.614   5.549  0.00  0.00    +0.277 C 
ATOM     34  O   UNL     1       7.453   1.574   4.976  0.00  0.00    -0.495 OA
ENDBRANCH  27  34
ENDBRANCH  26  30
ENDBRANCH  25  26
ENDBRANCH  22  25
ENDBRANCH   1  22
TORSDOF 8
