REMARK  Name = ZINC04287765
REMARK  6 active torsions:
REMARK  status: ('A' for Active; 'I' for Inactive)
REMARK    1  A    between atoms: C_1  and  C_2
REMARK    2  A    between atoms: C_2  and  C_3
REMARK    3  A    between atoms: C_3  and  N_4
REMARK    4  A    between atoms: C_8  and  C_10
REMARK    5  A    between atoms: C_10  and  N_11
REMARK    6  A    between atoms: C_17  and  C_20
REMARK                            x       y       z     vdW  Elec       q    Type
REMARK                         _______ _______ _______ _____ _____    ______ ____
ROOT
ATOM      1  N   UNL     1      -2.430   0.977   0.019  0.00  0.00    -0.215 N 
ATOM      2  C   UNL     1      -2.994   0.470   1.135  0.00  0.00    +0.247 C 
ATOM      3  O   UNL     1      -2.699   0.718   2.284  0.00  0.00    -0.273 OA
ATOM      4  C   UNL     1      -4.072  -0.472   0.650  0.00  0.00    +0.113 C 
ATOM      5  C   UNL     1      -5.441  -0.009   1.137  0.00  0.00    +0.035 C 
ATOM      6  C   UNL     1      -6.521  -0.958   0.613  0.00  0.00    +0.006 C 
ATOM      7  C   UNL     1      -6.237  -2.377   1.111  0.00  0.00    -0.014 C 
ATOM      8  C   UNL     1      -4.872  -2.836   0.594  0.00  0.00    +0.006 C 
ATOM      9  C   UNL     1      -3.785  -1.894   1.119  0.00  0.00    +0.035 C 
ATOM     10  C   UNL     1      -7.322  -3.325   0.598  0.00  0.00    +0.007 C 
ATOM     11  N   UNL     1      -3.990  -0.385  -0.814  0.00  0.00    -0.285 N 
ATOM     12  C   UNL     1      -3.004   0.490  -1.088  0.00  0.00    +0.310 C 
ATOM     13  O   UNL     1      -2.671   0.802  -2.215  0.00  0.00    -0.252 OA
ATOM     14  H   UNL     1      -4.540  -0.861  -1.456  0.00  0.00    +0.151 HD
ENDROOT
BRANCH   1  15
ATOM     15  C   UNL     1      -1.330   1.944   0.019  0.00  0.00    +0.214 C 
BRANCH  15  20
ATOM     16  N   UNL     1       3.478   1.930  -0.021  0.00  0.00    -0.299 N 
ATOM     17  C   UNL     1       2.320   1.240  -0.013  0.00  0.00    +0.306 C 
ATOM     18  O   UNL     1       2.336   0.025  -0.020  0.00  0.00    -0.252 OA
ATOM     19  N   UNL     1       1.143   1.898   0.001  0.00  0.00    -0.239 N 
ATOM     20  C   UNL     1      -0.014   1.208   0.009  0.00  0.00    +0.238 C 
ATOM     21  O   UNL     1       0.002  -0.004   0.002  0.00  0.00    -0.274 OA
ATOM     22  H   UNL     1       3.465   2.900  -0.015  0.00  0.00    +0.150 HD
ATOM     23  H   UNL     1       1.130   2.868   0.007  0.00  0.00    +0.159 HD
BRANCH  16  24
ATOM     24  C   UNL     1       4.756   1.214  -0.037  0.00  0.00    +0.105 C 
BRANCH  24  26
ATOM     25  C   UNL     1       7.241   1.478  -0.059  0.00  0.00    +0.005 C 
ATOM     26  C   UNL     1       5.905   2.224  -0.042  0.00  0.00    +0.015 C 
ENDBRANCH  24  26
ENDBRANCH  16  24
ENDBRANCH  15  20
ENDBRANCH   1  15
TORSDOF 4
