REMARK  Name = ZINC18103492
REMARK  11 active torsions:
REMARK  status: ('A' for Active; 'I' for Inactive)
REMARK    1  A    between atoms: C_1  and  C_2
REMARK    2  A    between atoms: C_6  and  O_9
REMARK    3  A    between atoms: C_7  and  C_8
REMARK    4  A    between atoms: O_9  and  C_10
REMARK    5  A    between atoms: C_10  and  C_12
REMARK    6  A    between atoms: C_10  and  C_13
REMARK    7  A    between atoms: N_15  and  N_16
REMARK    8  A    between atoms: C_17  and  C_19
REMARK    9  A    between atoms: C_22  and  S_25
REMARK   10  A    between atoms: S_25  and  N_28
REMARK   11  A    between atoms: N_28  and  C_29
REMARK                            x       y       z     vdW  Elec       q    Type
REMARK                         _______ _______ _______ _____ _____    ______ ____
ROOT
ATOM      1  N   UNL     1      -2.183   2.101  -1.865  0.00  0.00    -0.230 N 
ATOM      2  C   UNL     1      -3.415   1.612  -1.619  0.00  0.00    +0.260 C 
ATOM      3  O   UNL     1      -3.612   0.414  -1.661  0.00  0.00    -0.269 OA
ATOM      4  H   UNL     1      -2.025   3.057  -1.831  0.00  0.00    +0.173 HD
ENDROOT
BRANCH   2   5
ATOM      5  C   UNL     1      -4.525   2.534  -1.297  0.00  0.00    +0.038 A 
ATOM      6  C   UNL     1      -4.300   3.910  -1.242  0.00  0.00    +0.015 A 
ATOM      7  C   UNL     1      -5.341   4.765  -0.947  0.00  0.00    +0.029 A 
ATOM      8  C   UNL     1      -6.605   4.260  -0.694  0.00  0.00    +0.109 A 
ATOM      9  C   UNL     1      -6.833   2.897  -0.742  0.00  0.00    +0.029 A 
ATOM     10  C   UNL     1      -5.802   2.031  -1.042  0.00  0.00    +0.015 A 
BRANCH   8  11
ATOM     11  S   UNL     1      -7.928   5.359  -0.311  0.00  0.00    +0.072 S 
ATOM     12  O   UNL     1      -7.526   6.648  -0.752  0.00  0.00    -0.150 OA
ATOM     13  O   UNL     1      -9.120   4.734  -0.767  0.00  0.00    -0.150 OA
BRANCH  11  14
ATOM     14  N   UNL     1      -8.037   5.436   1.340  0.00  0.00    -0.216 N 
ATOM     15  H   UNL     1      -8.824   5.094   1.791  0.00  0.00    +0.174 HD
BRANCH  14  16
ATOM     16  C   UNL     1      -6.994   5.995   2.083  0.00  0.00    +0.048 A 
ATOM     17  C   UNL     1      -6.137   5.174   2.806  0.00  0.00    +0.024 A 
ATOM     18  C   UNL     1      -5.104   5.729   3.535  0.00  0.00    +0.002 A 
ATOM     19  C   UNL     1      -4.929   7.101   3.556  0.00  0.00    +0.000 A 
ATOM     20  C   UNL     1      -5.783   7.921   2.842  0.00  0.00    +0.002 A 
ATOM     21  C   UNL     1      -6.815   7.372   2.106  0.00  0.00    +0.024 A 
ENDBRANCH  14  16
ENDBRANCH  11  14
ENDBRANCH   8  11
ENDBRANCH   2   5
BRANCH   1  24
ATOM     22  C   UNL     1       0.100   1.716  -2.421  0.00  0.00    +0.270 C 
ATOM     23  O   UNL     1       0.297   2.912  -2.379  0.00  0.00    -0.270 OA
ATOM     24  N   UNL     1      -1.131   1.227  -2.169  0.00  0.00    -0.231 N 
ATOM     25  H   UNL     1      -1.289   0.271  -2.203  0.00  0.00    +0.173 HD
BRANCH  22  26
ATOM     26  C   UNL     1       1.230   0.777  -2.755  0.00  0.00    +0.257 C 
ATOM     27  C   UNL     1       1.448  -0.192  -1.591  0.00  0.00    +0.062 C 
BRANCH  26  28
ATOM     28  O   UNL     1       2.424   1.530  -2.978  0.00  0.00    -0.480 OA
BRANCH  28  34
ATOM     29  C   UNL     1       6.658   1.927  -5.375  0.00  0.00    +0.044 C 
ATOM     30  C   UNL     1       5.429   1.143  -4.992  0.00  0.00    -0.044 A 
ATOM     31  C   UNL     1       5.248  -0.138  -5.481  0.00  0.00    +0.004 A 
ATOM     32  C   UNL     1       4.122  -0.861  -5.133  0.00  0.00    +0.004 A 
ATOM     33  C   UNL     1       3.178  -0.307  -4.290  0.00  0.00    +0.046 A 
ATOM     34  C   UNL     1       3.354   0.980  -3.803  0.00  0.00    +0.125 A 
ATOM     35  C   UNL     1       4.485   1.703  -4.154  0.00  0.00    -0.006 A 
ATOM     36  C   UNL     1       4.683   3.100  -3.623  0.00  0.00    +0.048 C 
ENDBRANCH  28  34
ENDBRANCH  26  28
ENDBRANCH  22  26
ENDBRANCH   1  24
TORSDOF 8
