REMARK  Name = ZINC64704658
REMARK  8 active torsions:
REMARK  status: ('A' for Active; 'I' for Inactive)
REMARK    1  A    between atoms: C_1  and  C_2
REMARK    2  A    between atoms: C_2  and  O_3
REMARK    3  A    between atoms: O_3  and  C_4
REMARK    4  A    between atoms: C_4  and  C_6
REMARK    5  A    between atoms: C_8  and  N_19
REMARK    6  A    between atoms: N_19  and  C_20
REMARK    7  A    between atoms: C_20  and  C_21
REMARK    8  A    between atoms: C_21  and  N_22
REMARK                            x       y       z     vdW  Elec       q    Type
REMARK                         _______ _______ _______ _____ _____    ______ ____
ROOT
ATOM      1  C   UNL     1       0.481  -4.651   3.101  0.00  0.00    +0.228 C 
ATOM      2  C   UNL     1       1.419  -3.776   2.292  0.00  0.00    +0.036 C 
ATOM      3  C   UNL     1       1.403  -2.400   2.568  0.00  0.00    +0.016 A 
ATOM      4  C   UNL     1       2.242  -1.517   1.864  0.00  0.00    +0.011 A 
ATOM      5  C   UNL     1       2.211  -0.185   2.147  0.00  0.00    +0.002 A 
ATOM      6  C   UNL     1       1.362   0.326   3.123  0.00  0.00    +0.022 A 
ATOM      7  C   UNL     1       0.521  -0.487   3.843  0.00  0.00    +0.063 A 
ATOM      8  C   UNL     1       0.507  -1.872   3.597  0.00  0.00    +0.061 A 
ATOM      9  N   UNL     1      -0.315  -2.665   4.300  0.00  0.00    -0.283 N 
ATOM     10  C   UNL     1      -0.388  -3.968   4.132  0.00  0.00    +0.237 C 
ATOM     11  O   UNL     1      -1.159  -4.624   4.808  0.00  0.00    -0.274 OA
ATOM     12 CL   UNL     1      -0.521   0.192   5.053  0.00  0.00    -0.082 Cl
ATOM     13  H   UNL     1      -0.886  -2.256   4.968  0.00  0.00    +0.155 HD
ENDROOT
BRANCH   1  14
ATOM     14  C   UNL     1       1.312  -5.688   3.811  0.00  0.00    +0.325 C 
ATOM     15  O   UNL     1       2.391  -5.390   4.266  0.00  0.00    -0.250 OA
BRANCH  14  16
ATOM     16  O   UNL     1       0.854  -6.943   3.938  0.00  0.00    -0.464 OA
BRANCH  16  18
ATOM     17  C   UNL     1       1.010  -9.242   4.669  0.00  0.00    +0.048 C 
ATOM     18  C   UNL     1       1.695  -7.874   4.623  0.00  0.00    +0.229 C 
ENDBRANCH  16  18
ENDBRANCH  14  16
ENDBRANCH   1  14
BRANCH   2  19
ATOM     19  N   UNL     1       2.228  -4.293   1.357  0.00  0.00    -0.344 N 
ATOM     20  H   UNL     1       2.824  -3.713   0.857  0.00  0.00    +0.146 HD
BRANCH  19  21
ATOM     21  C   UNL     1       2.211  -5.733   1.090  0.00  0.00    +0.120 C 
BRANCH  21  22
ATOM     22  C   UNL     1       3.113  -6.040  -0.108  0.00  0.00    +0.123 C 
BRANCH  22  23
ATOM     23  N   UNL     1       3.096  -7.480  -0.375  0.00  0.00    -0.328 N 
ATOM     24  C   UNL     1       4.068  -8.371   0.274  0.00  0.00    +0.105 C 
ATOM     25  C   UNL     1       4.609  -9.331  -0.794  0.00  0.00    +0.024 C 
ATOM     26  C   UNL     1       3.457 -10.192  -1.312  0.00  0.00    +0.038 C 
ATOM     27  C   UNL     1       2.296  -9.325  -1.725  0.00  0.00    -0.026 A 
ATOM     28  C   UNL     1       2.151  -8.030  -1.248  0.00  0.00    +0.033 A 
ATOM     29  C   UNL     1       1.062  -7.260  -1.640  0.00  0.00    +0.023 A 
ATOM     30  C   UNL     1       0.121  -7.784  -2.503  0.00  0.00    +0.002 A 
ATOM     31  C   UNL     1       0.262  -9.075  -2.977  0.00  0.00    +0.000 A 
ATOM     32  C   UNL     1       1.351  -9.841  -2.596  0.00  0.00    +0.005 A 
ENDBRANCH  22  23
ENDBRANCH  21  22
ENDBRANCH  19  21
ENDBRANCH   2  19
TORSDOF 7
