REMARK  Name = ZINC13572967
REMARK  10 active torsions:
REMARK  status: ('A' for Active; 'I' for Inactive)
REMARK    1  A    between atoms: C_1  and  C_2
REMARK    2  A    between atoms: C_2  and  N_57
REMARK    3  A    between atoms: C_3  and  C_4
REMARK    4  A    between atoms: C_3  and  N_57
REMARK    5  A    between atoms: C_5  and  C_6
REMARK    6  A    between atoms: C_5  and  N_57
REMARK    7  A    between atoms: C_6  and  C_7
REMARK    8  A    between atoms: C_7  and  N_8
REMARK    9  A    between atoms: C_14  and  C_24
REMARK   10  A    between atoms: C_19  and  O_23
REMARK                            x       y       z     vdW  Elec       q    Type
REMARK                         _______ _______ _______ _____ _____    ______ ____
ROOT
ATOM      1  N   UNL     1       1.461  -0.940   0.338  0.00  0.00    -0.318 N 
ATOM      2  C   UNL     1       2.063   0.268   0.198  0.00  0.00    +0.204 A 
ATOM      3  N   UNL     1       3.347   0.410   0.353  0.00  0.00    -0.202 NA
ATOM      4  C   UNL     1       4.151  -0.625   0.661  0.00  0.00    +0.229 A 
ATOM      5  C   UNL     1       3.621  -1.869   0.819  0.00  0.00    +0.066 A 
ATOM      6  C   UNL     1       2.227  -2.046   0.653  0.00  0.00    +0.115 A 
ATOM      7  C   UNL     1       4.484  -3.050   1.164  0.00  0.00    +0.091 C 
ATOM      8  C   UNL     1       5.930  -2.744   0.879  0.00  0.00    +0.007 A 
ATOM      9  C   UNL     1       6.840  -3.782   0.781  0.00  0.00    +0.012 A 
ATOM     10  C   UNL     1       8.170  -3.519   0.520  0.00  0.00    +0.046 A 
ATOM     11  C   UNL     1       8.598  -2.209   0.354  0.00  0.00    +0.120 A 
ATOM     12  C   UNL     1       7.690  -1.168   0.452  0.00  0.00    +0.092 A 
ATOM     13  C   UNL     1       6.352  -1.435   0.715  0.00  0.00    +0.138 A 
ATOM     14  O   UNL     1       5.476  -0.406   0.809  0.00  0.00    -0.437 OA
ATOM     15  H   UNL     1       0.727  -3.440   0.698  0.00  0.00    +0.157 HD
ATOM     16  N   UNL     1       1.727  -3.278   0.811  0.00  0.00    -0.384 N 
ATOM     17  H   UNL     1       2.351  -4.059   1.045  0.00  0.00    +0.157 HD
ENDROOT
BRANCH   7  18
ATOM     18  C   UNL     1       4.322  -3.375   2.626  0.00  0.00    -0.035 A 
ATOM     19  C   UNL     1       4.650  -2.433   3.584  0.00  0.00    +0.006 A 
ATOM     20  C   UNL     1       4.497  -2.729   4.925  0.00  0.00    +0.020 A 
ATOM     21  C   UNL     1       4.026  -3.972   5.310  0.00  0.00    +0.041 A 
ATOM     22  C   UNL     1       3.703  -4.916   4.351  0.00  0.00    +0.020 A 
ATOM     23  C   UNL     1       3.852  -4.617   3.010  0.00  0.00    +0.006 A 
ATOM     24 CL   UNL     1       3.839  -4.346   6.995  0.00  0.00    -0.084 Cl
ENDBRANCH   7  18
BRANCH  11  25
ATOM     25  O   UNL     1       9.907  -1.949   0.096  0.00  0.00    -0.507 OA
ATOM     26  H   UNL     1      10.126  -1.931  -0.845  0.00  0.00    +0.292 HD
ENDBRANCH  11  25
BRANCH   1  27
ATOM     27  C   UNL     1       0.013  -1.071   0.159  0.00  0.00    +0.123 C 
BRANCH  27  28
ATOM     28  C   UNL     1      -0.680  -0.979   1.519  0.00  0.00    +0.003 C 
BRANCH  28  29
ATOM     29  C   UNL     1      -2.193  -1.115   1.331  0.00  0.00    -0.077 C 
BRANCH  29  30
ATOM     30  N   UNL     1      -2.846  -1.045   2.655  0.00  0.00    +0.379 N 
ATOM     31  H   UNL     1      -2.396  -1.719   3.285  0.00  0.00    -0.082 HD
BRANCH  30  33
ATOM     32  C   UNL     1      -3.336   1.351   2.296  0.00  0.00    -0.017 C 
ATOM     33  C   UNL     1      -2.698   0.313   3.220  0.00  0.00    -0.082 C 
ENDBRANCH  30  33
BRANCH  30  34
ATOM     34  C   UNL     1      -4.278  -1.387   2.531  0.00  0.00    -0.082 C 
ATOM     35  C   UNL     1      -4.840  -1.665   3.926  0.00  0.00    -0.017 C 
ENDBRANCH  30  34
ENDBRANCH  29  30
ENDBRANCH  28  29
ENDBRANCH  27  28
ENDBRANCH   1  27
TORSDOF 8
