REMARK  Name = ZINC14962569
REMARK  10 active torsions:
REMARK  status: ('A' for Active; 'I' for Inactive)
REMARK    1  A    between atoms: C_1  and  C_2
REMARK    2  A    between atoms: C_2  and  C_37
REMARK    3  A    between atoms: C_7  and  C_11
REMARK    4  A    between atoms: C_11  and  N_72
REMARK    5  A    between atoms: C_15  and  C_25
REMARK    6  A    between atoms: C_16  and  O_23
REMARK    7  A    between atoms: O_23  and  C_24
REMARK    8  A    between atoms: C_31  and  C_33
REMARK    9  A    between atoms: C_33  and  O_35
REMARK   10  A    between atoms: O_35  and  C_36
REMARK                            x       y       z     vdW  Elec       q    Type
REMARK                         _______ _______ _______ _____ _____    ______ ____
ROOT
ATOM      1  C   UNL     1       4.136  -2.440   3.942  0.00  0.00    -0.072 C 
ATOM      2  C   UNL     1       3.368  -1.901   2.736  0.00  0.00    +0.036 C 
ATOM      3  C   UNL     1       4.283  -1.679   1.556  0.00  0.00    +0.036 A 
ATOM      4  C   UNL     1       3.919  -0.679   0.667  0.00  0.00    +0.098 A 
ATOM      5  C   UNL     1       4.732  -0.444  -0.527  0.00  0.00    +0.139 A 
ATOM      6  C   UNL     1       5.844  -1.241  -0.715  0.00  0.00    +0.116 A 
ATOM      7  C   UNL     1       6.141  -2.221   0.232  0.00  0.00    +0.255 A 
ATOM      8  O   UNL     1       7.114  -2.936   0.055  0.00  0.00    -0.268 OA
ATOM      9  N   UNL     1       5.387  -2.405   1.341  0.00  0.00    -0.313 N 
ATOM     10  C   UNL     1       5.858  -3.422   2.287  0.00  0.00    +0.106 C 
ATOM     11  C   UNL     1       4.736  -4.394   2.656  0.00  0.00    -0.056 C 
ATOM     12  N   UNL     1       4.083  -3.915   3.889  0.00  0.00    +0.384 N 
ATOM     13  H   UNL     1       3.100  -4.214   3.885  0.00  0.00    -0.081 HD
ENDROOT
BRANCH   4  14
ATOM     14  C   UNL     1       2.719   0.137   0.919  0.00  0.00    +0.253 C 
ATOM     15  O   UNL     1       1.667  -0.145   0.378  0.00  0.00    -0.270 OA
ATOM     16  N   UNL     1       2.786   1.197   1.748  0.00  0.00    -0.284 N 
ATOM     17  C   UNL     1       3.959   1.585   2.552  0.00  0.00    +0.109 C 
ATOM     18  C   UNL     1       3.379   2.405   3.732  0.00  0.00    +0.021 C 
ATOM     19  C   UNL     1       2.225   3.176   3.037  0.00  0.00    +0.035 C 
ATOM     20  C   UNL     1       1.702   2.157   2.002  0.00  0.00    +0.185 C 
BRANCH  20  21
ATOM     21  C   UNL     1       1.336   2.867   0.724  0.00  0.00    +0.328 C 
ATOM     22  O   UNL     1       1.908   2.593  -0.304  0.00  0.00    -0.249 OA
BRANCH  21  23
ATOM     23  O   UNL     1       0.378   3.806   0.729  0.00  0.00    -0.467 OA
ATOM     24  C   UNL     1       0.081   4.452  -0.537  0.00  0.00    +0.280 C 
ENDBRANCH  21  23
ENDBRANCH  20  21
ENDBRANCH   4  14
BRANCH   5  25
ATOM     25  O   UNL     1       4.409   0.526  -1.413  0.00  0.00    -0.494 OA
ATOM     26  C   UNL     1       5.203   0.612  -2.599  0.00  0.00    +0.277 C 
ENDBRANCH   5  25
BRANCH  12  27
ATOM     27  C   UNL     1       4.755  -4.489   5.074  0.00  0.00    -0.047 C 
BRANCH  27  33
ATOM     28  C   UNL     1       1.200  -7.989   5.049  0.00  0.00    +0.012 C 
ATOM     29  C   UNL     1       2.637  -7.578   4.721  0.00  0.00    -0.025 C 
ATOM     30  C   UNL     1       3.702  -8.540   5.275  0.00  0.00    -0.000 C 
ATOM     31  C   UNL     1       5.091  -8.305   4.667  0.00  0.00    +0.031 C 
ATOM     32  C   UNL     1       5.374  -6.823   4.604  0.00  0.00    -0.029 C 
ATOM     33  C   UNL     1       4.505  -5.975   5.105  0.00  0.00    -0.086 C 
ATOM     34  C   UNL     1       3.236  -6.549   5.711  0.00  0.00    +0.019 C 
ATOM     35  C   UNL     1       3.544  -7.768   6.600  0.00  0.00    +0.012 C 
ATOM     36  C   UNL     1       2.837  -7.212   3.249  0.00  0.00    +0.012 C 
ENDBRANCH  27  33
ENDBRANCH  12  27
TORSDOF 6
