REMARK  Name = ZINC12689464
REMARK  9 active torsions:
REMARK  status: ('A' for Active; 'I' for Inactive)
REMARK    1  A    between atoms: C_1  and  C_2
REMARK    2  A    between atoms: C_4  and  C_15
REMARK    3  A    between atoms: C_5  and  C_14
REMARK    4  A    between atoms: N_6  and  C_7
REMARK    5  A    between atoms: C_7  and  C_8
REMARK    6  A    between atoms: N_19  and  C_20
REMARK    7  A    between atoms: C_21  and  C_33
REMARK    8  A    between atoms: N_22  and  C_32
REMARK    9  A    between atoms: N_23  and  C_26
REMARK                            x       y       z     vdW  Elec       q    Type
REMARK                         _______ _______ _______ _____ _____    ______ ____
ROOT
ATOM      1  C   UNL     1      -3.074   2.254  -0.764  0.00  0.00    +0.078 C 
ATOM      2  N   UNL     1      -4.087   3.017  -0.635  0.00  0.00    -0.184 NA
ATOM      3  N   UNL     1      -5.403   2.621  -0.399  0.00  0.00    -0.215 N 
ATOM      4  C   UNL     1      -5.717   1.268  -0.422  0.00  0.00    +0.175 C 
ATOM      5  N   UNL     1      -6.846   0.823  -0.919  0.00  0.00    -0.218 NA
ATOM      6  S   UNL     1      -4.495   0.181   0.265  0.00  0.00    -0.083 S 
ATOM      7  C   UNL     1      -3.072   0.755  -0.704  0.00  0.00    +0.134 C 
ATOM      8  H   UNL     1      -6.177   3.377  -0.199  0.00  0.00    +0.176 HD
ENDROOT
BRANCH   5   9
ATOM      9  C   UNL     1      -7.070  -0.532  -1.011  0.00  0.00    +0.153 A 
ATOM     10  C   UNL     1      -7.552  -1.340  -0.031  0.00  0.00    +0.064 A 
ATOM     11  N   UNL     1      -7.629  -2.619  -0.519  0.00  0.00    -0.282 N 
ATOM     12  N   UNL     1      -7.186  -2.634  -1.846  0.00  0.00    -0.215 N 
ATOM     13  C   UNL     1      -6.839  -1.377  -2.190  0.00  0.00    +0.298 A 
ATOM     14  O   UNL     1      -6.413  -1.012  -3.271  0.00  0.00    -0.264 OA
ATOM     15  C   UNL     1      -8.101  -3.786   0.230  0.00  0.00    +0.171 C 
ATOM     16  C   UNL     1      -7.937  -0.904   1.359  0.00  0.00    +0.067 C 
BRANCH  12  17
ATOM     17  C   UNL     1      -7.119  -3.759  -2.675  0.00  0.00    +0.067 A 
ATOM     18  C   UNL     1      -6.531  -4.929  -2.213  0.00  0.00    +0.028 A 
ATOM     19  C   UNL     1      -6.471  -6.040  -3.032  0.00  0.00    +0.002 A 
ATOM     20  C   UNL     1      -6.986  -5.983  -4.314  0.00  0.00    +0.000 A 
ATOM     21  C   UNL     1      -7.566  -4.818  -4.779  0.00  0.00    +0.002 A 
ATOM     22  C   UNL     1      -7.635  -3.705  -3.963  0.00  0.00    +0.028 A 
ENDBRANCH  12  17
ENDBRANCH   5   9
BRANCH   1  26
ATOM     23  C   UNL     1       1.905   3.033  -1.576  0.00  0.00    +0.063 C 
ATOM     24  C   UNL     1       0.429   3.234  -1.349  0.00  0.00    +0.017 A 
ATOM     25  C   UNL     1      -0.475   2.254  -1.164  0.00  0.00    +0.032 A 
ATOM     26  C   UNL     1      -1.773   2.911  -0.991  0.00  0.00    +0.019 A 
ATOM     27  C   UNL     1      -1.537   4.253  -1.077  0.00  0.00    +0.025 A 
ATOM     28  N   UNL     1      -0.208   4.438  -1.297  0.00  0.00    -0.343 N 
ATOM     29  C   UNL     1      -2.572   5.341  -0.957  0.00  0.00    +0.064 C 
BRANCH  28  30
ATOM     30  C   UNL     1       0.443   5.741  -1.455  0.00  0.00    +0.156 C 
BRANCH  30  31
ATOM     31  C   UNL     1       0.443   6.129  -2.911  0.00  0.00    -0.028 A 
ATOM     32  C   UNL     1       1.502   5.766  -3.723  0.00  0.00    +0.005 A 
ATOM     33  C   UNL     1       1.499   6.119  -5.060  0.00  0.00    +0.000 A 
ATOM     34  C   UNL     1       0.444   6.842  -5.582  0.00  0.00    +0.000 A 
ATOM     35  C   UNL     1      -0.612   7.209  -4.769  0.00  0.00    +0.000 A 
ATOM     36  C   UNL     1      -0.612   6.853  -3.433  0.00  0.00    +0.005 A 
ENDBRANCH  30  31
ENDBRANCH  28  30
ENDBRANCH   1  26
TORSDOF 5
