REMARK  Name = ZINC48265278
REMARK  7 active torsions:
REMARK  status: ('A' for Active; 'I' for Inactive)
REMARK    1  A    between atoms: C_3  and  O_24
REMARK    2  A    between atoms: C_6  and  C_7
REMARK    3  A    between atoms: N_9  and  C_10
REMARK    4  A    between atoms: C_10  and  C_11
REMARK    5  A    between atoms: C_11  and  N_12
REMARK    6  A    between atoms: C_13  and  C_15
REMARK    7  A    between atoms: C_15  and  N_16
REMARK                            x       y       z     vdW  Elec       q    Type
REMARK                         _______ _______ _______ _____ _____    ______ ____
ROOT
ATOM      1  C   UNL     1      -2.200  -4.360   0.001  0.00  0.00    +0.123 C 
ENDROOT
BRANCH   1   2
ATOM      2  N   UNL     1      -3.457  -5.112   0.009  0.00  0.00    -0.312 N 
ATOM      3  C   UNL     1      -3.437  -6.460   0.002  0.00  0.00    +0.233 C 
ATOM      4  O   UNL     1      -2.378  -7.050  -0.012  0.00  0.00    -0.274 OA
ATOM      5  H   UNL     1      -4.304  -4.640   0.020  0.00  0.00    +0.149 HD
BRANCH   3   6
ATOM      6  C   UNL     1      -4.731  -7.233   0.010  0.00  0.00    +0.220 C 
BRANCH   6   7
ATOM      7  N   UNL     1      -4.441  -8.669  -0.000  0.00  0.00    -0.305 N 
ATOM      8  C   UNL     1      -4.315  -9.319  -1.186  0.00  0.00    +0.105 A 
ATOM      9  C   UNL     1      -4.047 -10.646  -1.221  0.00  0.00    +0.034 A 
ATOM     10  C   UNL     1      -3.897 -11.362  -0.024  0.00  0.00    +0.022 A 
ATOM     11  C   UNL     1      -4.025 -10.706   1.165  0.00  0.00    +0.071 A 
ATOM     12  C   UNL     1      -4.298  -9.328   1.165  0.00  0.00    +0.252 A 
ATOM     13  O   UNL     1      -4.410  -8.728   2.223  0.00  0.00    -0.268 OA
ATOM     14 BR   UNL     1      -3.875 -11.534  -2.881  0.00  0.00    -0.049 Br
ENDBRANCH   6   7
ENDBRANCH   3   6
ENDBRANCH   1   2
BRANCH   1  15
ATOM     15  C   UNL     1      -2.502  -2.861   0.012  0.00  0.00    +0.123 C 
BRANCH  15  18
ATOM     16  C   UNL     1      -1.265  -0.761   0.011  0.00  0.00    +0.244 C 
ATOM     17  O   UNL     1      -2.327  -0.169   0.024  0.00  0.00    -0.270 OA
ATOM     18  N   UNL     1      -1.244  -2.109   0.003  0.00  0.00    -0.310 N 
ATOM     19  H   UNL     1      -0.397  -2.581  -0.008  0.00  0.00    +0.149 HD
BRANCH  16  25
ATOM     20  C   UNL     1      -0.017   1.393   0.010  0.00  0.00    +0.016 A 
ATOM     21  C   UNL     1       1.167   2.096   0.002  0.00  0.00    +0.046 A 
ATOM     22  C   UNL     1       2.380   1.417  -0.013  0.00  0.00    +0.117 A 
ATOM     23  C   UNL     1       2.403   0.028  -0.021  0.00  0.00    +0.046 A 
ATOM     24  C   UNL     1       1.224  -0.682  -0.013  0.00  0.00    +0.016 A 
ATOM     25  C   UNL     1       0.002  -0.004   0.002  0.00  0.00    +0.037 A 
BRANCH  22  26
ATOM     26  O   UNL     1       3.545   2.114  -0.021  0.00  0.00    -0.507 OA
ATOM     27  H   UNL     1       3.891   2.311   0.860  0.00  0.00    +0.292 HD
ENDBRANCH  22  26
ENDBRANCH  16  25
ENDBRANCH  15  18
ENDBRANCH   1  15
TORSDOF 7
