REMARK  Name = ZINC25448006
REMARK  7 active torsions:
REMARK  status: ('A' for Active; 'I' for Inactive)
REMARK    1  A    between atoms: C_1  and  C_2
REMARK    2  A    between atoms: C_2  and  C_4
REMARK    3  A    between atoms: C_2  and  N_11
REMARK    4  A    between atoms: N_11  and  C_12
REMARK    5  A    between atoms: C_12  and  C_13
REMARK    6  A    between atoms: N_15  and  C_16
REMARK    7  A    between atoms: C_16  and  C_17
REMARK                            x       y       z     vdW  Elec       q    Type
REMARK                         _______ _______ _______ _____ _____    ______ ____
ROOT
ATOM      1  C   UNL     1      -0.057  -4.110  -0.620  0.00  0.00    +0.196 C 
ATOM      2  O   UNL     1       0.615  -4.737   0.172  0.00  0.00    -0.278 OA
ATOM      3  N   UNL     1       0.155  -2.790  -0.787  0.00  0.00    -0.313 N 
ATOM      4  H   UNL     1      -0.454  -2.222  -1.505  0.00  0.00    +0.149 HD
ENDROOT
BRANCH   1   5
ATOM      5  C   UNL     1      -1.129  -4.808  -1.417  0.00  0.00    +0.016 C 
BRANCH   5   6
ATOM      6  N   UNL     1      -1.160  -6.231  -1.055  0.00  0.00    +0.389 N 
ATOM      7  H   UNL     1      -1.370  -6.317   0.022  0.00  0.00    -0.084 HD
ATOM      8  H   UNL     1      -0.176  -6.673  -1.272  0.00  0.00    -0.084 HD
BRANCH   6  10
ATOM      9  C   UNL     1      -1.630  -7.371  -3.171  0.00  0.00    -0.009 C 
ATOM     10  C   UNL     1      -2.195  -6.946  -1.814  0.00  0.00    -0.042 C 
BRANCH  10  11
ATOM     11  C   UNL     1      -2.629  -8.167  -1.045  0.00  0.00    -0.043 A 
ATOM     12  C   UNL     1      -1.813  -8.690  -0.060  0.00  0.00    +0.003 A 
ATOM     13  C   UNL     1      -2.211  -9.810   0.645  0.00  0.00    +0.000 A 
ATOM     14  C   UNL     1      -3.426 -10.408   0.366  0.00  0.00    +0.001 A 
ATOM     15  C   UNL     1      -4.243  -9.886  -0.619  0.00  0.00    +0.020 A 
ATOM     16  C   UNL     1      -3.848  -8.761  -1.321  0.00  0.00    +0.043 A 
ATOM     17 CL   UNL     1      -4.877  -8.100  -2.553  0.00  0.00    -0.083 Cl
ENDBRANCH  10  11
ENDBRANCH   6  10
ENDBRANCH   5   6
ENDBRANCH   1   5
BRANCH   3  18
ATOM     18  C   UNL     1       1.197  -2.111  -0.012  0.00  0.00    +0.152 C 
BRANCH  18  19
ATOM     19  C   UNL     1       1.229  -0.629  -0.390  0.00  0.00    +0.228 C 
ATOM     20  C   UNL     1       2.381   0.069   0.348  0.00  0.00    +0.275 C 
ATOM     21  O   UNL     1       2.373   1.453  -0.018  0.00  0.00    -0.485 OA
ATOM     22  C   UNL     1       1.168   2.084   0.002  0.00  0.00    +0.162 A 
ATOM     23  C   UNL     1       1.126   3.471   0.014  0.00  0.00    +0.049 A 
ATOM     24  C   UNL     1      -0.091   4.126   0.030  0.00  0.00    +0.004 A 
ATOM     25  C   UNL     1      -1.269   3.403   0.034  0.00  0.00    +0.004 A 
ATOM     26  C   UNL     1      -1.234   2.021   0.030  0.00  0.00    +0.049 A 
ATOM     27  C   UNL     1      -0.016   1.357   0.009  0.00  0.00    +0.163 A 
ATOM     28  O   UNL     1       0.002  -0.004   0.002  0.00  0.00    -0.480 OA
ENDBRANCH  18  19
ENDBRANCH   3  18
TORSDOF 6
