REMARK  Name = ZINC22727515
REMARK  7 active torsions:
REMARK  status: ('A' for Active; 'I' for Inactive)
REMARK    1  A    between atoms: C_1  and  C_2
REMARK    2  A    between atoms: C_2  and  O_3
REMARK    3  A    between atoms: O_3  and  C_4
REMARK    4  A    between atoms: C_11  and  C_18
REMARK    5  A    between atoms: C_13  and  O_14
REMARK    6  A    between atoms: C_18  and  S_19
REMARK    7  A    between atoms: S_19  and  C_20
REMARK                            x       y       z     vdW  Elec       q    Type
REMARK                         _______ _______ _______ _____ _____    ______ ____
ROOT
ATOM      1  C   UNL     1       6.047   3.312  -0.305  0.00  0.00    +0.405 C 
ATOM      2  O   UNL     1       5.947   2.228  -0.846  0.00  0.00    -0.226 OA
ATOM      3  N   UNL     1       4.951   3.928   0.178  0.00  0.00    -0.251 N 
ATOM      4  C   UNL     1       3.717   3.276   0.156  0.00  0.00    +0.040 A 
ATOM      5  C   UNL     1       2.548   4.013  -0.031  0.00  0.00    +0.024 A 
ATOM      6  C   UNL     1       1.335   3.390  -0.055  0.00  0.00    +0.013 A 
ATOM      7  C   UNL     1       1.262   2.002   0.110  0.00  0.00    +0.022 A 
ATOM      8  C   UNL     1      -0.027   1.307   0.090  0.00  0.00    -0.020 A 
ATOM      9  C   UNL     1      -0.032  -0.041   0.255  0.00  0.00    +0.092 A 
ATOM     10  C   UNL     1       1.185  -0.730   0.440  0.00  0.00    +0.285 A 
ATOM     11  O   UNL     1       2.363  -0.087   0.458  0.00  0.00    -0.425 OA
ATOM     12  C   UNL     1       2.438   1.252   0.299  0.00  0.00    +0.141 A 
ATOM     13  C   UNL     1       3.663   1.900   0.321  0.00  0.00    +0.070 A 
ATOM     14  H   UNL     1       5.028   4.945   0.591  0.00  0.00    +0.158 HD
ENDROOT
BRANCH  10  15
ATOM     15  O   UNL     1       1.166  -1.939   0.587  0.00  0.00    -0.480 OA
ATOM     16  H   UNL     1       2.107  -2.490   0.732  0.00  0.00    +0.295 HD
ENDBRANCH  10  15
BRANCH   1  17
ATOM     17  O   UNL     1       7.254   3.897  -0.190  0.00  0.00    -0.450 OA
BRANCH  17  19
ATOM     18  C   UNL     1       9.667   3.991  -0.511  0.00  0.00    +0.048 C 
ATOM     19  C   UNL     1       8.391   3.175  -0.734  0.00  0.00    +0.230 C 
ENDBRANCH  17  19
ENDBRANCH   1  17
BRANCH   8  20
ATOM     20  C   UNL     1      -1.312   2.067  -0.115  0.00  0.00    +0.113 C 
BRANCH  20  21
ATOM     21  S   UNL     1      -1.973   2.578   1.490  0.00  0.00    -0.088 S 
BRANCH  21  22
ATOM     22  C   UNL     1      -3.431   3.419   0.967  0.00  0.00    +0.128 C 
ATOM     23  N   UNL     1      -3.716   3.501  -0.303  0.00  0.00    -0.382 N 
ATOM     24  N   UNL     1      -4.268   3.989   1.898  0.00  0.00    -0.307 N 
ATOM     25  C   UNL     1      -3.915   4.002   3.326  0.00  0.00    +0.135 C 
ATOM     26  C   UNL     1      -4.071   5.441   3.845  0.00  0.00    +0.179 C 
ATOM     27  O   UNL     1      -5.375   5.921   3.509  0.00  0.00    -0.377 OA
ATOM     28  C   UNL     1      -5.626   6.002   2.104  0.00  0.00    +0.179 C 
ATOM     29  C   UNL     1      -5.546   4.597   1.496  0.00  0.00    +0.135 C 
ATOM     30  H   UNL     1      -4.626   4.025  -0.630  0.00  0.00    +0.158 HD
ATOM     31  H   UNL     1      -3.047   3.045  -1.048  0.00  0.00    +0.158 HD
ENDBRANCH  21  22
ENDBRANCH  20  21
ENDBRANCH   8  20
TORSDOF 6
