REMARK  Name = ZINC67589706
REMARK  7 active torsions:
REMARK  status: ('A' for Active; 'I' for Inactive)
REMARK    1  A    between atoms: C_1  and  C_2
REMARK    2  A    between atoms: C_2  and  O_3
REMARK    3  A    between atoms: O_3  and  C_4
REMARK    4  A    between atoms: N_13  and  C_14
REMARK    5  A    between atoms: C_14  and  C_15
REMARK    6  A    between atoms: C_15  and  C_17
REMARK    7  A    between atoms: C_15  and  N_22
REMARK                            x       y       z     vdW  Elec       q    Type
REMARK                         _______ _______ _______ _____ _____    ______ ____
ROOT
ATOM      1  C   UNL     1       0.434  -1.972  -1.249  0.00  0.00    +0.136 C 
ATOM      2  C   UNL     1       0.320  -2.410  -2.711  0.00  0.00    +0.035 C 
ATOM      3  C   UNL     1       0.390  -3.936  -2.796  0.00  0.00    +0.022 C 
ATOM      4  C   UNL     1       1.740  -4.413  -2.252  0.00  0.00    +0.109 C 
ATOM      5  N   UNL     1       1.922  -3.874  -0.897  0.00  0.00    -0.283 N 
ATOM      6  C   UNL     1       1.785  -2.427  -0.688  0.00  0.00    +0.140 C 
ATOM      7  C   UNL     1       2.208  -4.693   0.134  0.00  0.00    +0.302 C 
ATOM      8  O   UNL     1       2.444  -4.228   1.232  0.00  0.00    -0.253 OA
ATOM      9  N   UNL     1       2.231  -6.028  -0.051  0.00  0.00    -0.297 N 
ATOM     10  H   UNL     1       2.112  -6.396  -0.941  0.00  0.00    +0.150 HD
ENDROOT
BRANCH   1  11
ATOM     11  O   UNL     1       0.338  -0.549  -1.168  0.00  0.00    -0.375 OA
BRANCH  11  13
ATOM     12  C   UNL     1      -0.284   1.456   0.029  0.00  0.00    +0.034 C 
ATOM     13  C   UNL     1      -0.231  -0.073   0.053  0.00  0.00    +0.157 C 
ENDBRANCH  11  13
ENDBRANCH   1  11
BRANCH   9  14
ATOM     14  C   UNL     1       2.437  -6.923   1.090  0.00  0.00    +0.130 C 
BRANCH  14  15
ATOM     15  C   UNL     1       2.549  -8.366   0.594  0.00  0.00    +0.111 C 
BRANCH  15  16
ATOM     16  N   UNL     1       1.374  -8.694  -0.225  0.00  0.00    -0.289 NA
ATOM     17  C   UNL     1       0.129  -8.388   0.494  0.00  0.00    +0.113 C 
ATOM     18  C   UNL     1      -1.066  -8.688  -0.415  0.00  0.00    +0.175 C 
ATOM     19  O   UNL     1      -1.006 -10.054  -0.837  0.00  0.00    -0.377 OA
ATOM     20  C   UNL     1       0.193 -10.387  -1.541  0.00  0.00    +0.175 C 
ATOM     21  C   UNL     1       1.401 -10.103  -0.643  0.00  0.00    +0.113 C 
ENDBRANCH  15  16
BRANCH  15  22
ATOM     22  C   UNL     1       3.797  -8.516  -0.237  0.00  0.00    +0.008 A 
ATOM     23  C   UNL     1       4.999  -9.034   0.115  0.00  0.00    +0.013 A 
ATOM     24  C   UNL     1       6.014  -9.071  -0.823  0.00  0.00    +0.008 A 
ATOM     25  C   UNL     1       5.777  -8.589  -2.067  0.00  0.00    +0.045 A 
ATOM     26  S   UNL     1       4.074  -8.065  -1.942  0.00  0.00    -0.100 S 
ENDBRANCH  15  22
ENDBRANCH  14  15
ENDBRANCH   9  14
TORSDOF 6
