REMARK  Name = ZINC21026153
REMARK  10 active torsions:
REMARK  status: ('A' for Active; 'I' for Inactive)
REMARK    1  A    between atoms: C_1  and  N_2
REMARK    2  A    between atoms: N_2  and  C_3
REMARK    3  A    between atoms: N_2  and  C_4
REMARK    4  A    between atoms: C_4  and  C_5
REMARK    5  A    between atoms: C_5  and  N_6
REMARK    6  A    between atoms: N_6  and  C_7
REMARK    7  A    between atoms: C_7  and  C_8
REMARK    8  A    between atoms: C_13  and  C_15
REMARK    9  A    between atoms: C_15  and  N_16
REMARK   10  A    between atoms: N_16  and  C_17
REMARK                            x       y       z     vdW  Elec       q    Type
REMARK                         _______ _______ _______ _____ _____    ______ ____
ROOT
ATOM      1  N   UNL     1       1.266   3.693   3.495  0.00  0.00    -0.295 N 
ATOM      2  C   UNL     1       0.539   3.236   2.455  0.00  0.00    +0.233 C 
ATOM      3  O   UNL     1       0.269   3.975   1.533  0.00  0.00    -0.274 OA
ENDROOT
BRANCH   1   4
ATOM      4  C   UNL     1       1.728   5.083   3.510  0.00  0.00    +0.090 C 
BRANCH   4   5
ATOM      5  C   UNL     1       0.676   5.963   4.188  0.00  0.00    -0.060 C 
BRANCH   5   7
ATOM      6  C   UNL     1       0.067   8.265   4.628  0.00  0.00    -0.097 C 
ATOM      7  N   UNL     1       1.140   7.357   4.203  0.00  0.00    +0.377 N 
ATOM      8  C   UNL     1       2.326   7.508   5.058  0.00  0.00    -0.097 C 
ATOM      9  H   UNL     1       1.426   7.629   3.177  0.00  0.00    -0.083 HD
ENDBRANCH   5   7
ENDBRANCH   4   5
ENDBRANCH   1   4
BRANCH   1  10
ATOM     10  C   UNL     1       1.592   2.800   4.609  0.00  0.00    +0.181 C 
BRANCH  10  11
ATOM     11  C   UNL     1       2.899   2.104   4.328  0.00  0.00    +0.122 A 
ATOM     12  C   UNL     1       4.119   2.551   4.674  0.00  0.00    +0.046 A 
ATOM     13  C   UNL     1       5.052   1.592   4.218  0.00  0.00    +0.041 A 
ATOM     14  C   UNL     1       4.346   0.615   3.620  0.00  0.00    +0.195 A 
ATOM     15  O   UNL     1       3.042   0.928   3.696  0.00  0.00    -0.466 OA
ENDBRANCH  10  11
ENDBRANCH   1  10
BRANCH   2  16
ATOM     16  C   UNL     1       0.063   1.806   2.440  0.00  0.00    +0.202 C 
BRANCH  16  17
ATOM     17  N   UNL     1      -0.698   1.558   1.213  0.00  0.00    -0.302 N 
ATOM     18  C   UNL     1      -0.013   1.086   0.008  0.00  0.00    +0.132 C 
ATOM     19  C   UNL     1      -2.071   1.771   1.193  0.00  0.00    +0.186 A 
ATOM     20  N   UNL     1      -2.867   2.184   2.161  0.00  0.00    -0.124 NA
ATOM     21  N   UNL     1      -4.214   2.332   1.922  0.00  0.00    -0.124 NA
ATOM     22  C   UNL     1      -4.704   2.052   0.731  0.00  0.00    +0.192 A 
ATOM     23  S   UNL     1      -3.231   1.553  -0.147  0.00  0.00    -0.015 S 
ATOM     24  N   UNL     1      -6.019   2.125   0.278  0.00  0.00    -0.249 N 
ATOM     25  C   UNL     1      -7.156   2.554   1.101  0.00  0.00    +0.116 C 
ATOM     26  C   UNL     1      -8.415   2.068   0.350  0.00  0.00    +0.029 C 
ATOM     27  C   UNL     1      -7.905   1.998  -1.108  0.00  0.00    +0.098 C 
ATOM     28  C   UNL     1      -6.409   1.817  -0.971  0.00  0.00    +0.221 C 
ATOM     29  O   UNL     1      -5.670   1.447  -1.858  0.00  0.00    -0.275 OA
ENDBRANCH  16  17
ENDBRANCH   2  16
TORSDOF 7
