REMARK  Name = ZINC06051752
REMARK  7 active torsions:
REMARK  status: ('A' for Active; 'I' for Inactive)
REMARK    1  A    between atoms: C_1  and  C_2
REMARK    2  A    between atoms: C_3  and  C_11
REMARK    3  A    between atoms: C_4  and  N_10
REMARK    4  A    between atoms: N_5  and  C_7
REMARK    5  A    between atoms: C_7  and  C_8
REMARK    6  A    between atoms: C_8  and  O_9
REMARK    7  A    between atoms: C_11  and  O_23
REMARK                            x       y       z     vdW  Elec       q    Type
REMARK                         _______ _______ _______ _____ _____    ______ ____
ROOT
ATOM      1  C   UNL     1      -0.229  -0.344  -2.555  0.00  0.00    +0.199 C 
ATOM      2  C   UNL     1      -1.630   0.159  -2.812  0.00  0.00    +0.021 A 
ATOM      3  C   UNL     1      -2.866  -0.447  -2.762  0.00  0.00    +0.029 A 
ATOM      4  C   UNL     1      -4.006   0.282  -3.057  0.00  0.00    +0.043 A 
ATOM      5  C   UNL     1      -3.898   1.618  -3.401  0.00  0.00    +0.042 A 
ATOM      6  C   UNL     1      -2.660   2.227  -3.453  0.00  0.00    +0.064 A 
ATOM      7  C   UNL     1      -1.508   1.498  -3.157  0.00  0.00    +0.059 A 
ATOM      8  N   UNL     1      -0.166   1.881  -3.139  0.00  0.00    -0.281 N 
ATOM      9  C   UNL     1       0.647   0.866  -2.798  0.00  0.00    +0.258 C 
ATOM     10  O   UNL     1       1.856   0.912  -2.704  0.00  0.00    -0.272 OA
ATOM     11 CL   UNL     1      -2.537   3.904  -3.886  0.00  0.00    -0.082 Cl
ATOM     12 CL   UNL     1      -5.566  -0.477  -2.994  0.00  0.00    -0.083 Cl
ATOM     13  H   UNL     1       0.145   2.775  -3.349  0.00  0.00    +0.155 HD
ENDROOT
BRANCH   1  16
ATOM     14  C   UNL     1       0.195   1.497  -0.012  0.00  0.00    +0.065 C 
ATOM     15  C   UNL     1       0.096  -0.006  -0.008  0.00  0.00    +0.040 A 
ATOM     16  C   UNL     1      -0.091  -0.818  -1.131  0.00  0.00    +0.057 A 
ATOM     17  C   UNL     1      -0.126  -2.112  -0.709  0.00  0.00    +0.119 A 
ATOM     18  N   UNL     1       0.034  -2.107   0.634  0.00  0.00    -0.271 N 
ATOM     19  N   UNL     1       0.176  -0.776   1.047  0.00  0.00    -0.300 N 
ATOM     20  H   UNL     1       0.309  -0.476   1.960  0.00  0.00    +0.187 HD
BRANCH  17  21
ATOM     21  N   UNL     1      -0.296  -3.235  -1.513  0.00  0.00    -0.343 N 
ATOM     22  H   UNL     1      -0.404  -3.133  -2.472  0.00  0.00    +0.144 HD
ATOM     23  H   UNL     1      -0.307  -4.120  -1.115  0.00  0.00    +0.144 HD
ENDBRANCH  17  21
BRANCH  18  24
ATOM     24  C   UNL     1       0.058  -3.287   1.503  0.00  0.00    +0.171 C 
BRANCH  24  25
ATOM     25  C   UNL     1       1.474  -3.866   1.537  0.00  0.00    +0.179 C 
BRANCH  25  26
ATOM     26  O   UNL     1       1.498  -5.016   2.384  0.00  0.00    -0.393 OA
ATOM     27  H   UNL     1       2.366  -5.436   2.453  0.00  0.00    +0.209 HD
ENDBRANCH  25  26
ENDBRANCH  24  25
ENDBRANCH  18  24
ENDBRANCH   1  16
BRANCH   1  28
ATOM     28  O   UNL     1       0.105  -1.394  -3.465  0.00  0.00    -0.371 OA
ATOM     29  H   UNL     1       0.033  -1.145  -4.396  0.00  0.00    +0.212 HD
ENDBRANCH   1  28
TORSDOF 6
