REMARK  Name = ZINC39710444
REMARK  10 active torsions:
REMARK  status: ('A' for Active; 'I' for Inactive)
REMARK    1  A    between atoms: C_1  and  C_2
REMARK    2  A    between atoms: C_2  and  C_3
REMARK    3  A    between atoms: C_10  and  C_15
REMARK    4  A    between atoms: C_15  and  C_17
REMARK    5  A    between atoms: C_15  and  N_26
REMARK    6  A    between atoms: N_21  and  C_22
REMARK    7  A    between atoms: C_22  and  C_23
REMARK    8  A    between atoms: C_23  and  O_24
REMARK    9  A    between atoms: O_24  and  C_25
REMARK   10  A    between atoms: N_29  and  C_32
REMARK                            x       y       z     vdW  Elec       q    Type
REMARK                         _______ _______ _______ _____ _____    ______ ____
ROOT
ATOM      1  C   UNL     1      -5.974  -3.723  -3.369  0.00  0.00    +0.142 C 
ENDROOT
BRANCH   1   9
ATOM      2  C   UNL     1      -3.412  -0.442   0.720  0.00  0.00    -0.047 A 
ATOM      3  C   UNL     1      -4.158  -1.040   1.736  0.00  0.00    +0.005 A 
ATOM      4  C   UNL     1      -5.234  -1.831   1.486  0.00  0.00    +0.024 A 
ATOM      5  C   UNL     1      -5.644  -2.082   0.164  0.00  0.00    +0.040 A 
ATOM      6  N   UNL     1      -6.702  -2.860  -0.069  0.00  0.00    -0.284 N 
ATOM      7  C   UNL     1      -7.141  -3.136  -1.286  0.00  0.00    +0.226 C 
ATOM      8  O   UNL     1      -8.112  -3.853  -1.436  0.00  0.00    -0.275 OA
ATOM      9  C   UNL     1      -6.431  -2.558  -2.489  0.00  0.00    +0.123 C 
ATOM     10  C   UNL     1      -5.228  -1.673  -2.229  0.00  0.00    -0.003 C 
ATOM     11  C   UNL     1      -4.875  -1.463  -0.929  0.00  0.00    -0.007 A 
ATOM     12  C   UNL     1      -3.730  -0.618  -0.589  0.00  0.00    +0.013 A 
ATOM     13  H   UNL     1      -7.171  -3.241   0.689  0.00  0.00    +0.155 HD
BRANCH   2  15
ATOM     14  C   UNL     1      -2.696   1.870   1.260  0.00  0.00    +0.009 C 
ATOM     15  C   UNL     1      -2.232   0.423   1.083  0.00  0.00    +0.032 C 
ENDBRANCH   2  15
ENDBRANCH   1   9
BRANCH   1  16
ATOM     16  N   UNL     1      -7.147  -4.471  -3.839  0.00  0.00    -0.289 NA
ATOM     17  C   UNL     1      -8.017  -3.622  -4.664  0.00  0.00    +0.104 C 
ATOM     18  C   UNL     1      -9.311  -4.378  -4.982  0.00  0.00    +0.120 C 
ATOM     19  N   UNL     1      -8.959  -5.675  -5.581  0.00  0.00    -0.327 N 
ATOM     20  C   UNL     1      -7.985  -6.524  -4.879  0.00  0.00    +0.120 C 
ATOM     21  C   UNL     1      -6.743  -5.683  -4.565  0.00  0.00    +0.104 C 
BRANCH  19  22
ATOM     22  C   UNL     1      -9.535  -6.088  -6.785  0.00  0.00    +0.030 A 
ATOM     23  C   UNL     1      -9.295  -7.369  -7.267  0.00  0.00    +0.023 A 
ATOM     24  C   UNL     1      -9.866  -7.775  -8.457  0.00  0.00    +0.002 A 
ATOM     25  C   UNL     1     -10.676  -6.909  -9.168  0.00  0.00    +0.000 A 
ATOM     26  C   UNL     1     -10.917  -5.633  -8.691  0.00  0.00    +0.002 A 
ATOM     27  C   UNL     1     -10.353  -5.223  -7.499  0.00  0.00    +0.023 A 
ENDBRANCH  19  22
ENDBRANCH   1  16
BRANCH   1  28
ATOM     28  C   UNL     1      -5.082  -4.638  -2.569  0.00  0.00    +0.170 A 
ATOM     29  N   UNL     1      -5.432  -5.364  -1.536  0.00  0.00    -0.112 NA
ATOM     30  N   UNL     1      -4.392  -6.007  -1.130  0.00  0.00    -0.023 NA
ATOM     31  N   UNL     1      -3.387  -5.709  -1.879  0.00  0.00    -0.044 NA
ATOM     32  N   UNL     1      -3.774  -4.872  -2.781  0.00  0.00    -0.225 N 
BRANCH  32  33
ATOM     33  C   UNL     1      -2.944  -4.284  -3.835  0.00  0.00    +0.175 C 
BRANCH  33  34
ATOM     34  C   UNL     1      -2.204  -3.064  -3.281  0.00  0.00    +0.183 C 
BRANCH  34  35
ATOM     35  O   UNL     1      -1.485  -2.424  -4.337  0.00  0.00    -0.381 OA
ATOM     36  C   UNL     1      -0.755  -1.267  -3.924  0.00  0.00    +0.194 C 
ENDBRANCH  34  35
ENDBRANCH  33  34
ENDBRANCH  32  33
ENDBRANCH   1  28
TORSDOF 8
