REMARK  Name = ZINC34998750
REMARK  10 active torsions:
REMARK  status: ('A' for Active; 'I' for Inactive)
REMARK    1  A    between atoms: C_1  and  C_2
REMARK    2  A    between atoms: C_2  and  C_3
REMARK    3  A    between atoms: C_3  and  C_4
REMARK    4  A    between atoms: C_4  and  N_5
REMARK    5  A    between atoms: C_13  and  C_15
REMARK    6  A    between atoms: C_16  and  C_18
REMARK    7  A    between atoms: C_18  and  C_20
REMARK    8  A    between atoms: C_18  and  N_27
REMARK    9  A    between atoms: C_20  and  C_21
REMARK   10  A    between atoms: N_30  and  C_31
REMARK                            x       y       z     vdW  Elec       q    Type
REMARK                         _______ _______ _______ _____ _____    ______ ____
ROOT
ATOM      1  C   UNL     1      -8.840  -4.755   0.480  0.00  0.00    +0.165 C 
ENDROOT
BRANCH   1  12
ATOM      2  N   UNL     1      -2.127  -4.988   2.851  0.00  0.00    -0.299 N 
ATOM      3  C   UNL     1      -3.155  -4.117   2.824  0.00  0.00    +0.303 C 
ATOM      4  O   UNL     1      -2.955  -2.934   3.021  0.00  0.00    -0.253 OA
ATOM      5  N   UNL     1      -4.405  -4.558   2.577  0.00  0.00    -0.280 N 
ATOM      6  C   UNL     1      -4.680  -5.996   2.454  0.00  0.00    +0.128 C 
ATOM      7  C   UNL     1      -5.363  -6.251   1.104  0.00  0.00    +0.127 C 
ATOM      8  N   UNL     1      -6.475  -5.301   0.954  0.00  0.00    -0.297 N 
ATOM      9  C   UNL     1      -6.199  -3.863   1.077  0.00  0.00    +0.130 C 
ATOM     10  C   UNL     1      -5.517  -3.609   2.433  0.00  0.00    +0.092 C 
ATOM     11  C   UNL     1      -6.523  -3.821   3.566  0.00  0.00    +0.030 C 
ATOM     12  C   UNL     1      -7.724  -5.742   0.708  0.00  0.00    +0.236 C 
ATOM     13  O   UNL     1      -7.951  -6.933   0.668  0.00  0.00    -0.274 OA
ATOM     14  H   UNL     1      -2.294  -5.940   2.766  0.00  0.00    +0.150 HD
BRANCH   2  15
ATOM     15  C   UNL     1      -0.755  -4.497   3.010  0.00  0.00    +0.106 C 
BRANCH  15  16
ATOM     16  C   UNL     1       0.213  -5.682   3.009  0.00  0.00    +0.018 C 
BRANCH  16  18
ATOM     17  C   UNL     1       2.614  -6.354   3.175  0.00  0.00    +0.004 C 
ATOM     18  C   UNL     1       1.645  -5.169   3.176  0.00  0.00    -0.002 C 
ENDBRANCH  16  18
ENDBRANCH  15  16
ENDBRANCH   2  15
ENDBRANCH   1  12
BRANCH   1  19
ATOM     19  N   UNL     1     -10.123  -5.461   0.474  0.00  0.00    -0.288 N 
ATOM     20  C   UNL     1     -11.256  -4.803   0.790  0.00  0.00    +0.305 C 
ATOM     21  O   UNL     1     -11.213  -3.624   1.081  0.00  0.00    -0.252 OA
ATOM     22  N   UNL     1     -12.437  -5.454   0.785  0.00  0.00    -0.267 N 
ATOM     23  H   UNL     1     -10.158  -6.402   0.242  0.00  0.00    +0.151 HD
ATOM     24  H   UNL     1     -12.464  -6.409   0.620  0.00  0.00    +0.156 HD
BRANCH  22  25
ATOM     25  C   UNL     1     -13.625  -4.749   1.017  0.00  0.00    +0.070 A 
ATOM     26  C   UNL     1     -13.613  -3.603   1.799  0.00  0.00    +0.026 A 
ATOM     27  C   UNL     1     -14.786  -2.910   2.027  0.00  0.00    +0.002 A 
ATOM     28  C   UNL     1     -15.974  -3.357   1.477  0.00  0.00    +0.003 A 
ATOM     29  C   UNL     1     -15.991  -4.499   0.697  0.00  0.00    +0.040 A 
ATOM     30  C   UNL     1     -14.819  -5.194   0.461  0.00  0.00    +0.145 A 
ATOM     31  F   UNL     1     -14.835  -6.307  -0.306  0.00  0.00    -0.204 F 
ENDBRANCH  22  25
ENDBRANCH   1  19
BRANCH   1  32
ATOM     32  C   UNL     1      -8.636  -4.056  -0.865  0.00  0.00    +0.067 C 
BRANCH  32  33
ATOM     33  C   UNL     1      -9.660  -2.961  -1.023  0.00  0.00    -0.045 A 
ATOM     34  C   UNL     1     -10.882  -3.237  -1.607  0.00  0.00    +0.004 A 
ATOM     35  C   UNL     1     -11.821  -2.233  -1.752  0.00  0.00    +0.000 A 
ATOM     36  C   UNL     1     -11.539  -0.953  -1.311  0.00  0.00    +0.000 A 
ATOM     37  C   UNL     1     -10.317  -0.678  -0.727  0.00  0.00    +0.000 A 
ATOM     38  C   UNL     1      -9.379  -1.683  -0.578  0.00  0.00    +0.004 A 
ENDBRANCH  32  33
ENDBRANCH   1  32
TORSDOF 8
