REMARK  Name = ZINC63389876
REMARK  7 active torsions:
REMARK  status: ('A' for Active; 'I' for Inactive)
REMARK    1  A    between atoms: C_6  and  C_11
REMARK    2  A    between atoms: C_19  and  C_21
REMARK    3  A    between atoms: C_21  and  C_22
REMARK    4  A    between atoms: C_22  and  C_23
REMARK    5  A    between atoms: C_23  and  C_24
REMARK    6  A    between atoms: N_26  and  C_27
REMARK    7  A    between atoms: C_27  and  C_28
REMARK                            x       y       z     vdW  Elec       q    Type
REMARK                         _______ _______ _______ _____ _____    ______ ____
ROOT
ATOM      1  C   UNL     1       3.631  -2.749  -1.285  0.00  0.00    +0.242 C 
ATOM      2  O   UNL     1       4.291  -2.141  -2.101  0.00  0.00    -0.273 OA
ATOM      3  N   UNL     1       3.335  -4.048  -1.491  0.00  0.00    -0.297 N 
ATOM      4  C   UNL     1       2.531  -4.795  -0.513  0.00  0.00    +0.127 C 
ATOM      5  C   UNL     1       1.323  -5.404  -1.236  0.00  0.00    +0.126 C 
ATOM      6  N   UNL     1       1.797  -6.098  -2.442  0.00  0.00    -0.298 N 
ATOM      7  C   UNL     1       2.601  -5.350  -3.419  0.00  0.00    +0.126 C 
ATOM      8  C   UNL     1       3.804  -4.740  -2.699  0.00  0.00    +0.127 C 
ATOM      9  C   UNL     1       1.501  -7.396  -2.648  0.00  0.00    +0.216 C 
ATOM     10  O   UNL     1       0.837  -8.003  -1.834  0.00  0.00    -0.276 OA
ENDROOT
BRANCH   1  16
ATOM     11  C   UNL     1      -0.016   1.348   0.009  0.00  0.00    +0.001 A 
ATOM     12  C   UNL     1       1.166   2.101   0.002  0.00  0.00    +0.002 A 
ATOM     13  C   UNL     1       2.391   1.535  -0.013  0.00  0.00    +0.026 A 
ATOM     14  C   UNL     1       2.529   0.120  -0.022  0.00  0.00    +0.043 A 
ATOM     15  N   UNL     1       3.587  -0.654  -0.037  0.00  0.00    -0.370 N 
ATOM     16  C   UNL     1       3.143  -2.053  -0.041  0.00  0.00    +0.190 C 
ATOM     17  C   UNL     1       1.631  -2.008  -0.025  0.00  0.00    +0.016 C 
ATOM     18  C   UNL     1       1.295  -0.698  -0.014  0.00  0.00    -0.004 A 
ATOM     19  C   UNL     1       0.002  -0.004   0.002  0.00  0.00    +0.010 A 
ATOM     20  H   UNL     1       4.509  -0.353  -0.045  0.00  0.00    +0.161 HD
ENDBRANCH   1  16
BRANCH   9  21
ATOM     21  C   UNL     1       1.994  -8.094  -3.889  0.00  0.00    +0.096 C 
BRANCH  21  22
ATOM     22  C   UNL     1       1.522  -9.549  -3.877  0.00  0.00    +0.018 C 
BRANCH  22  23
ATOM     23  C   UNL     1       2.022 -10.258  -5.138  0.00  0.00    +0.096 C 
BRANCH  23  24
ATOM     24  C   UNL     1       1.557 -11.691  -5.126  0.00  0.00    +0.213 C 
ATOM     25  O   UNL     1       0.891 -12.105  -4.201  0.00  0.00    -0.276 OA
ATOM     26  N   UNL     1       1.882 -12.513  -6.144  0.00  0.00    -0.308 N 
ATOM     27  H   UNL     1       2.414 -12.182  -6.884  0.00  0.00    +0.149 HD
BRANCH  26  28
ATOM     28  C   UNL     1       1.430 -13.906  -6.133  0.00  0.00    +0.178 C 
BRANCH  28  29
ATOM     29  C   UNL     1       1.923 -14.604  -7.374  0.00  0.00    +0.122 A 
ATOM     30  C   UNL     1       3.088 -15.264  -7.495  0.00  0.00    +0.046 A 
ATOM     31  C   UNL     1       3.144 -15.759  -8.819  0.00  0.00    +0.041 A 
ATOM     32  C   UNL     1       2.009 -15.372  -9.427  0.00  0.00    +0.195 A 
ATOM     33  O   UNL     1       1.270 -14.678  -8.546  0.00  0.00    -0.466 OA
ENDBRANCH  28  29
ENDBRANCH  26  28
ENDBRANCH  23  24
ENDBRANCH  22  23
ENDBRANCH  21  22
ENDBRANCH   9  21
TORSDOF 7
