REMARK  Name = ZINC04335206
REMARK  4 active torsions:
REMARK  status: ('A' for Active; 'I' for Inactive)
REMARK    1  A    between atoms: C_3  and  O_29
REMARK    2  A    between atoms: C_6  and  C_7
REMARK    3  A    between atoms: N_17  and  C_20
REMARK    4  A    between atoms: C_23  and  N_26
REMARK                            x       y       z     vdW  Elec       q    Type
REMARK                         _______ _______ _______ _____ _____    ______ ____
ROOT
ATOM      1  C   UNL     1      -1.187  -6.616  -4.372  0.00  0.00    +0.028 C 
ATOM      2  C   UNL     1      -1.304  -5.500  -3.608  0.00  0.00    +0.079 C 
ATOM      3  C   UNL     1      -2.498  -4.924  -2.947  0.00  0.00    +0.276 C 
ATOM      4  O   UNL     1      -3.598  -5.447  -3.034  0.00  0.00    -0.267 OA
ATOM      5  N   UNL     1      -2.307  -3.821  -2.257  0.00  0.00    -0.154 NA
ATOM      6  C   UNL     1      -1.122  -3.240  -2.160  0.00  0.00    +0.154 C 
ATOM      7  S   UNL     1      -0.061  -4.312  -3.116  0.00  0.00    -0.052 S 
ATOM      8  N   UNL     1      -0.788  -2.097  -1.484  0.00  0.00    -0.308 N 
ATOM      9  C   UNL     1      -1.804  -1.334  -0.742  0.00  0.00    +0.125 C 
ATOM     10  C   UNL     1      -1.724   0.133  -1.175  0.00  0.00    +0.124 C 
ATOM     11  N   UNL     1      -0.345   0.614  -1.013  0.00  0.00    -0.327 N 
ATOM     12  C   UNL     1       0.582  -0.120  -1.885  0.00  0.00    +0.124 C 
ATOM     13  C   UNL     1       0.596  -1.598  -1.481  0.00  0.00    +0.125 C 
ENDROOT
BRANCH   1  19
ATOM     14  C   UNL     1      -3.124  -7.818  -3.382  0.00  0.00    +0.011 A 
ATOM     15  C   UNL     1      -4.186  -8.686  -3.503  0.00  0.00    +0.046 A 
ATOM     16  C   UNL     1      -4.451  -9.299  -4.723  0.00  0.00    +0.117 A 
ATOM     17  C   UNL     1      -3.650  -9.035  -5.828  0.00  0.00    +0.046 A 
ATOM     18  C   UNL     1      -2.589  -8.165  -5.720  0.00  0.00    +0.011 A 
ATOM     19  C   UNL     1      -2.317  -7.544  -4.494  0.00  0.00    -0.024 A 
BRANCH  16  20
ATOM     20  O   UNL     1      -5.495 -10.159  -4.834  0.00  0.00    -0.507 OA
ATOM     21  H   UNL     1      -5.269 -11.080  -4.644  0.00  0.00    +0.292 HD
ENDBRANCH  16  20
ENDBRANCH   1  19
BRANCH  11  22
ATOM     22  C   UNL     1      -0.264   1.989  -1.241  0.00  0.00    +0.030 A 
ATOM     23  C   UNL     1      -1.404   2.707  -1.579  0.00  0.00    +0.025 A 
ATOM     24  C   UNL     1      -1.322   4.068  -1.799  0.00  0.00    +0.034 A 
ATOM     25  C   UNL     1      -0.104   4.714  -1.694  0.00  0.00    +0.126 A 
ATOM     26  C   UNL     1       1.034   4.002  -1.364  0.00  0.00    +0.034 A 
ATOM     27  C   UNL     1       0.958   2.642  -1.137  0.00  0.00    +0.025 A 
BRANCH  25  28
ATOM     28  N   UNL     1      -0.018   6.172  -1.936  0.00  0.00    +0.056 N 
ATOM     29  O   UNL     1       1.054   6.743  -1.844  0.00  0.00    -0.126 OA
ATOM     30  O   UNL     1      -1.020   6.801  -2.227  0.00  0.00    -0.126 OA
ENDBRANCH  25  28
ENDBRANCH  11  22
TORSDOF 4
