REMARK  Name = ZINC37866201
REMARK  7 active torsions:
REMARK  status: ('A' for Active; 'I' for Inactive)
REMARK    1  A    between atoms: C_1  and  C_2
REMARK    2  A    between atoms: C_5  and  C_8
REMARK    3  A    between atoms: C_8  and  C_31
REMARK    4  A    between atoms: N_11  and  C_15
REMARK    5  A    between atoms: C_15  and  C_16
REMARK    6  A    between atoms: C_18  and  O_19
REMARK    7  A    between atoms: C_28  and  C_30
REMARK                            x       y       z     vdW  Elec       q    Type
REMARK                         _______ _______ _______ _____ _____    ______ ____
ROOT
ATOM      1  C   UNL     1       3.158  -6.275   1.597  0.00  0.00    +0.154 C 
ENDROOT
BRANCH   1   2
ATOM      2  C   UNL     1       2.573  -7.655   1.749  0.00  0.00    -0.012 A 
ATOM      3  C   UNL     1       1.646  -7.923   2.737  0.00  0.00    +0.093 A 
ATOM      4  C   UNL     1       1.118  -9.200   2.862  0.00  0.00    +0.285 A 
ATOM      5  O   UNL     1       1.486 -10.190   2.042  0.00  0.00    -0.425 OA
ATOM      6  C   UNL     1       2.388  -9.983   1.060  0.00  0.00    +0.141 A 
ATOM      7  C   UNL     1       2.955  -8.701   0.882  0.00  0.00    +0.022 A 
ATOM      8  C   UNL     1       3.891  -8.480  -0.143  0.00  0.00    +0.014 A 
ATOM      9  C   UNL     1       4.246  -9.499  -0.968  0.00  0.00    +0.024 A 
ATOM     10  C   UNL     1       3.683 -10.777  -0.803  0.00  0.00    +0.037 A 
ATOM     11  C   UNL     1       2.761 -11.015   0.218  0.00  0.00    +0.070 A 
ATOM     12  N   UNL     1       4.048 -11.790  -1.636  0.00  0.00    -0.286 N 
ATOM     13  C   UNL     1       3.315 -12.885  -1.702  0.00  0.00    +0.214 C 
ATOM     14  O   UNL     1       2.250 -12.942  -1.113  0.00  0.00    -0.276 OA
ATOM     15  C   UNL     1       3.796 -14.065  -2.507  0.00  0.00    +0.109 C 
ATOM     16  H   UNL     1       4.846 -11.707  -2.180  0.00  0.00    +0.155 HD
BRANCH   4  17
ATOM     17  O   UNL     1       0.215  -9.448   3.830  0.00  0.00    -0.480 OA
ATOM     18  H   UNL     1      -0.102 -10.362   3.848  0.00  0.00    +0.295 HD
ENDBRANCH   4  17
ENDBRANCH   1   2
BRANCH   1  22
ATOM     19  C   UNL     1       0.614  -4.030   0.087  0.00  0.00    +0.135 C 
ATOM     20  C   UNL     1       1.263  -4.697   1.283  0.00  0.00    +0.251 C 
ATOM     21  O   UNL     1       0.949  -4.577   2.448  0.00  0.00    -0.272 OA
ATOM     22  N   UNL     1       2.261  -5.451   0.783  0.00  0.00    -0.220 N 
ATOM     23  C   UNL     1       2.332  -5.355  -0.550  0.00  0.00    +0.310 C 
ATOM     24  O   UNL     1       3.151  -5.944  -1.228  0.00  0.00    -0.252 OA
ATOM     25  N   UNL     1       1.395  -4.533  -1.056  0.00  0.00    -0.281 N 
ATOM     26  C   UNL     1      -0.853  -4.448  -0.037  0.00  0.00    +0.047 C 
ATOM     27  H   UNL     1       1.260  -4.314  -1.992  0.00  0.00    +0.152 HD
BRANCH  19  32
ATOM     28  C   UNL     1       1.052   1.719   0.478  0.00  0.00    +0.044 C 
ATOM     29  C   UNL     1       0.938   0.220   0.376  0.00  0.00    -0.050 A 
ATOM     30  C   UNL     1       0.994  -0.395  -0.861  0.00  0.00    +0.004 A 
ATOM     31  C   UNL     1       0.890  -1.770  -0.954  0.00  0.00    +0.006 A 
ATOM     32  C   UNL     1       0.729  -2.530   0.189  0.00  0.00    -0.015 A 
ATOM     33  C   UNL     1       0.673  -1.916   1.426  0.00  0.00    +0.006 A 
ATOM     34  C   UNL     1       0.782  -0.541   1.520  0.00  0.00    +0.004 A 
ENDBRANCH  19  32
ENDBRANCH   1  22
TORSDOF 4
