REMARK  Name = ZINC35188577
REMARK  10 active torsions:
REMARK  status: ('A' for Active; 'I' for Inactive)
REMARK    1  A    between atoms: C_1  and  C_2
REMARK    2  A    between atoms: C_2  and  O_3
REMARK    3  A    between atoms: O_3  and  C_4
REMARK    4  A    between atoms: C_4  and  C_6
REMARK    5  A    between atoms: C_7  and  N_40
REMARK    6  A    between atoms: C_11  and  C_15
REMARK    7  A    between atoms: C_16  and  C_39
REMARK    8  A    between atoms: C_25  and  C_27
REMARK    9  A    between atoms: C_31  and  C_38
REMARK   10  A    between atoms: C_34  and  O_37
REMARK                            x       y       z     vdW  Elec       q    Type
REMARK                         _______ _______ _______ _____ _____    ______ ____
ROOT
ATOM      1  C   UNL     1      -0.218  -2.007  -5.181  0.00  0.00    +0.119 A 
ATOM      2  C   UNL     1      -0.052  -3.251  -4.593  0.00  0.00    +0.055 A 
ATOM      3  C   UNL     1       0.988  -4.107  -5.089  0.00  0.00    +0.031 A 
ATOM      4  C   UNL     1       1.259  -5.472  -4.836  0.00  0.00    -0.027 A 
ATOM      5  C   UNL     1       2.422  -6.026  -5.357  0.00  0.00    -0.018 A 
ATOM      6  C   UNL     1       3.293  -5.291  -6.157  0.00  0.00    +0.018 A 
ATOM      7  N   UNL     1       2.967  -4.042  -6.500  0.00  0.00    -0.352 N 
ATOM      8  C   UNL     1       1.871  -3.491  -6.032  0.00  0.00    +0.088 A 
ATOM      9  S   UNL     1       1.108  -1.936  -6.371  0.00  0.00    -0.062 S 
ATOM     10  C   UNL     1       4.605  -5.846  -6.646  0.00  0.00    +0.063 C 
ATOM     11  C   UNL     1       2.535  -7.469  -4.917  0.00  0.00    -0.002 C 
ATOM     12  C   UNL     1       2.784  -8.326  -6.133  0.00  0.00    +0.012 C 
ATOM     13  C   UNL     1       2.169  -9.697  -6.183  0.00  0.00    +0.005 C 
ATOM     14  C   UNL     1       0.765  -9.787  -5.619  0.00  0.00    +0.003 C 
ATOM     15  C   UNL     1       0.644  -9.096  -4.285  0.00  0.00    +0.001 C 
ATOM     16  C   UNL     1       1.281  -7.774  -4.109  0.00  0.00    +0.010 C 
ATOM     17  C   UNL     1       0.476  -6.487  -4.060  0.00  0.00    +0.021 C 
ATOM     18  C   UNL     1      -0.941  -6.546  -4.618  0.00  0.00    +0.013 C 
ATOM     19  C   UNL     1      -0.721  -9.326  -3.662  0.00  0.00    +0.031 C 
ATOM     20  C   UNL     1      -1.825  -9.285  -4.672  0.00  0.00    -0.027 C 
ATOM     21  C   UNL     1      -1.664  -9.319  -5.965  0.00  0.00    -0.065 C 
ATOM     22  C   UNL     1      -0.317  -9.442  -6.620  0.00  0.00    -0.008 C 
ATOM     23  C   UNL     1      -0.366 -10.522  -7.708  0.00  0.00    +0.014 C 
ATOM     24  C   UNL     1      -1.542 -10.294  -8.651  0.00  0.00    +0.032 C 
ATOM     25  C   UNL     1      -2.862 -10.360  -7.881  0.00  0.00    +0.119 C 
ATOM     26  C   UNL     1      -2.898  -9.237  -6.843  0.00  0.00    +0.062 C 
ATOM     27  C   UNL     1      -0.004  -8.116  -7.308  0.00  0.00    +0.016 C 
ATOM     28  C   UNL     1       3.740  -7.606  -3.964  0.00  0.00    +0.016 C 
ATOM     29  H   UNL     1       3.545  -3.542  -7.100  0.00  0.00    +0.166 HD
ENDROOT
BRANCH   2  30
ATOM     30  N   UNL     1      -0.857  -3.613  -3.523  0.00  0.00    -0.356 N 
ATOM     31  H   UNL     1      -1.530  -2.997  -3.192  0.00  0.00    +0.142 HD
ATOM     32  H   UNL     1      -0.748  -4.481  -3.105  0.00  0.00    +0.142 HD
ENDBRANCH   2  30
BRANCH   1  33
ATOM     33  C   UNL     1      -1.195  -1.023  -4.901  0.00  0.00    +0.348 C 
ATOM     34  O   UNL     1      -2.040  -1.230  -4.050  0.00  0.00    -0.244 OA
BRANCH  33  35
ATOM     35  O   UNL     1      -1.190   0.145  -5.577  0.00  0.00    -0.461 OA
BRANCH  35  37
ATOM     36  C   UNL     1      -2.040   2.345  -6.105  0.00  0.00    +0.048 C 
ATOM     37  C   UNL     1      -2.206   1.093  -5.242  0.00  0.00    +0.229 C 
ENDBRANCH  35  37
ENDBRANCH  33  35
ENDBRANCH   1  33
BRANCH  25  38
ATOM     38  O   UNL     1      -3.952 -10.211  -8.792  0.00  0.00    -0.391 OA
ATOM     39  H   UNL     1      -4.822 -10.243  -8.372  0.00  0.00    +0.210 HD
ENDBRANCH  25  38
TORSDOF 5
