REMARK  Name = ZINC40150600
REMARK  10 active torsions:
REMARK  status: ('A' for Active; 'I' for Inactive)
REMARK    1  A    between atoms: C_1  and  C_2
REMARK    2  A    between atoms: C_2  and  N_3
REMARK    3  A    between atoms: N_6  and  C_9
REMARK    4  A    between atoms: C_14  and  N_15
REMARK    5  A    between atoms: N_18  and  C_19
REMARK    6  A    between atoms: C_19  and  C_21
REMARK    7  A    between atoms: C_19  and  C_26
REMARK    8  A    between atoms: C_26  and  C_27
REMARK    9  A    between atoms: C_26  and  C_28
REMARK   10  A    between atoms: C_26  and  C_29
REMARK                            x       y       z     vdW  Elec       q    Type
REMARK                         _______ _______ _______ _____ _____    ______ ____
ROOT
ATOM      1  N   UNL     1      -6.242  -2.491  -0.203  0.00  0.00    -0.268 N 
ATOM      2  C   UNL     1      -7.292  -3.064   0.417  0.00  0.00    +0.304 C 
ATOM      3  O   UNL     1      -7.692  -4.154   0.054  0.00  0.00    -0.252 OA
ATOM      4  N   UNL     1      -7.900  -2.429   1.439  0.00  0.00    -0.291 N 
ATOM      5  H   UNL     1      -5.871  -1.662   0.137  0.00  0.00    +0.156 HD
ATOM      6  H   UNL     1      -7.580  -1.560   1.728  0.00  0.00    +0.151 HD
ENDROOT
BRANCH   1  12
ATOM      7  C   UNL     1      -4.357  -2.843  -1.685  0.00  0.00    +0.051 A 
ATOM      8  C   UNL     1      -3.810  -3.448  -2.807  0.00  0.00    +0.025 A 
ATOM      9  C   UNL     1      -4.582  -4.292  -3.583  0.00  0.00    +0.002 A 
ATOM     10  C   UNL     1      -5.900  -4.536  -3.244  0.00  0.00    +0.002 A 
ATOM     11  C   UNL     1      -6.454  -3.938  -2.127  0.00  0.00    +0.025 A 
ATOM     12  C   UNL     1      -5.684  -3.094  -1.340  0.00  0.00    +0.056 A 
BRANCH   7  16
ATOM     13  N   UNL     1      -1.371  -0.523  -0.005  0.00  0.00    +0.382 N 
ATOM     14  C   UNL     1      -2.054  -0.117  -1.240  0.00  0.00    -0.060 C 
ATOM     15  C   UNL     1      -3.523  -0.545  -1.174  0.00  0.00    +0.086 C 
ATOM     16  N   UNL     1      -3.577  -1.988  -0.898  0.00  0.00    -0.332 N 
ATOM     17  C   UNL     1      -2.787  -2.508   0.229  0.00  0.00    +0.086 C 
ATOM     18  C   UNL     1      -1.352  -1.988   0.097  0.00  0.00    -0.060 C 
ATOM     19  H   UNL     1      -1.860  -0.138   0.789  0.00  0.00    -0.082 HD
BRANCH  13  21
ATOM     20  C   UNL     1      -0.010   1.513  -0.001  0.00  0.00    -0.017 C 
ATOM     21  C   UNL     1       0.008  -0.017  -0.021  0.00  0.00    -0.082 C 
ENDBRANCH  13  21
ENDBRANCH   7  16
ENDBRANCH   1  12
BRANCH   4  22
ATOM     22  C   UNL     1      -9.042  -3.052   2.113  0.00  0.00    +0.117 C 
BRANCH  22  23
ATOM     23  C   UNL     1      -9.898  -1.982   2.742  0.00  0.00    +0.011 A 
ATOM     24  C   UNL     1     -11.249  -1.899   2.808  0.00  0.00    +0.013 A 
ATOM     25  C   UNL     1     -11.824  -0.815   3.443  0.00  0.00    +0.008 A 
ATOM     26  C   UNL     1     -11.019   0.134   3.982  0.00  0.00    +0.045 A 
ATOM     27  S   UNL     1      -9.394  -0.501   3.602  0.00  0.00    -0.100 S 
ENDBRANCH  22  23
BRANCH  22  28
ATOM     28  C   UNL     1      -8.537  -4.005   3.198  0.00  0.00    -0.015 C 
ATOM     29  C   UNL     1      -7.707  -3.222   4.218  0.00  0.00    +0.013 C 
ATOM     30  C   UNL     1      -9.729  -4.655   3.902  0.00  0.00    +0.013 C 
ATOM     31  C   UNL     1      -7.668  -5.090   2.559  0.00  0.00    +0.013 C 
ENDBRANCH  22  28
ENDBRANCH   4  22
TORSDOF 6
