REMARK  Name = ZINC09503469
REMARK  5 active torsions:
REMARK  status: ('A' for Active; 'I' for Inactive)
REMARK    1  A    between atoms: C_1  and  C_2
REMARK    2  A    between atoms: C_8  and  C_14
REMARK    3  A    between atoms: C_11  and  C_13
REMARK    4  A    between atoms: N_16  and  N_17
REMARK    5  A    between atoms: C_18  and  C_20
REMARK                            x       y       z     vdW  Elec       q    Type
REMARK                         _______ _______ _______ _____ _____    ______ ____
ROOT
ATOM      1  C   UNL     1      -1.862  -0.544   5.445  0.00  0.00    +0.264 C 
ATOM      2  O   UNL     1      -3.026  -0.442   5.108  0.00  0.00    -0.269 OA
ATOM      3  N   UNL     1      -1.550  -1.113   6.626  0.00  0.00    -0.230 N 
ATOM      4  H   UNL     1      -0.622  -1.194   6.895  0.00  0.00    +0.173 HD
ENDROOT
BRANCH   1  11
ATOM      5  C   UNL     1      -0.013   1.086   0.008  0.00  0.00    +0.016 C 
ATOM      6  C   UNL     1      -0.729   1.579   1.267  0.00  0.00    +0.060 C 
ATOM      7  C   UNL     1      -0.086   1.007   2.516  0.00  0.00    +0.001 A 
ATOM      8  C   UNL     1       1.228   0.891   2.909  0.00  0.00    +0.007 A 
ATOM      9  C   UNL     1       1.546   0.307   4.125  0.00  0.00    +0.001 A 
ATOM     10  C   UNL     1       0.544  -0.160   4.948  0.00  0.00    +0.017 A 
ATOM     11  C   UNL     1      -0.791  -0.044   4.562  0.00  0.00    +0.080 A 
ATOM     12  C   UNL     1      -1.116   0.551   3.329  0.00  0.00    +0.137 A 
ATOM     13  O   UNL     1      -2.330   0.774   2.761  0.00  0.00    -0.487 OA
ATOM     14  C   UNL     1      -2.161   1.001   1.351  0.00  0.00    +0.178 C 
ATOM     15  C   UNL     1      -3.186   2.015   0.838  0.00  0.00    +0.052 C 
ENDBRANCH   1  11
BRANCH   3  16
ATOM     16  N   UNL     1      -2.567  -1.588   7.465  0.00  0.00    -0.229 N 
ATOM     17  C   UNL     1      -2.255  -2.157   8.646  0.00  0.00    +0.276 C 
ATOM     18  O   UNL     1      -1.090  -2.259   8.984  0.00  0.00    -0.267 OA
ATOM     19  H   UNL     1      -3.495  -1.507   7.196  0.00  0.00    +0.173 HD
BRANCH  17  20
ATOM     20  C   UNL     1      -3.319  -2.654   9.525  0.00  0.00    +0.103 A 
ATOM     21  C   UNL     1      -3.147  -3.261  10.751  0.00  0.00    +0.032 A 
ATOM     22  C   UNL     1      -4.420  -3.570  11.239  0.00  0.00    +0.020 A 
ATOM     23  C   UNL     1      -5.328  -3.163  10.319  0.00  0.00    +0.083 A 
ATOM     24  N   UNL     1      -4.671  -2.605   9.272  0.00  0.00    -0.357 N 
ATOM     25  H   UNL     1      -5.085  -2.233   8.478  0.00  0.00    +0.165 HD
ENDBRANCH  17  20
ENDBRANCH   3  16
TORSDOF 3
