REMARK  Name = ZINC63399633
REMARK  9 active torsions:
REMARK  status: ('A' for Active; 'I' for Inactive)
REMARK    1  A    between atoms: C_1  and  C_2
REMARK    2  A    between atoms: C_2  and  O_3
REMARK    3  A    between atoms: O_3  and  C_4
REMARK    4  A    between atoms: C_4  and  C_6
REMARK    5  A    between atoms: C_7  and  C_29
REMARK    6  A    between atoms: C_8  and  C_13
REMARK    7  A    between atoms: C_10  and  C_12
REMARK    8  A    between atoms: N_15  and  N_16
REMARK    9  A    between atoms: C_17  and  C_19
REMARK                            x       y       z     vdW  Elec       q    Type
REMARK                         _______ _______ _______ _____ _____    ______ ____
ROOT
ATOM      1  C   UNL     1       2.837  -5.074   4.647  0.00  0.00    +0.278 C 
ATOM      2  O   UNL     1       2.549  -6.128   4.115  0.00  0.00    -0.267 OA
ATOM      3  N   UNL     1       3.520  -5.071   5.809  0.00  0.00    -0.229 N 
ATOM      4  H   UNL     1       3.751  -4.230   6.234  0.00  0.00    +0.173 HD
ENDROOT
BRANCH   1   7
ATOM      5  C   UNL     1       1.499  -2.372   2.471  0.00  0.00    +0.066 C 
ATOM      6  C   UNL     1       1.694  -3.676   2.753  0.00  0.00    -0.008 C 
ATOM      7  C   UNL     1       2.438  -3.788   4.016  0.00  0.00    +0.126 C 
ATOM      8  N   UNL     1       2.699  -2.618   4.505  0.00  0.00    -0.270 NA
ATOM      9  C   UNL     1       2.151  -1.603   3.598  0.00  0.00    +0.140 C 
ATOM     10  C   UNL     1       1.110  -0.752   4.329  0.00  0.00    +0.038 C 
ATOM     11  C   UNL     1       1.225  -4.833   1.909  0.00  0.00    +0.047 C 
BRANCH   5  12
ATOM     12  C   UNL     1       0.801  -1.814   1.304  0.00  0.00    +0.338 C 
ATOM     13  O   UNL     1       0.321  -2.556   0.470  0.00  0.00    -0.245 OA
BRANCH  12  14
ATOM     14  O   UNL     1       0.693  -0.477   1.160  0.00  0.00    -0.462 OA
BRANCH  14  16
ATOM     15  C   UNL     1      -0.019   1.526   0.010  0.00  0.00    +0.048 C 
ATOM     16  C   UNL     1       0.002  -0.004   0.002  0.00  0.00    +0.229 C 
ENDBRANCH  14  16
ENDBRANCH  12  14
ENDBRANCH   5  12
ENDBRANCH   1   7
BRANCH   3  17
ATOM     17  N   UNL     1       3.896  -6.283   6.404  0.00  0.00    -0.230 N 
ATOM     18  C   UNL     1       4.579  -6.280   7.566  0.00  0.00    +0.267 C 
ATOM     19  O   UNL     1       4.868  -5.224   8.099  0.00  0.00    -0.268 OA
ATOM     20  H   UNL     1       3.666  -7.124   5.979  0.00  0.00    +0.173 HD
BRANCH  18  21
ATOM     21  C   UNL     1       4.972  -7.547   8.188  0.00  0.00    +0.076 A 
ATOM     22  C   UNL     1       5.662  -7.763   9.365  0.00  0.00    +0.024 A 
ATOM     23  C   UNL     1       5.904  -9.087   9.722  0.00  0.00    -0.036 A 
ATOM     24  C   UNL     1       5.437 -10.039   8.871  0.00  0.00    -0.006 A 
ATOM     25  S   UNL     1       4.680  -9.214   7.628  0.00  0.00    -0.088 S 
ATOM     26  C   UNL     1       5.562 -11.528   9.002  0.00  0.00    +0.043 C 
ATOM     27  C   UNL     1       5.640 -11.906  10.485  0.00  0.00    +0.005 C 
ATOM     28  C   UNL     1       7.104 -11.892  10.914  0.00  0.00    +0.001 C 
ATOM     29  C   UNL     1       7.704 -10.500  10.732  0.00  0.00    +0.005 C 
ATOM     30  C   UNL     1       6.654  -9.428  11.005  0.00  0.00    +0.036 C 
ENDBRANCH  18  21
ENDBRANCH   3  17
TORSDOF 6
