REMARK  Name = ZINC55042147
REMARK  9 active torsions:
REMARK  status: ('A' for Active; 'I' for Inactive)
REMARK    1  A    between atoms: C_1  and  N_2
REMARK    2  A    between atoms: N_2  and  C_3
REMARK    3  A    between atoms: N_2  and  C_4
REMARK    4  A    between atoms: C_4  and  C_10
REMARK    5  A    between atoms: C_10  and  N_11
REMARK    6  A    between atoms: C_12  and  C_14
REMARK    7  A    between atoms: C_14  and  C_15
REMARK    8  A    between atoms: N_22  and  C_23
REMARK    9  A    between atoms: C_23  and  C_24
REMARK                            x       y       z     vdW  Elec       q    Type
REMARK                         _______ _______ _______ _____ _____    ______ ____
ROOT
ATOM      1  C   UNL     1       3.539   3.397   1.634  0.00  0.00    +0.124 C 
ENDROOT
BRANCH   1   2
ATOM      2  C   UNL     1       4.998   3.849   1.718  0.00  0.00    +0.152 C 
ATOM      3  C   UNL     1       5.699   3.073   2.797  0.00  0.00    +0.231 C 
ATOM      4  O   UNL     1       5.123   2.890   3.849  0.00  0.00    -0.274 OA
ATOM      5  N   UNL     1       6.931   2.576   2.647  0.00  0.00    -0.313 N 
ATOM      6  C   UNL     1       7.695   2.709   1.410  0.00  0.00    +0.119 C 
ATOM      7  C   UNL     1       7.107   3.828   0.548  0.00  0.00    +0.104 C 
ATOM      8  N   UNL     1       5.656   3.614   0.425  0.00  0.00    -0.285 NA
ATOM      9  H   UNL     1       7.336   2.107   3.393  0.00  0.00    +0.149 HD
BRANCH   8  10
ATOM     10  C   UNL     1       5.086   4.473  -0.620  0.00  0.00    +0.120 C 
BRANCH  10  11
ATOM     11  C   UNL     1       5.488   3.951  -1.975  0.00  0.00    -0.031 A 
ATOM     12  C   UNL     1       6.657   4.392  -2.567  0.00  0.00    +0.005 A 
ATOM     13  C   UNL     1       7.028   3.914  -3.809  0.00  0.00    +0.003 A 
ATOM     14  C   UNL     1       6.229   2.994  -4.463  0.00  0.00    +0.038 A 
ATOM     15  C   UNL     1       5.058   2.551  -3.871  0.00  0.00    +0.124 A 
ATOM     16  C   UNL     1       4.691   3.027  -2.623  0.00  0.00    +0.043 A 
ATOM     17  F   UNL     1       4.276   1.653  -4.509  0.00  0.00    -0.205 F 
ENDBRANCH  10  11
ENDBRANCH   8  10
ENDBRANCH   1   2
BRANCH   1  19
ATOM     18  N   UNL     1       2.292   1.362   0.984  0.00  0.00    -0.317 N 
ATOM     19  C   UNL     1       3.483   1.956   1.200  0.00  0.00    +0.215 C 
ATOM     20  O   UNL     1       4.510   1.329   1.044  0.00  0.00    -0.276 OA
ATOM     21  H   UNL     1       1.471   1.863   1.109  0.00  0.00    +0.149 HD
BRANCH  18  22
ATOM     22  C   UNL     1       2.238  -0.040   0.562  0.00  0.00    +0.092 C 
BRANCH  22  23
ATOM     23  C   UNL     1       0.780  -0.499   0.505  0.00  0.00    -0.050 C 
ATOM     24  C   UNL     1       0.727  -1.983   0.135  0.00  0.00    -0.010 C 
ATOM     25  C   UNL     1       1.381  -2.191  -1.232  0.00  0.00    -0.001 C 
ATOM     26  C   UNL     1       0.629  -1.376  -2.286  0.00  0.00    -0.000 C 
ATOM     27  C   UNL     1       0.682   0.108  -1.916  0.00  0.00    -0.001 C 
ATOM     28  C   UNL     1       0.029   0.316  -0.549  0.00  0.00    -0.010 C 
BRANCH  23  30
ATOM     29  C   UNL     1      -1.242  -0.760   1.770  0.00  0.00    -0.096 C 
ATOM     30  N   UNL     1       0.152  -0.299   1.818  0.00  0.00    +0.381 N 
ATOM     31  C   UNL     1       0.886  -1.065   2.834  0.00  0.00    -0.096 C 
ATOM     32  H   UNL     1       0.174   0.681   2.056  0.00  0.00    -0.082 HD
ENDBRANCH  23  30
ENDBRANCH  22  23
ENDBRANCH  18  22
ENDBRANCH   1  19
TORSDOF 7
