REMARK  Name = ZINC64191085
REMARK  6 active torsions:
REMARK  status: ('A' for Active; 'I' for Inactive)
REMARK    1  A    between atoms: C_7  and  C_10
REMARK    2  A    between atoms: C_10  and  C_12
REMARK    3  A    between atoms: C_10  and  C_30
REMARK    4  A    between atoms: C_12  and  N_13
REMARK    5  A    between atoms: C_14  and  C_16
REMARK    6  A    between atoms: C_23  and  C_25
REMARK                            x       y       z     vdW  Elec       q    Type
REMARK                         _______ _______ _______ _____ _____    ______ ____
ROOT
ATOM      1  C   UNL     1       0.861  -3.300  -0.262  0.00  0.00    +0.066 C 
ENDROOT
BRANCH   1   8
ATOM      2  C   UNL     1       0.288   1.187  -1.034  0.00  0.00    +0.001 A 
ATOM      3  C   UNL     1       1.470   1.932  -0.922  0.00  0.00    +0.002 A 
ATOM      4  C   UNL     1       2.659   1.371  -0.614  0.00  0.00    +0.026 A 
ATOM      5  C   UNL     1       2.756  -0.029  -0.389  0.00  0.00    +0.043 A 
ATOM      6  N   UNL     1       3.775  -0.796  -0.084  0.00  0.00    -0.380 N 
ATOM      7  C   UNL     1       3.302  -2.179   0.032  0.00  0.00    +0.145 C 
ATOM      8  C   UNL     1       1.817  -2.135  -0.254  0.00  0.00    -0.033 C 
ATOM      9  C   UNL     1       1.522  -0.839  -0.501  0.00  0.00    -0.000 A 
ATOM     10  C   UNL     1       0.270  -0.151  -0.839  0.00  0.00    +0.010 A 
ATOM     11  H   UNL     1       4.690  -0.498   0.044  0.00  0.00    +0.160 HD
ENDBRANCH   1   8
BRANCH   1  12
ATOM     12  C   UNL     1       1.301  -4.304  -1.296  0.00  0.00    -0.020 A 
ATOM     13  C   UNL     1       2.544  -4.899  -1.196  0.00  0.00    +0.006 A 
ATOM     14  C   UNL     1       2.948  -5.820  -2.145  0.00  0.00    +0.000 A 
ATOM     15  C   UNL     1       2.109  -6.146  -3.194  0.00  0.00    +0.001 A 
ATOM     16  C   UNL     1       0.866  -5.551  -3.295  0.00  0.00    +0.020 A 
ATOM     17  C   UNL     1       0.459  -4.633  -2.343  0.00  0.00    +0.045 A 
ATOM     18 CL   UNL     1      -1.106  -3.891  -2.465  0.00  0.00    -0.083 Cl
ENDBRANCH   1  12
BRANCH   1  19
ATOM     19  C   UNL     1       0.850  -3.961   1.118  0.00  0.00    +0.116 C 
BRANCH  19  20
ATOM     20  N   UNL     1      -0.166  -5.016   1.146  0.00  0.00    -0.314 N 
ATOM     21  C   UNL     1      -0.355  -5.739   2.267  0.00  0.00    +0.218 C 
ATOM     22  O   UNL     1       0.314  -5.516   3.253  0.00  0.00    -0.275 OA
ATOM     23  H   UNL     1      -0.701  -5.195   0.357  0.00  0.00    +0.149 HD
BRANCH  21  24
ATOM     24  C   UNL     1      -1.400  -6.825   2.296  0.00  0.00    +0.092 C 
ATOM     25  C   UNL     1      -1.411  -7.487   3.675  0.00  0.00    +0.016 C 
ATOM     26  C   UNL     1      -2.493  -8.568   3.716  0.00  0.00    +0.020 C 
ATOM     27  C   UNL     1      -2.179  -9.640   2.668  0.00  0.00    +0.108 C 
ATOM     28  N   UNL     1      -2.024  -8.990   1.359  0.00  0.00    -0.294 N 
ATOM     29  C   UNL     1      -1.074  -7.876   1.231  0.00  0.00    +0.121 C 
ATOM     30  C   UNL     1      -2.740  -9.407   0.296  0.00  0.00    +0.282 C 
ATOM     31  O   UNL     1      -2.701  -8.781  -0.747  0.00  0.00    -0.267 OA
BRANCH  30  32
ATOM     32  C   UNL     1      -3.564 -10.616   0.396  0.00  0.00    +0.189 A 
ATOM     33  C   UNL     1      -4.445 -11.066  -0.545  0.00  0.00    +0.054 A 
ATOM     34  C   UNL     1      -5.009 -12.247  -0.038  0.00  0.00    +0.042 A 
ATOM     35  C   UNL     1      -4.455 -12.463   1.176  0.00  0.00    +0.196 A 
ATOM     36  O   UNL     1      -3.582 -11.480   1.431  0.00  0.00    -0.458 OA
ENDBRANCH  30  32
ENDBRANCH  21  24
ENDBRANCH  19  20
ENDBRANCH   1  19
TORSDOF 6
