REMARK  Name = ZINC11977488
REMARK  11 active torsions:
REMARK  status: ('A' for Active; 'I' for Inactive)
REMARK    1  A    between atoms: C_1  and  C_2
REMARK    2  A    between atoms: C_3  and  C_7
REMARK    3  A    between atoms: C_13  and  C_31
REMARK    4  A    between atoms: C_14  and  O_21
REMARK    5  A    between atoms: O_21  and  C_22
REMARK    6  A    between atoms: C_22  and  C_23
REMARK    7  A    between atoms: C_23  and  C_24
REMARK    8  A    between atoms: C_24  and  C_25
REMARK    9  A    between atoms: N_28  and  C_30
REMARK   10  A    between atoms: C_31  and  O_33
REMARK   11  A    between atoms: O_33  and  C_34
REMARK                            x       y       z     vdW  Elec       q    Type
REMARK                         _______ _______ _______ _____ _____    ______ ____
ROOT
ATOM      1  C   UNL     1      11.899  -0.783  -6.641  0.00  0.00    +0.250 C 
ATOM      2  O   UNL     1      11.473  -0.499  -7.744  0.00  0.00    -0.270 OA
ATOM      3  N   UNL     1      11.161  -1.545  -5.810  0.00  0.00    -0.295 N 
ATOM      4  C   UNL     1       9.881  -2.132  -6.243  0.00  0.00    +0.114 C 
ATOM      5  C   UNL     1       8.802  -1.649  -5.278  0.00  0.00    +0.073 C 
ATOM      6  C   UNL     1       8.714  -2.505  -4.038  0.00  0.00    +0.041 A 
ATOM      7  C   UNL     1       7.450  -2.589  -3.461  0.00  0.00    +0.120 A 
ATOM      8  C   UNL     1       7.259  -3.358  -2.233  0.00  0.00    +0.141 A 
ATOM      9  C   UNL     1       8.370  -3.951  -1.667  0.00  0.00    +0.116 A 
ATOM     10  C   UNL     1       9.601  -3.821  -2.311  0.00  0.00    +0.255 A 
ATOM     11  O   UNL     1      10.587  -4.324  -1.798  0.00  0.00    -0.268 OA
ATOM     12  N   UNL     1       9.743  -3.151  -3.481  0.00  0.00    -0.310 N 
ATOM     13  C   UNL     1      11.076  -3.211  -4.083  0.00  0.00    +0.144 C 
ATOM     14  C   UNL     1      11.601  -1.820  -4.439  0.00  0.00    +0.129 C 
ENDROOT
BRANCH   1  17
ATOM     15  C   UNL     1      14.415  -0.396  -8.474  0.00  0.00    +0.087 C 
ATOM     16  C   UNL     1      14.328  -0.120  -6.995  0.00  0.00    +0.114 A 
ATOM     17  C   UNL     1      13.223  -0.295  -6.215  0.00  0.00    +0.077 A 
ATOM     18  C   UNL     1      13.630   0.098  -4.858  0.00  0.00    +0.054 A 
ATOM     19  C   UNL     1      14.915   0.471  -4.952  0.00  0.00    +0.196 A 
ATOM     20  O   UNL     1      15.319   0.341  -6.226  0.00  0.00    -0.467 OA
ENDBRANCH   1  17
BRANCH   7  21
ATOM     21  C   UNL     1       6.307  -1.904  -4.086  0.00  0.00    +0.344 C 
ATOM     22  O   UNL     1       5.513  -2.535  -4.756  0.00  0.00    -0.245 OA
BRANCH  21  23
ATOM     23  O   UNL     1       6.141  -0.577  -3.916  0.00  0.00    -0.464 OA
ATOM     24  C   UNL     1       4.992   0.032  -4.562  0.00  0.00    +0.280 C 
ENDBRANCH  21  23
ENDBRANCH   7  21
BRANCH   8  25
ATOM     25  O   UNL     1       6.036  -3.481  -1.667  0.00  0.00    -0.491 OA
BRANCH  25  26
ATOM     26  C   UNL     1       5.951  -4.253  -0.467  0.00  0.00    +0.229 C 
BRANCH  26  27
ATOM     27  C   UNL     1       4.502  -4.278   0.021  0.00  0.00    +0.046 C 
BRANCH  27  28
ATOM     28  C   UNL     1       4.410  -5.105   1.306  0.00  0.00    +0.041 C 
BRANCH  28  29
ATOM     29  C   UNL     1       2.982  -5.130   1.787  0.00  0.00    -0.010 A 
ATOM     30  C   UNL     1       2.394  -4.212   2.663  0.00  0.00    +0.138 A 
ATOM     31  N   UNL     1       1.146  -4.563   2.844  0.00  0.00    -0.180 NA
ATOM     32  N   UNL     1       0.900  -5.713   2.083  0.00  0.00    -0.274 N 
ATOM     33  C   UNL     1       2.044  -6.043   1.448  0.00  0.00    +0.111 A 
ATOM     34  C   UNL     1      -0.373  -6.432   1.996  0.00  0.00    +0.172 C 
ENDBRANCH  28  29
ENDBRANCH  27  28
ENDBRANCH  26  27
ENDBRANCH  25  26
ENDBRANCH   8  25
TORSDOF 8
