REMARK  Name = ZINC36586759
REMARK  18 active torsions:
REMARK  status: ('A' for Active; 'I' for Inactive)
REMARK    1  A    between atoms: C_1  and  C_2
REMARK    2  A    between atoms: C_2  and  C_3
REMARK    3  A    between atoms: C_2  and  C_4
REMARK    4  A    between atoms: C_2  and  N_5
REMARK    5  A    between atoms: C_6  and  C_8
REMARK    6  A    between atoms: C_8  and  C_10
REMARK    7  A    between atoms: C_8  and  N_20
REMARK    8  A    between atoms: C_13  and  O_18
REMARK    9  A    between atoms: C_14  and  O_16
REMARK   10  A    between atoms: O_16  and  C_17
REMARK   11  A    between atoms: O_18  and  C_19
REMARK   12  A    between atoms: N_20  and  C_31
REMARK   13  A    between atoms: C_21  and  C_23
REMARK   14  A    between atoms: C_24  and  O_30
REMARK   15  A    between atoms: C_28  and  O_29
REMARK   16  A    between atoms: C_31  and  C_32
REMARK   17  A    between atoms: C_31  and  C_33
REMARK   18  A    between atoms: C_31  and  C_34
REMARK                            x       y       z     vdW  Elec       q    Type
REMARK                         _______ _______ _______ _____ _____    ______ ____
ROOT
ATOM      1  C   UNL     1       3.631  -1.695  -3.185  0.00  0.00    +0.193 C 
ENDROOT
BRANCH   1   2
ATOM      2  C   UNL     1       3.329  -1.883  -4.650  0.00  0.00    -0.014 A 
ATOM      3  C   UNL     1       2.996  -0.793  -5.431  0.00  0.00    +0.010 A 
ATOM      4  C   UNL     1       2.718  -0.960  -6.775  0.00  0.00    +0.050 A 
ATOM      5  C   UNL     1       2.775  -2.224  -7.342  0.00  0.00    +0.162 A 
ATOM      6  C   UNL     1       3.111  -3.321  -6.556  0.00  0.00    +0.162 A 
ATOM      7  C   UNL     1       3.393  -3.146  -5.210  0.00  0.00    +0.055 A 
BRANCH   6   8
ATOM      8  O   UNL     1       3.168  -4.563  -7.107  0.00  0.00    -0.491 OA
ATOM      9  C   UNL     1       3.520  -5.643  -6.240  0.00  0.00    +0.277 C 
ENDBRANCH   6   8
BRANCH   5  10
ATOM     10  O   UNL     1       2.502  -2.390  -8.664  0.00  0.00    -0.491 OA
ATOM     11  C   UNL     1       2.164  -1.219  -9.409  0.00  0.00    +0.277 C 
ENDBRANCH   5  10
ENDBRANCH   1   2
BRANCH   1  13
ATOM     12  N   UNL     1       2.116  -3.520  -2.484  0.00  0.00    -0.309 N 
ATOM     13  C   UNL     1       2.486  -2.230  -2.364  0.00  0.00    +0.239 C 
ATOM     14  O   UNL     1       1.898  -1.499  -1.596  0.00  0.00    -0.273 OA
ATOM     15  H   UNL     1       2.586  -4.105  -3.098  0.00  0.00    +0.149 HD
BRANCH  12  17
ATOM     16  C   UNL     1      -0.270  -3.258  -2.015  0.00  0.00    +0.031 C 
ATOM     17  C   UNL     1       1.003  -4.040  -1.685  0.00  0.00    +0.026 C 
ATOM     18  C   UNL     1       1.326  -3.884  -0.198  0.00  0.00    +0.031 C 
ATOM     19  C   UNL     1       0.790  -5.520  -2.009  0.00  0.00    +0.031 C 
ENDBRANCH  12  17
ENDBRANCH   1  13
BRANCH   1  20
ATOM     20  N   UNL     1       3.810  -0.269  -2.903  0.00  0.00    -0.277 N 
ATOM     21  C   UNL     1       2.767   0.577  -3.017  0.00  0.00    +0.255 C 
ATOM     22  O   UNL     1       1.705   0.177  -3.454  0.00  0.00    -0.270 OA
BRANCH  21  23
ATOM     23  C   UNL     1       2.913   1.985  -2.611  0.00  0.00    +0.119 A 
ATOM     24  C   UNL     1       3.249   2.962  -3.559  0.00  0.00    +0.133 A 
ATOM     25  C   UNL     1       3.383   4.284  -3.167  0.00  0.00    +0.046 A 
ATOM     26  C   UNL     1       3.187   4.641  -1.846  0.00  0.00    +0.007 A 
ATOM     27  C   UNL     1       2.856   3.686  -0.902  0.00  0.00    +0.046 A 
ATOM     28  C   UNL     1       2.711   2.359  -1.274  0.00  0.00    +0.133 A 
BRANCH  28  29
ATOM     29  O   UNL     1       2.381   1.425  -0.348  0.00  0.00    -0.506 OA
ATOM     30  H   UNL     1       3.141   1.017   0.088  0.00  0.00    +0.292 HD
ENDBRANCH  28  29
BRANCH  24  31
ATOM     31  O   UNL     1       3.442   2.614  -4.856  0.00  0.00    -0.506 OA
ATOM     32  H   UNL     1       2.640   2.648  -5.396  0.00  0.00    +0.292 HD
ENDBRANCH  24  31
ENDBRANCH  21  23
BRANCH  20  33
ATOM     33  C   UNL     1       5.123   0.238  -2.498  0.00  0.00    +0.030 C 
ATOM     34  C   UNL     1       6.160  -0.881  -2.612  0.00  0.00    +0.031 C 
ATOM     35  C   UNL     1       5.525   1.400  -3.408  0.00  0.00    +0.031 C 
ATOM     36  C   UNL     1       5.057   0.725  -1.049  0.00  0.00    +0.031 C 
ENDBRANCH  20  33
ENDBRANCH   1  20
TORSDOF 10
