REMARK  Name = ZINC63272556
REMARK  14 active torsions:
REMARK  status: ('A' for Active; 'I' for Inactive)
REMARK    1  A    between atoms: C_1  and  C_2
REMARK    2  A    between atoms: C_2  and  C_3
REMARK    3  A    between atoms: C_2  and  C_4
REMARK    4  A    between atoms: C_4  and  C_5
REMARK    5  A    between atoms: C_5  and  C_6
REMARK    6  A    between atoms: C_5  and  N_21
REMARK    7  A    between atoms: N_8  and  C_9
REMARK    8  A    between atoms: N_12  and  C_15
REMARK    9  A    between atoms: C_15  and  C_16
REMARK   10  A    between atoms: C_22  and  O_24
REMARK   11  A    between atoms: O_24  and  C_25
REMARK   12  A    between atoms: C_25  and  C_26
REMARK   13  A    between atoms: C_25  and  C_27
REMARK   14  A    between atoms: C_25  and  C_28
REMARK                            x       y       z     vdW  Elec       q    Type
REMARK                         _______ _______ _______ _____ _____    ______ ____
ROOT
ATOM      1  C   UNL     1      -3.677  -2.417  -1.852  0.00  0.00    +0.234 C 
ATOM      2  O   UNL     1      -4.437  -3.300  -1.514  0.00  0.00    -0.274 OA
ATOM      3  N   UNL     1      -4.130  -1.380  -2.583  0.00  0.00    -0.311 N 
ATOM      4  H   UNL     1      -3.522  -0.674  -2.853  0.00  0.00    +0.149 HD
ENDROOT
BRANCH   3   5
ATOM      5  C   UNL     1      -5.542  -1.318  -2.969  0.00  0.00    +0.069 C 
ATOM      6  C   UNL     1      -5.756  -2.117  -4.258  0.00  0.00    +0.003 C 
ATOM      7  C   UNL     1      -7.215  -1.983  -4.699  0.00  0.00    -0.077 C 
ATOM      8  N   UNL     1      -7.529  -0.569  -4.940  0.00  0.00    +0.380 N 
ATOM      9  C   UNL     1      -7.395   0.191  -3.692  0.00  0.00    -0.077 C 
ATOM     10  C   UNL     1      -5.943   0.140  -3.212  0.00  0.00    +0.003 C 
ATOM     11  H   UNL     1      -6.892  -0.197  -5.629  0.00  0.00    -0.082 HD
BRANCH   8  12
ATOM     12  C   UNL     1      -8.906  -0.453  -5.438  0.00  0.00    -0.075 C 
BRANCH  12  13
ATOM     13  C   UNL     1      -9.005  -1.100  -6.821  0.00  0.00    -0.028 C 
ATOM     14  C   UNL     1      -8.201  -0.277  -7.848  0.00  0.00    +0.002 C 
ATOM     15  C   UNL     1      -9.050  -0.350  -9.142  0.00  0.00    +0.000 C 
ATOM     16  C   UNL     1     -10.501  -0.270  -8.604  0.00  0.00    +0.000 C 
ATOM     17  C   UNL     1     -10.467  -1.095  -7.301  0.00  0.00    +0.002 C 
ENDBRANCH  12  13
ENDBRANCH   8  12
ENDBRANCH   3   5
BRANCH   1  18
ATOM     18  C   UNL     1      -2.224  -2.481  -1.455  0.00  0.00    +0.162 C 
BRANCH  18  19
ATOM     19  N   UNL     1      -1.979  -3.711  -0.698  0.00  0.00    -0.270 N 
ATOM     20  C   UNL     1      -0.748  -4.260  -0.684  0.00  0.00    +0.401 C 
ATOM     21  O   UNL     1       0.179  -3.686  -1.222  0.00  0.00    -0.226 OA
ATOM     22  H   UNL     1      -2.702  -4.131  -0.206  0.00  0.00    +0.153 HD
BRANCH  20  23
ATOM     23  O   UNL     1      -0.545  -5.443  -0.075  0.00  0.00    -0.445 OA
BRANCH  23  24
ATOM     24  C   UNL     1       0.785  -5.966  -0.100  0.00  0.00    +0.107 C 
ATOM     25  C   UNL     1       1.732  -4.982   0.589  0.00  0.00    +0.055 C 
ATOM     26  C   UNL     1       0.819  -7.307   0.636  0.00  0.00    +0.055 C 
ATOM     27  C   UNL     1       1.226  -6.169  -1.551  0.00  0.00    +0.055 C 
ENDBRANCH  23  24
ENDBRANCH  20  23
ENDBRANCH  18  19
BRANCH  18  28
ATOM     28  C   UNL     1      -1.880  -1.270  -0.586  0.00  0.00    +0.035 C 
BRANCH  28  30
ATOM     29  C   UNL     1      -2.131  -0.284   1.696  0.00  0.00    +0.007 C 
ATOM     30  C   UNL     1      -2.652  -1.352   0.732  0.00  0.00    -0.015 C 
ATOM     31  C   UNL     1      -4.141  -1.116   0.467  0.00  0.00    +0.007 C 
ENDBRANCH  28  30
ENDBRANCH  18  28
ENDBRANCH   1  18
TORSDOF 9
