REMARK  Name = ZINC43090650
REMARK  5 active torsions:
REMARK  status: ('A' for Active; 'I' for Inactive)
REMARK    1  A    between atoms: C_5  and  C_7
REMARK    2  A    between atoms: C_7  and  C_9
REMARK    3  A    between atoms: C_7  and  N_11
REMARK    4  A    between atoms: C_9  and  N_10
REMARK    5  A    between atoms: C_15  and  C_18
REMARK                            x       y       z     vdW  Elec       q    Type
REMARK                         _______ _______ _______ _____ _____    ______ ____
ROOT
ATOM      1  C   UNL     1       1.191  -2.220   0.022  0.00  0.00    +0.070 C 
ENDROOT
BRANCH   1   6
ATOM      2  C   UNL     1       0.351   1.460  -0.054  0.00  0.00    +0.000 A 
ATOM      3  C   UNL     1       1.605   2.027  -0.194  0.00  0.00    +0.001 A 
ATOM      4  C   UNL     1       2.724   1.220  -0.265  0.00  0.00    +0.015 A 
ATOM      5  C   UNL     1       2.591  -0.155  -0.194  0.00  0.00    +0.022 A 
ATOM      6  C   UNL     1       1.337  -0.722  -0.054  0.00  0.00    -0.018 A 
ATOM      7  C   UNL     1       0.218   0.086   0.016  0.00  0.00    +0.006 A 
ATOM      8 BR   UNL     1       4.123  -1.260  -0.291  0.00  0.00    -0.050 Br
ENDBRANCH   1   6
BRANCH   1   9
ATOM      9  N   UNL     1      -0.154  -2.604  -0.425  0.00  0.00    -0.296 NA
ATOM     10  C   UNL     1      -0.400  -4.032  -0.189  0.00  0.00    +0.085 C 
ATOM     11  C   UNL     1      -1.854  -4.365  -0.529  0.00  0.00    +0.016 C 
ATOM     12  C   UNL     1      -2.121  -4.018  -1.997  0.00  0.00    +0.015 C 
ATOM     13  C   UNL     1      -1.812  -2.536  -2.227  0.00  0.00    +0.089 C 
ATOM     14  C   UNL     1      -0.359  -2.257  -1.837  0.00  0.00    +0.097 C 
BRANCH  13  15
ATOM     15  C   UNL     1      -2.017  -2.200  -3.682  0.00  0.00    +0.215 C 
ATOM     16  O   UNL     1      -1.093  -1.775  -4.342  0.00  0.00    -0.276 OA
ATOM     17  N   UNL     1      -3.227  -2.372  -4.249  0.00  0.00    -0.329 N 
ATOM     18  H   UNL     1      -3.967  -2.712  -3.721  0.00  0.00    +0.145 HD
ATOM     19  H   UNL     1      -3.359  -2.155  -5.186  0.00  0.00    +0.145 HD
ENDBRANCH  13  15
ENDBRANCH   1   9
BRANCH   1  20
ATOM     20  C   UNL     1       1.400  -2.680   1.466  0.00  0.00    -0.063 C 
BRANCH  20  21
ATOM     21  N   UNL     1       0.317  -2.155   2.308  0.00  0.00    +0.379 N 
ATOM     22  H   UNL     1       0.284  -1.150   2.226  0.00  0.00    -0.090 HD
ATOM     23  H   UNL     1      -0.563  -2.546   2.007  0.00  0.00    -0.090 HD
ATOM     24  H   UNL     1       0.486  -2.408   3.270  0.00  0.00    -0.090 HD
ENDBRANCH  20  21
ENDBRANCH   1  20
TORSDOF 5
