REMARK  Name = ZINC35934124
REMARK  8 active torsions:
REMARK  status: ('A' for Active; 'I' for Inactive)
REMARK    1  A    between atoms: C_1  and  N_2
REMARK    2  A    between atoms: C_5  and  C_10
REMARK    3  A    between atoms: N_19  and  C_21
REMARK    4  A    between atoms: C_21  and  C_23
REMARK    5  A    between atoms: C_21  and  C_30
REMARK    6  A    between atoms: C_23  and  C_24
REMARK    7  A    between atoms: N_32  and  C_33
REMARK    8  A    between atoms: C_33  and  C_34
REMARK                            x       y       z     vdW  Elec       q    Type
REMARK                         _______ _______ _______ _____ _____    ______ ____
ROOT
ATOM      1  C   UNL     1      -0.018   1.461   0.010  0.00  0.00    +0.139 C 
ATOM      2  N   UNL     1       0.002  -0.004   0.002  0.00  0.00    -0.260 N 
ATOM      3  C   UNL     1      -1.193  -0.666   0.004  0.00  0.00    +0.042 C 
ATOM      4  C   UNL     1      -1.245  -2.013  -0.003  0.00  0.00    +0.058 C 
ATOM      5  C   UNL     1       0.068  -2.769  -0.014  0.00  0.00    +0.143 C 
ATOM      6  N   UNL     1       1.301  -1.964  -0.016  0.00  0.00    -0.288 N 
ATOM      7  C   UNL     1       1.191  -0.621  -0.013  0.00  0.00    +0.307 C 
ATOM      8  O   UNL     1       2.203   0.052  -0.018  0.00  0.00    -0.252 OA
ATOM      9  C   UNL     1      -2.585  -2.452   0.002  0.00  0.00    +0.247 C 
ATOM     10  O   UNL     1      -2.927  -3.620  -0.003  0.00  0.00    -0.270 OA
ATOM     11  N   UNL     1      -3.437  -1.411   0.012  0.00  0.00    -0.280 N 
ATOM     12  C   UNL     1      -2.626  -0.184   0.015  0.00  0.00    +0.160 C 
ATOM     13  H   UNL     1       2.172  -2.391  -0.023  0.00  0.00    +0.151 HD
ENDROOT
BRANCH   5  14
ATOM     14  C   UNL     1       0.100  -3.664   1.198  0.00  0.00    -0.004 A 
ATOM     15  C   UNL     1       0.712  -3.232   2.360  0.00  0.00    +0.007 A 
ATOM     16  C   UNL     1       0.741  -4.052   3.472  0.00  0.00    +0.000 A 
ATOM     17  C   UNL     1       0.157  -5.305   3.424  0.00  0.00    +0.001 A 
ATOM     18  C   UNL     1      -0.455  -5.737   2.263  0.00  0.00    +0.020 A 
ATOM     19  C   UNL     1      -0.490  -4.915   1.151  0.00  0.00    +0.046 A 
ATOM     20 CL   UNL     1      -1.265  -5.455  -0.305  0.00  0.00    -0.083 Cl
ENDBRANCH   5  14
BRANCH  11  21
ATOM     21  C   UNL     1      -4.900  -1.485   0.019  0.00  0.00    +0.167 C 
BRANCH  21  22
ATOM     22  C   UNL     1      -5.372  -2.213  -1.213  0.00  0.00    +0.234 C 
ATOM     23  O   UNL     1      -4.566  -2.629  -2.018  0.00  0.00    -0.274 OA
ATOM     24  N   UNL     1      -6.690  -2.402  -1.421  0.00  0.00    -0.310 N 
ATOM     25  H   UNL     1      -7.335  -2.070  -0.777  0.00  0.00    +0.149 HD
BRANCH  24  26
ATOM     26  C   UNL     1      -7.149  -3.110  -2.618  0.00  0.00    +0.139 C 
BRANCH  26  27
ATOM     27  C   UNL     1      -8.654  -3.187  -2.611  0.00  0.00    -0.030 A 
ATOM     28  C   UNL     1      -9.289  -4.258  -2.010  0.00  0.00    +0.005 A 
ATOM     29  C   UNL     1     -10.669  -4.328  -2.004  0.00  0.00    +0.000 A 
ATOM     30  C   UNL     1     -11.415  -3.327  -2.597  0.00  0.00    +0.000 A 
ATOM     31  C   UNL     1     -10.780  -2.255  -3.197  0.00  0.00    +0.000 A 
ATOM     32  C   UNL     1      -9.400  -2.183  -3.200  0.00  0.00    +0.005 A 
ENDBRANCH  26  27
ENDBRANCH  24  26
ENDBRANCH  21  22
BRANCH  21  33
ATOM     33  C   UNL     1      -5.367  -2.238   1.267  0.00  0.00    +0.067 C 
BRANCH  33  34
ATOM     34  C   UNL     1      -5.002  -1.448   2.497  0.00  0.00    -0.045 A 
ATOM     35  C   UNL     1      -3.779  -1.647   3.109  0.00  0.00    +0.004 A 
ATOM     36  C   UNL     1      -3.444  -0.922   4.237  0.00  0.00    +0.000 A 
ATOM     37  C   UNL     1      -4.332   0.003   4.753  0.00  0.00    +0.000 A 
ATOM     38  C   UNL     1      -5.554   0.204   4.140  0.00  0.00    +0.000 A 
ATOM     39  C   UNL     1      -5.888  -0.518   3.009  0.00  0.00    +0.004 A 
ENDBRANCH  33  34
ENDBRANCH  21  33
ENDBRANCH  11  21
TORSDOF 7
