REMARK  Name = ZINC20573582
REMARK  3 active torsions:
REMARK  status: ('A' for Active; 'I' for Inactive)
REMARK    1  A    between atoms: C_3  and  C_6
REMARK    2  A    between atoms: N_8  and  C_9
REMARK    3  A    between atoms: C_9  and  C_10
REMARK                            x       y       z     vdW  Elec       q    Type
REMARK                         _______ _______ _______ _____ _____    ______ ____
ROOT
ATOM      1  C   UNL     1       6.993  -0.059  -0.065  0.00  0.00    +0.233 C 
ATOM      2  O   UNL     1       6.500  -1.167  -0.066  0.00  0.00    -0.274 OA
ATOM      3  N   UNL     1       8.333   0.082  -0.077  0.00  0.00    -0.300 N 
ATOM      4  C   UNL     1       8.946   1.417  -0.070  0.00  0.00    +0.110 C 
ATOM      5  C   UNL     1       9.920   1.519  -1.248  0.00  0.00    +0.047 C 
ATOM      6  C   UNL     1      10.922   0.366  -1.177  0.00  0.00    +0.064 C 
ATOM      7  C   UNL     1      10.182  -0.969  -1.275  0.00  0.00    +0.047 C 
ATOM      8  C   UNL     1       9.210  -1.097  -0.092  0.00  0.00    +0.110 C 
ATOM      9  C   UNL     1      11.911   0.483  -2.305  0.00  0.00    +0.057 A 
ATOM     10  C   UNL     1      13.178   0.933  -2.148  0.00  0.00    +0.039 A 
ATOM     11  N   UNL     1      13.776   0.907  -3.339  0.00  0.00    -0.349 N 
ATOM     12  C   UNL     1      12.932   0.460  -4.232  0.00  0.00    +0.171 A 
ATOM     13  N   UNL     1      11.755   0.185  -3.622  0.00  0.00    -0.348 N 
ATOM     14  H   UNL     1      10.953  -0.159  -4.044  0.00  0.00    +0.166 HD
ATOM     15  C   UNL     1      13.735   1.371  -0.816  0.00  0.00    +0.070 C 
ATOM     16  C   UNL     1      12.554   1.592   0.140  0.00  0.00    +0.088 C 
ATOM     17  N   UNL     1      11.656   0.430   0.096  0.00  0.00    -0.305 NA
ATOM     18  H   UNL     1      11.021   0.433   0.880  0.00  0.00    +0.123 HD
ATOM     19  H   UNL     1      14.691   1.176  -3.514  0.00  0.00    +0.166 HD
ENDROOT
BRANCH   1  20
ATOM     20  C   UNL     1       6.107   1.160  -0.050  0.00  0.00    +0.200 C 
BRANCH  20  23
ATOM     21  C   UNL     1       3.725   1.670  -0.025  0.00  0.00    +0.251 C 
ATOM     22  O   UNL     1       4.008   2.853  -0.021  0.00  0.00    -0.270 OA
ATOM     23  N   UNL     1       4.703   0.743  -0.039  0.00  0.00    -0.302 N 
ATOM     24  H   UNL     1       4.477  -0.201  -0.042  0.00  0.00    +0.150 HD
BRANCH  21  27
ATOM     25  C   UNL     1      -0.016   1.352   0.009  0.00  0.00    +0.008 A 
ATOM     26  C   UNL     1       1.175   2.036   0.002  0.00  0.00    +0.021 A 
ATOM     27  C   UNL     1       2.320   1.253  -0.013  0.00  0.00    +0.074 A 
ATOM     28  S   UNL     1       1.636  -0.394  -0.016  0.00  0.00    -0.092 S 
ATOM     29  C   UNL     1       0.002  -0.004   0.002  0.00  0.00    +0.046 A 
ENDBRANCH  21  27
ENDBRANCH  20  23
ENDBRANCH   1  20
TORSDOF 3
