REMARK  Name = ZINC04134591
REMARK  7 active torsions:
REMARK  status: ('A' for Active; 'I' for Inactive)
REMARK    1  A    between atoms: C_1  and  C_2
REMARK    2  A    between atoms: C_9  and  N_22
REMARK    3  A    between atoms: C_10  and  C_13
REMARK    4  A    between atoms: N_14  and  N_15
REMARK    5  A    between atoms: N_15  and  C_16
REMARK    6  A    between atoms: N_22  and  C_23
REMARK    7  A    between atoms: C_23  and  C_24
REMARK                            x       y       z     vdW  Elec       q    Type
REMARK                         _______ _______ _______ _____ _____    ______ ____
ROOT
ATOM      1  C   UNL     1      -1.289  -0.781   0.010  0.00  0.00    +0.047 C 
ATOM      2  C   UNL     1       0.002  -0.004   0.002  0.00  0.00    -0.007 A 
ATOM      3  C   UNL     1      -0.016   1.358   0.009  0.00  0.00    +0.008 A 
ATOM      4  C   UNL     1       1.194   2.067   0.002  0.00  0.00    +0.019 A 
ATOM      5  C   UNL     1       2.370   1.401  -0.014  0.00  0.00    +0.096 A 
ATOM      6  N   UNL     1       2.400   0.038  -0.021  0.00  0.00    -0.267 N 
ATOM      7  C   UNL     1       1.236  -0.681  -0.013  0.00  0.00    +0.145 A 
ATOM      8  N   UNL     1       1.247  -2.013  -0.021  0.00  0.00    -0.214 NA
ATOM      9  C   UNL     1       2.384  -2.697  -0.034  0.00  0.00    +0.135 A 
ATOM     10  C   UNL     1       3.612  -2.007  -0.043  0.00  0.00    +0.099 A 
ATOM     11  C   UNL     1       3.591  -0.598  -0.036  0.00  0.00    +0.269 A 
ATOM     12  O   UNL     1       4.633   0.037  -0.043  0.00  0.00    -0.266 OA
ENDROOT
BRANCH  10  13
ATOM     13  C   UNL     1       4.886  -2.740  -0.058  0.00  0.00    +0.147 C 
ATOM     14  N   UNL     1       6.011  -2.088  -0.066  0.00  0.00    -0.190 NA
BRANCH  14  15
ATOM     15  N   UNL     1       7.225  -2.786  -0.081  0.00  0.00    -0.238 N 
ATOM     16  H   UNL     1       7.227  -3.756  -0.086  0.00  0.00    +0.174 HD
BRANCH  15  17
ATOM     17  C   UNL     1       8.431  -2.087  -0.089  0.00  0.00    +0.048 A 
ATOM     18  C   UNL     1       8.431  -0.697  -0.088  0.00  0.00    +0.025 A 
ATOM     19  C   UNL     1       9.628  -0.008  -0.091  0.00  0.00    +0.002 A 
ATOM     20  C   UNL     1      10.826  -0.699  -0.106  0.00  0.00    +0.000 A 
ATOM     21  C   UNL     1      10.830  -2.082  -0.112  0.00  0.00    +0.002 A 
ATOM     22  C   UNL     1       9.637  -2.778  -0.104  0.00  0.00    +0.025 A 
ENDBRANCH  15  17
ENDBRANCH  14  15
ENDBRANCH  10  13
BRANCH   9  23
ATOM     23  N   UNL     1       2.363  -4.077  -0.041  0.00  0.00    -0.321 N 
ATOM     24  H   UNL     1       3.196  -4.575  -0.051  0.00  0.00    +0.148 HD
BRANCH  23  25
ATOM     25  C   UNL     1       1.084  -4.791  -0.031  0.00  0.00    +0.177 C 
BRANCH  25  26
ATOM     26  C   UNL     1       1.337  -6.277  -0.041  0.00  0.00    +0.122 A 
ATOM     27  C   UNL     1       1.480  -7.058   1.045  0.00  0.00    +0.046 A 
ATOM     28  C   UNL     1       1.700  -8.373   0.577  0.00  0.00    +0.041 A 
ATOM     29  C   UNL     1       1.679  -8.318  -0.767  0.00  0.00    +0.195 A 
ATOM     30  O   UNL     1       1.452  -7.046  -1.136  0.00  0.00    -0.466 OA
ENDBRANCH  25  26
ENDBRANCH  23  25
ENDBRANCH   9  23
TORSDOF 6
