REMARK  Name = ZINC19993885
REMARK  8 active torsions:
REMARK  status: ('A' for Active; 'I' for Inactive)
REMARK    1  A    between atoms: C_1  and  C_2
REMARK    2  A    between atoms: C_2  and  C_3
REMARK    3  A    between atoms: C_3  and  C_4
REMARK    4  A    between atoms: C_4  and  C_5
REMARK    5  A    between atoms: C_8  and  C_11
REMARK    6  A    between atoms: N_13  and  C_14
REMARK    7  A    between atoms: C_15  and  C_25
REMARK    8  A    between atoms: C_20  and  C_24
REMARK                            x       y       z     vdW  Elec       q    Type
REMARK                         _______ _______ _______ _____ _____    ______ ____
ROOT
ATOM      1  C   UNL     1      -1.836  -4.615   0.673  0.00  0.00    +0.084 A 
ATOM      2  C   UNL     1      -0.579  -4.127   0.999  0.00  0.00    +0.068 A 
ATOM      3  C   UNL     1      -0.340  -2.706   0.809  0.00  0.00    -0.023 A 
ATOM      4  C   UNL     1      -1.390  -2.006   0.327  0.00  0.00    -0.004 A 
ATOM      5  S   UNL     1      -2.678  -3.203   0.125  0.00  0.00    -0.077 S 
ATOM      6  C   UNL     1      -1.437  -0.538   0.030  0.00  0.00    +0.046 C 
ATOM      7  C   UNL     1       0.002  -0.004   0.002  0.00  0.00    -0.009 C 
ATOM      8  C   UNL     1       0.742  -0.514   1.242  0.00  0.00    +0.008 C 
ATOM      9  C   UNL     1       0.984  -2.020   1.121  0.00  0.00    +0.037 C 
ATOM     10  C   UNL     1      -0.019   1.526   0.010  0.00  0.00    +0.008 C 
ENDROOT
BRANCH   2  11
ATOM     11  C   UNL     1       0.470  -5.011   1.516  0.00  0.00    +0.244 C 
ATOM     12  O   UNL     1       0.578  -5.192   2.715  0.00  0.00    -0.270 OA
ATOM     13  N   UNL     1       1.315  -5.624   0.663  0.00  0.00    -0.325 N 
ATOM     14  H   UNL     1       2.102  -6.288   1.051  0.00  0.00    +0.145 HD
ATOM     15  H   UNL     1       1.218  -5.461  -0.420  0.00  0.00    +0.145 HD
ENDBRANCH   2  11
BRANCH   1  18
ATOM     16  C   UNL     1      -3.569  -6.205   0.397  0.00  0.00    +0.221 C 
ATOM     17  O   UNL     1      -4.297  -5.325  -0.013  0.00  0.00    -0.275 OA
ATOM     18  N   UNL     1      -2.305  -5.917   0.764  0.00  0.00    -0.279 N 
ATOM     19  H   UNL     1      -1.645  -6.714   1.135  0.00  0.00    +0.155 HD
BRANCH  16  23
ATOM     20  C   UNL     1      -4.755  -8.116  -2.311  0.00  0.00    -0.011 C 
ATOM     21  C   UNL     1      -5.612  -7.202  -1.432  0.00  0.00    +0.004 C 
ATOM     22  C   UNL     1      -5.532  -7.673   0.021  0.00  0.00    +0.013 C 
ATOM     23  C   UNL     1      -4.079  -7.620   0.496  0.00  0.00    +0.075 C 
ATOM     24  C   UNL     1      -3.222  -8.533  -0.383  0.00  0.00    +0.013 C 
ATOM     25  C   UNL     1      -3.301  -8.063  -1.837  0.00  0.00    +0.004 C 
BRANCH  20  26
ATOM     26  C   UNL     1      -4.834  -7.645  -3.765  0.00  0.00    +0.003 C 
BRANCH  26  27
ATOM     27  C   UNL     1      -4.080  -8.630  -4.661  0.00  0.00    +0.000 C 
BRANCH  27  29
ATOM     28  C   UNL     1      -3.405  -9.143  -7.011  0.00  0.00    +0.004 C 
ATOM     29  C   UNL     1      -4.159  -8.159  -6.115  0.00  0.00    -0.003 C 
ENDBRANCH  27  29
ENDBRANCH  26  27
ENDBRANCH  20  26
ENDBRANCH  16  23
ENDBRANCH   1  18
TORSDOF 6
