REMARK  Name = ZINC34757125
REMARK  6 active torsions:
REMARK  status: ('A' for Active; 'I' for Inactive)
REMARK    1  A    between atoms: C_1  and  C_2
REMARK    2  A    between atoms: C_2  and  C_3
REMARK    3  A    between atoms: C_3  and  S_4
REMARK    4  A    between atoms: S_4  and  C_5
REMARK    5  A    between atoms: N_20  and  C_23
REMARK    6  A    between atoms: C_23  and  C_24
REMARK                            x       y       z     vdW  Elec       q    Type
REMARK                         _______ _______ _______ _____ _____    ______ ____
ROOT
ATOM      1  C   UNL     1      -3.127  -2.794  -0.162  0.00  0.00    +0.191 A 
ATOM      2  N   UNL     1      -3.461  -4.079  -0.154  0.00  0.00    -0.206 NA
ATOM      3  C   UNL     1      -4.708  -4.480   0.029  0.00  0.00    +0.134 A 
ATOM      4  C   UNL     1      -5.727  -3.507   0.224  0.00  0.00    +0.051 A 
ATOM      5  C   UNL     1      -7.167  -3.724   0.444  0.00  0.00    -0.025 A 
ATOM      6  C   UNL     1      -7.928  -2.629   0.602  0.00  0.00    -0.004 A 
ATOM      7  S   UNL     1      -6.801  -1.259   0.474  0.00  0.00    -0.073 S 
ATOM      8  C   UNL     1      -5.303  -2.167   0.205  0.00  0.00    +0.115 A 
ATOM      9  N   UNL     1      -4.036  -1.845   0.021  0.00  0.00    -0.215 NA
ATOM     10  C   UNL     1      -9.379  -2.971   0.814  0.00  0.00    +0.043 C 
ATOM     11  C   UNL     1      -9.505  -4.435   0.339  0.00  0.00    +0.010 C 
ATOM     12  C   UNL     1      -8.070  -4.957   0.547  0.00  0.00    +0.037 C 
ATOM     13  N   UNL     1      -5.017  -5.828   0.030  0.00  0.00    -0.318 N 
ATOM     14  C   UNL     1      -5.298  -6.541  -1.226  0.00  0.00    +0.088 C 
ATOM     15  C   UNL     1      -4.438  -7.809  -1.268  0.00  0.00    -0.059 C 
ATOM     16  N   UNL     1      -4.678  -8.601  -0.055  0.00  0.00    +0.387 N 
ATOM     17  C   UNL     1      -4.226  -7.856   1.127  0.00  0.00    -0.059 C 
ATOM     18  C   UNL     1      -5.069  -6.592   1.286  0.00  0.00    +0.088 C 
ATOM     19  H   UNL     1      -5.664  -8.796   0.029  0.00  0.00    -0.081 HD
ENDROOT
BRANCH   1  20
ATOM     20  S   UNL     1      -1.443  -2.340  -0.411  0.00  0.00    -0.086 S 
BRANCH  20  21
ATOM     21  C   UNL     1      -1.461  -0.527  -0.336  0.00  0.00    +0.077 C 
BRANCH  21  23
ATOM     22  C   UNL     1      -0.057   1.534  -0.478  0.00  0.00    +0.004 C 
ATOM     23  C   UNL     1      -0.042   0.006  -0.541  0.00  0.00    +0.008 C 
ENDBRANCH  21  23
ENDBRANCH  20  21
ENDBRANCH   1  20
BRANCH  16  24
ATOM     24  C   UNL     1      -3.939  -9.867  -0.146  0.00  0.00    +0.019 C 
BRANCH  24  25
ATOM     25  C   UNL     1      -4.279 -10.734   1.039  0.00  0.00    +0.199 C 
ATOM     26  O   UNL     1      -5.061 -10.336   1.877  0.00  0.00    -0.278 OA
ATOM     27  N   UNL     1      -3.715 -11.951   1.168  0.00  0.00    -0.300 N 
ATOM     28  C   UNL     1      -2.804 -12.968   0.639  0.00  0.00    +0.126 C 
ATOM     29  C   UNL     1      -3.577 -13.189   1.940  0.00  0.00    +0.126 C 
ENDBRANCH  24  25
ENDBRANCH  16  24
TORSDOF 5
