REMARK  Name = ZINC09424801
REMARK  16 active torsions:
REMARK  status: ('A' for Active; 'I' for Inactive)
REMARK    1  A    between atoms: C_1  and  C_2
REMARK    2  A    between atoms: C_2  and  N_74
REMARK    3  A    between atoms: C_3  and  C_4
REMARK    4  A    between atoms: C_3  and  N_74
REMARK    5  A    between atoms: C_5  and  C_6
REMARK    6  A    between atoms: C_5  and  N_74
REMARK    7  A    between atoms: C_6  and  C_7
REMARK    8  A    between atoms: C_7  and  N_8
REMARK    9  A    between atoms: C_9  and  C_29
REMARK   10  A    between atoms: C_11  and  C_16
REMARK   11  A    between atoms: C_12  and  O_15
REMARK   12  A    between atoms: C_16  and  C_18
REMARK   13  A    between atoms: C_25  and  C_28
REMARK   14  A    between atoms: C_32  and  C_35
REMARK   15  A    between atoms: C_35  and  C_36
REMARK   16  A    between atoms: C_35  and  C_37
REMARK                            x       y       z     vdW  Elec       q    Type
REMARK                         _______ _______ _______ _____ _____    ______ ____
ROOT
ATOM      1  N   UNL     1      -1.963  -2.797  -0.108  0.00  0.00    -0.284 N 
ATOM      2  C   UNL     1      -1.383  -1.453  -0.008  0.00  0.00    +0.144 C 
ATOM      3  C   UNL     1      -2.549  -0.492   0.019  0.00  0.00    +0.071 C 
ATOM      4  C   UNL     1      -3.674  -1.240  -0.067  0.00  0.00    +0.188 C 
ATOM      5  C   UNL     1      -3.302  -2.668  -0.146  0.00  0.00    +0.282 C 
ATOM      6  O   UNL     1      -4.088  -3.590  -0.231  0.00  0.00    -0.267 OA
ENDROOT
BRANCH   2   7
ATOM      7  C   UNL     1      -0.581  -1.331   1.262  0.00  0.00    -0.022 A 
ATOM      8  C   UNL     1      -0.992  -1.991   2.405  0.00  0.00    +0.006 A 
ATOM      9  C   UNL     1      -0.254  -1.882   3.569  0.00  0.00    +0.004 A 
ATOM     10  C   UNL     1       0.890  -1.106   3.592  0.00  0.00    -0.045 A 
ATOM     11  C   UNL     1       1.298  -0.441   2.451  0.00  0.00    +0.004 A 
ATOM     12  C   UNL     1       0.562  -0.553   1.286  0.00  0.00    +0.006 A 
BRANCH  10  13
ATOM     13  C   UNL     1       1.691  -0.983   4.862  0.00  0.00    +0.013 C 
ATOM     14  C   UNL     1       0.814  -0.384   5.963  0.00  0.00    +0.012 C 
ATOM     15  C   UNL     1       2.177  -2.369   5.295  0.00  0.00    +0.012 C 
ENDBRANCH  10  13
ENDBRANCH   2   7
BRANCH   4  16
ATOM     16  O   UNL     1      -4.937  -0.757  -0.080  0.00  0.00    -0.502 OA
ATOM     17  H   UNL     1      -5.584  -1.517  -0.150  0.00  0.00    +0.292 HD
ENDBRANCH   4  16
BRANCH   3  18
ATOM     18  C   UNL     1      -2.476   0.969   0.115  0.00  0.00    +0.195 C 
ATOM     19  O   UNL     1      -2.890   1.536   1.110  0.00  0.00    -0.287 OA
BRANCH  18  20
ATOM     20  C   UNL     1      -1.901   1.754  -0.995  0.00  0.00    +0.023 A 
ATOM     21  C   UNL     1      -1.352   1.105  -2.106  0.00  0.00    +0.015 A 
ATOM     22  C   UNL     1      -0.818   1.837  -3.139  0.00  0.00    +0.046 A 
ATOM     23  C   UNL     1      -0.815   3.233  -3.090  0.00  0.00    +0.124 A 
ATOM     24  C   UNL     1      -1.366   3.873  -1.983  0.00  0.00    -0.002 A 
ATOM     25  C   UNL     1      -1.898   3.152  -0.943  0.00  0.00    +0.019 A 
ATOM     26  C   UNL     1      -1.240   5.365  -2.225  0.00  0.00    +0.083 C 
ATOM     27  C   UNL     1      -0.925   5.417  -3.739  0.00  0.00    +0.175 C 
ATOM     28  O   UNL     1      -0.328   4.133  -3.985  0.00  0.00    -0.488 OA
ATOM     29  C   UNL     1       0.063   6.543  -4.049  0.00  0.00    +0.052 C 
ENDBRANCH  18  20
ENDBRANCH   3  18
BRANCH   1  30
ATOM     30  C   UNL     1      -1.216  -4.056  -0.164  0.00  0.00    +0.107 C 
BRANCH  30  31
ATOM     31  C   UNL     1      -0.907  -4.402  -1.622  0.00  0.00    +0.000 C 
BRANCH  31  32
ATOM     32  C   UNL     1      -0.127  -5.717  -1.679  0.00  0.00    -0.077 C 
BRANCH  32  33
ATOM     33  N   UNL     1       0.145  -6.049  -3.094  0.00  0.00    +0.379 N 
ATOM     34  H   UNL     1      -0.736  -6.010  -3.621  0.00  0.00    -0.082 HD
BRANCH  33  36
ATOM     35  C   UNL     1       2.441  -5.144  -2.952  0.00  0.00    -0.017 C 
ATOM     36  C   UNL     1       1.091  -5.070  -3.669  0.00  0.00    -0.082 C 
ENDBRANCH  33  36
BRANCH  33  37
ATOM     37  C   UNL     1       0.705  -7.413  -3.195  0.00  0.00    -0.082 C 
ATOM     38  C   UNL     1       0.649  -7.861  -4.657  0.00  0.00    -0.017 C 
ENDBRANCH  33  37
ENDBRANCH  32  33
ENDBRANCH  31  32
ENDBRANCH  30  31
ENDBRANCH   1  30
TORSDOF 11
