REMARK  Name = ZINC40334988
REMARK  7 active torsions:
REMARK  status: ('A' for Active; 'I' for Inactive)
REMARK    1  A    between atoms: C_1  and  N_2
REMARK    2  A    between atoms: C_6  and  C_7
REMARK    3  A    between atoms: C_7  and  N_8
REMARK    4  A    between atoms: N_8  and  C_9
REMARK    5  A    between atoms: N_8  and  S_10
REMARK    6  A    between atoms: S_10  and  C_13
REMARK    7  A    between atoms: C_14  and  N_21
REMARK                            x       y       z     vdW  Elec       q    Type
REMARK                         _______ _______ _______ _____ _____    ______ ____
ROOT
ATOM      1  S   UNL     1       2.730  -2.387   4.277  0.00  0.00    +0.064 S 
ATOM      2  O   UNL     1       3.850  -2.329   5.150  0.00  0.00    -0.153 OA
ATOM      3  O   UNL     1       1.673  -3.320   4.457  0.00  0.00    -0.153 OA
ENDROOT
BRANCH   1   4
ATOM      4  C   UNL     1       3.368  -2.655   2.656  0.00  0.00    +0.140 A 
ATOM      5  C   UNL     1       2.609  -3.339   1.715  0.00  0.00    +0.053 A 
ATOM      6  C   UNL     1       3.114  -3.547   0.438  0.00  0.00    +0.040 A 
ATOM      7  C   UNL     1       4.370  -3.074   0.108  0.00  0.00    +0.021 A 
ATOM      8  C   UNL     1       5.124  -2.394   1.048  0.00  0.00    +0.032 A 
ATOM      9  C   UNL     1       4.620  -2.180   2.319  0.00  0.00    +0.047 A 
ATOM     10 BR   UNL     1       5.651  -1.242   3.597  0.00  0.00    -0.048 Br
ATOM     11 BR   UNL     1       5.059  -3.357  -1.630  0.00  0.00    -0.050 Br
BRANCH   5  12
ATOM     12  N   UNL     1       1.340  -3.816   2.052  0.00  0.00    -0.356 N 
ATOM     13  H   UNL     1       0.801  -3.341   2.704  0.00  0.00    +0.142 HD
ATOM     14  H   UNL     1       0.998  -4.622   1.634  0.00  0.00    +0.142 HD
ENDBRANCH   5  12
ENDBRANCH   1   4
BRANCH   1  15
ATOM     15  N   UNL     1       2.041  -0.882   4.290  0.00  0.00    -0.172 NA
ATOM     16  C   UNL     1       2.805   0.269   4.778  0.00  0.00    +0.132 C 
BRANCH  15  17
ATOM     17  C   UNL     1       0.668  -0.701   3.813  0.00  0.00    +0.181 C 
BRANCH  17  23
ATOM     18  C   UNL     1       0.852   2.281   2.990  0.00  0.00    +0.150 C 
ATOM     19  N   UNL     1       0.772   1.145   2.067  0.00  0.00    -0.338 N 
ATOM     20  C   UNL     1       0.771   1.208   0.700  0.00  0.00    +0.104 A 
ATOM     21  C   UNL     1       0.684  -0.059   0.252  0.00  0.00    +0.101 A 
ATOM     22  N   UNL     1       0.634  -0.873   1.316  0.00  0.00    -0.349 N 
ATOM     23  C   UNL     1       0.692  -0.159   2.407  0.00  0.00    +0.103 A 
ATOM     24  H   UNL     1       0.570  -1.840   1.281  0.00  0.00    +0.166 HD
ENDBRANCH  17  23
ENDBRANCH  15  17
ENDBRANCH   1  15
TORSDOF 5
