REMARK  Name = ZINC55857453
REMARK  10 active torsions:
REMARK  status: ('A' for Active; 'I' for Inactive)
REMARK    1  A    between atoms: C_1  and  C_2
REMARK    2  A    between atoms: C_2  and  C_3
REMARK    3  A    between atoms: N_5  and  C_6
REMARK    4  A    between atoms: C_9  and  N_13
REMARK    5  A    between atoms: C_11  and  C_12
REMARK    6  A    between atoms: N_13  and  C_14
REMARK    7  A    between atoms: C_14  and  C_15
REMARK    8  A    between atoms: N_17  and  C_18
REMARK    9  A    between atoms: C_19  and  C_26
REMARK   10  A    between atoms: C_21  and  C_25
REMARK                            x       y       z     vdW  Elec       q    Type
REMARK                         _______ _______ _______ _____ _____    ______ ____
ROOT
ATOM      1  N   UNL     1      -6.996  -3.018   1.716  0.00  0.00    -0.335 N 
ATOM      2  H   UNL     1      -7.182  -3.854   2.171  0.00  0.00    +0.147 HD
ENDROOT
BRANCH   1   6
ATOM      3  C   UNL     1      -3.145  -1.424   1.779  0.00  0.00    +0.036 A 
ATOM      4  C   UNL     1      -4.161  -0.758   1.107  0.00  0.00    +0.025 A 
ATOM      5  C   UNL     1      -5.436  -1.285   1.086  0.00  0.00    +0.025 A 
ATOM      6  C   UNL     1      -5.703  -2.483   1.737  0.00  0.00    +0.028 A 
ATOM      7  C   UNL     1      -4.687  -3.150   2.409  0.00  0.00    +0.028 A 
ATOM      8  C   UNL     1      -3.410  -2.624   2.425  0.00  0.00    -0.028 A 
ATOM      9  C   UNL     1      -2.306  -3.350   3.149  0.00  0.00    +0.046 C 
BRANCH   3  12
ATOM     10  C   UNL     1      -1.450  -0.053   0.821  0.00  0.00    +0.217 C 
ATOM     11  O   UNL     1      -2.174   0.157  -0.130  0.00  0.00    -0.275 OA
ATOM     12  N   UNL     1      -1.850  -0.888   1.800  0.00  0.00    -0.285 N 
ATOM     13  H   UNL     1      -1.241  -1.119   2.520  0.00  0.00    +0.155 HD
BRANCH  10  15
ATOM     14  C   UNL     1       0.101   1.508  -0.322  0.00  0.00    +0.013 C 
ATOM     15  C   UNL     1      -0.104   0.620   0.907  0.00  0.00    +0.093 C 
ENDBRANCH  10  15
ENDBRANCH   3  12
ENDBRANCH   1   6
BRANCH   1  16
ATOM     16  C   UNL     1      -8.068  -2.314   1.008  0.00  0.00    +0.198 C 
BRANCH  16  17
ATOM     17  C   UNL     1      -9.351  -3.094   1.138  0.00  0.00    +0.234 C 
ATOM     18  O   UNL     1      -9.368  -4.135   1.760  0.00  0.00    -0.274 OA
ATOM     19  N   UNL     1     -10.480  -2.635   0.562  0.00  0.00    -0.283 N 
ATOM     20  H   UNL     1     -10.450  -1.847  -0.003  0.00  0.00    +0.155 HD
BRANCH  19  21
ATOM     21  C   UNL     1     -11.695  -3.295   0.779  0.00  0.00    +0.055 A 
ATOM     22  C   UNL     1     -12.807  -2.583   1.207  0.00  0.00    -0.028 A 
ATOM     23  C   UNL     1     -14.005  -3.237   1.420  0.00  0.00    +0.008 A 
ATOM     24  C   UNL     1     -14.098  -4.600   1.207  0.00  0.00    -0.049 A 
ATOM     25  C   UNL     1     -12.993  -5.313   0.781  0.00  0.00    +0.025 A 
ATOM     26  C   UNL     1     -11.792  -4.664   0.560  0.00  0.00    +0.063 A 
ATOM     27 CL   UNL     1     -10.407  -5.558   0.018  0.00  0.00    -0.082 Cl
ATOM     28  C   UNL     1     -15.406  -5.310   1.441  0.00  0.00    +0.044 C 
ATOM     29  C   UNL     1     -12.708  -1.097   1.440  0.00  0.00    +0.046 C 
ENDBRANCH  19  21
ENDBRANCH  16  17
ENDBRANCH   1  16
TORSDOF 6
