REMARK  Name = ZINC20690913
REMARK  9 active torsions:
REMARK  status: ('A' for Active; 'I' for Inactive)
REMARK    1  A    between atoms: C_1  and  C_2
REMARK    2  A    between atoms: C_2  and  C_3
REMARK    3  A    between atoms: C_2  and  C_4
REMARK    4  A    between atoms: C_2  and  N_5
REMARK    5  A    between atoms: C_6  and  C_8
REMARK    6  A    between atoms: C_21  and  C_24
REMARK    7  A    between atoms: C_27  and  O_31
REMARK    8  A    between atoms: C_28  and  O_30
REMARK    9  A    between atoms: O_31  and  C_32
REMARK                            x       y       z     vdW  Elec       q    Type
REMARK                         _______ _______ _______ _____ _____    ______ ____
ROOT
ATOM      1  C   UNL     1       1.987   3.626   1.465  0.00  0.00    +0.037 A 
ATOM      2  C   UNL     1       3.127   3.195   0.779  0.00  0.00    +0.015 A 
ATOM      3  C   UNL     1       3.051   2.119  -0.072  0.00  0.00    +0.024 A 
ATOM      4  C   UNL     1       1.844   1.449  -0.261  0.00  0.00    +0.031 A 
ATOM      5  C   UNL     1       0.698   1.889   0.418  0.00  0.00    -0.019 A 
ATOM      6  C   UNL     1       0.772   2.961   1.274  0.00  0.00    +0.019 A 
ATOM      7  C   UNL     1      -0.565   1.160   0.170  0.00  0.00    +0.049 C 
ATOM      8  C   UNL     1      -1.655   1.111   1.177  0.00  0.00    -0.023 C 
ATOM      9  C   UNL     1      -2.296  -0.045   1.053  0.00  0.00    -0.030 C 
ATOM     10  C   UNL     1      -1.647  -0.887  -0.048  0.00  0.00    +0.033 C 
ATOM     11  C   UNL     1      -0.212  -0.343  -0.047  0.00  0.00    +0.029 C 
ATOM     12  C   UNL     1       0.549  -0.392  -1.360  0.00  0.00    +0.105 C 
ATOM     13  N   UNL     1       1.805   0.351  -1.120  0.00  0.00    -0.336 N 
ATOM     14  H   UNL     1       2.732   0.042  -1.625  0.00  0.00    +0.147 HD
ENDROOT
BRANCH  12  15
ATOM     15  C   UNL     1      -0.250   0.273  -2.451  0.00  0.00    -0.023 A 
ATOM     16  C   UNL     1      -0.079   1.621  -2.707  0.00  0.00    +0.009 A 
ATOM     17  C   UNL     1      -0.809   2.235  -3.708  0.00  0.00    +0.050 A 
ATOM     18  C   UNL     1      -1.715   1.500  -4.455  0.00  0.00    +0.161 A 
ATOM     19  C   UNL     1      -1.887   0.144  -4.197  0.00  0.00    +0.159 A 
ATOM     20  C   UNL     1      -1.148  -0.467  -3.197  0.00  0.00    +0.054 A 
BRANCH  19  21
ATOM     21  O   UNL     1      -2.775  -0.581  -4.928  0.00  0.00    -0.503 OA
ATOM     22  H   UNL     1      -2.911  -1.653  -4.723  0.00  0.00    +0.292 HD
ENDBRANCH  19  21
BRANCH  18  23
ATOM     23  O   UNL     1      -2.434   2.104  -5.439  0.00  0.00    -0.491 OA
ATOM     24  C   UNL     1      -2.205   3.498  -5.648  0.00  0.00    +0.277 C 
ENDBRANCH  18  23
ENDBRANCH  12  15
BRANCH   1  26
ATOM     25  N   UNL     1       3.238   5.415   2.567  0.00  0.00    -0.307 N 
ATOM     26  C   UNL     1       2.065   4.776   2.385  0.00  0.00    +0.244 C 
ATOM     27  O   UNL     1       1.072   5.148   2.980  0.00  0.00    -0.270 OA
ATOM     28  H   UNL     1       4.136   5.079   2.029  0.00  0.00    +0.150 HD
BRANCH  25  30
ATOM     29  C   UNL     1       2.916   6.112   4.889  0.00  0.00    +0.031 C 
ATOM     30  C   UNL     1       3.316   6.557   3.481  0.00  0.00    +0.026 C 
ATOM     31  C   UNL     1       4.748   7.095   3.503  0.00  0.00    +0.031 C 
ATOM     32  C   UNL     1       2.366   7.657   3.004  0.00  0.00    +0.031 C 
ENDBRANCH  25  30
ENDBRANCH   1  26
TORSDOF 5
