REMARK  Name = ZINC54061286
REMARK  9 active torsions:
REMARK  status: ('A' for Active; 'I' for Inactive)
REMARK    1  A    between atoms: C_1  and  C_2
REMARK    2  A    between atoms: C_2  and  S_3
REMARK    3  A    between atoms: S_3  and  N_6
REMARK    4  A    between atoms: N_6  and  C_7
REMARK    5  A    between atoms: C_10  and  N_13
REMARK    6  A    between atoms: C_18  and  C_22
REMARK    7  A    between atoms: C_22  and  C_23
REMARK    8  A    between atoms: C_22  and  C_24
REMARK    9  A    between atoms: C_22  and  C_25
REMARK                            x       y       z     vdW  Elec       q    Type
REMARK                         _______ _______ _______ _____ _____    ______ ____
ROOT
ATOM      1  N   UNL     1       3.463  -5.293  -2.665  0.00  0.00    -0.292 N 
ATOM      2  C   UNL     1       4.110  -6.477  -2.347  0.00  0.00    +0.186 A 
ATOM      3  N   UNL     1       4.827  -7.253  -3.115  0.00  0.00    -0.142 NA
ATOM      4  N   UNL     1       5.409  -8.417  -2.623  0.00  0.00    -0.212 N 
ATOM      5  C   UNL     1       6.201  -9.460  -3.084  0.00  0.00    +0.139 A 
ATOM      6  C   UNL     1       6.416 -10.297  -2.053  0.00  0.00    +0.068 A 
ATOM      7  N   UNL     1       5.786  -9.809  -0.975  0.00  0.00    -0.224 NA
ATOM      8  C   UNL     1       5.189  -8.699  -1.303  0.00  0.00    +0.197 A 
ATOM      9  S   UNL     1       4.183  -7.331  -0.780  0.00  0.00    -0.013 S 
ATOM     10  H   UNL     1       3.446  -4.981  -3.583  0.00  0.00    +0.154 HD
ENDROOT
BRANCH   1  14
ATOM     11  C   UNL     1       1.590  -3.071   0.326  0.00  0.00    +0.048 A 
ATOM     12  C   UNL     1       2.747  -3.785   0.612  0.00  0.00    +0.026 A 
ATOM     13  C   UNL     1       3.366  -4.521  -0.378  0.00  0.00    +0.025 A 
ATOM     14  C   UNL     1       2.834  -4.547  -1.660  0.00  0.00    +0.033 A 
ATOM     15  C   UNL     1       1.677  -3.833  -1.946  0.00  0.00    +0.025 A 
ATOM     16  C   UNL     1       1.054  -3.102  -0.955  0.00  0.00    +0.026 A 
BRANCH  11  17
ATOM     17  N   UNL     1       0.962  -2.325   1.330  0.00  0.00    -0.221 N 
ATOM     18  H   UNL     1       0.666  -1.419   1.147  0.00  0.00    +0.173 HD
BRANCH  17  19
ATOM     19  S   UNL     1       0.725  -2.988   2.828  0.00  0.00    +0.043 S 
ATOM     20  O   UNL     1       0.019  -1.993   3.557  0.00  0.00    -0.155 OA
ATOM     21  O   UNL     1       2.015  -3.413   3.246  0.00  0.00    -0.155 OA
BRANCH  19  23
ATOM     22  C   UNL     1      -0.534  -5.192   3.849  0.00  0.00    +0.030 C 
ATOM     23  C   UNL     1      -0.343  -4.425   2.538  0.00  0.00    +0.185 C 
ENDBRANCH  19  23
ENDBRANCH  17  19
ENDBRANCH  11  17
ENDBRANCH   1  14
BRANCH   6  24
ATOM     24  C   UNL     1       7.226 -11.567  -2.103  0.00  0.00    +0.006 C 
ATOM     25  C   UNL     1       8.716 -11.221  -2.137  0.00  0.00    +0.017 C 
ATOM     26  C   UNL     1       6.928 -12.411  -0.862  0.00  0.00    +0.017 C 
ATOM     27  C   UNL     1       6.857 -12.359  -3.358  0.00  0.00    +0.017 C 
ENDBRANCH   6  24
TORSDOF 5
