REMARK  Name = ZINC12378539
REMARK  8 active torsions:
REMARK  status: ('A' for Active; 'I' for Inactive)
REMARK    1  A    between atoms: C_1  and  C_2
REMARK    2  A    between atoms: N_4  and  C_5
REMARK    3  A    between atoms: C_7  and  O_28
REMARK    4  A    between atoms: C_9  and  O_27
REMARK    5  A    between atoms: C_11  and  C_25
REMARK    6  A    between atoms: C_14  and  O_16
REMARK    7  A    between atoms: O_16  and  C_17
REMARK    8  A    between atoms: C_25  and  O_26
REMARK                            x       y       z     vdW  Elec       q    Type
REMARK                         _______ _______ _______ _____ _____    ______ ____
ROOT
ATOM      1  C   UNL     1       4.724   4.035   0.229  0.00  0.00    +0.173 C 
ATOM      2  C   UNL     1       4.746   4.961  -0.991  0.00  0.00    +0.172 C 
ATOM      3  C   UNL     1       4.783   4.110  -2.264  0.00  0.00    +0.176 C 
ATOM      4  C   UNL     1       3.578   3.166  -2.272  0.00  0.00    +0.179 C 
ATOM      5  O   UNL     1       3.602   2.354  -1.096  0.00  0.00    -0.332 OA
ATOM      6  C   UNL     1       3.521   3.094   0.124  0.00  0.00    +0.331 C 
ENDROOT
BRANCH   1  10
ATOM      7  C   UNL     1       8.333   2.945   0.895  0.00  0.00    +0.109 C 
ATOM      8  C   UNL     1       7.062   3.754   0.855  0.00  0.00    +0.210 C 
ATOM      9  O   UNL     1       7.032   4.861   1.350  0.00  0.00    -0.276 OA
ATOM     10  N   UNL     1       5.959   3.248   0.269  0.00  0.00    -0.304 N 
ATOM     11  H   UNL     1       5.984   2.363  -0.128  0.00  0.00    +0.149 HD
ENDBRANCH   1  10
BRANCH   3  12
ATOM     12  O   UNL     1       5.989   3.345  -2.291  0.00  0.00    -0.387 OA
ATOM     13  H   UNL     1       6.078   2.777  -3.070  0.00  0.00    +0.210 HD
ENDBRANCH   3  12
BRANCH   2  14
ATOM     14  O   UNL     1       3.571   5.775  -0.994  0.00  0.00    -0.387 OA
ATOM     15  H   UNL     1       3.516   6.382  -1.744  0.00  0.00    +0.210 HD
ENDBRANCH   2  14
BRANCH   6  16
ATOM     16  O   UNL     1       2.315   3.859   0.139  0.00  0.00    -0.460 OA
BRANCH  16  17
ATOM     17  C   UNL     1       1.149   3.171   0.263  0.00  0.00    +0.142 A 
ATOM     18  C   UNL     1       1.167   1.788   0.368  0.00  0.00    +0.049 A 
ATOM     19  C   UNL     1      -0.019   1.090   0.494  0.00  0.00    +0.023 A 
ATOM     20  C   UNL     1      -1.225   1.769   0.511  0.00  0.00    +0.043 A 
ATOM     21  C   UNL     1      -1.245   3.149   0.412  0.00  0.00    +0.043 A 
ATOM     22  C   UNL     1      -0.061   3.851   0.286  0.00  0.00    +0.084 A 
ATOM     23 CL   UNL     1      -0.087   5.582   0.155  0.00  0.00    -0.080 Cl
ATOM     24 CL   UNL     1      -2.713   0.889   0.663  0.00  0.00    -0.083 Cl
ENDBRANCH  16  17
ENDBRANCH   6  16
BRANCH   4  25
ATOM     25  C   UNL     1       3.640   2.270  -3.511  0.00  0.00    +0.190 C 
BRANCH  25  26
ATOM     26  O   UNL     1       2.458   1.470  -3.580  0.00  0.00    -0.392 OA
ATOM     27  H   UNL     1       2.430   0.876  -4.343  0.00  0.00    +0.210 HD
ENDBRANCH  25  26
ENDBRANCH   4  25
TORSDOF 7
