REMARK  Name = ZINC04029061
REMARK  12 active torsions:
REMARK  status: ('A' for Active; 'I' for Inactive)
REMARK    1  A    between atoms: C_1  and  C_2
REMARK    2  A    between atoms: C_2  and  C_3
REMARK    3  A    between atoms: C_3  and  C_27
REMARK    4  A    between atoms: C_5  and  C_9
REMARK    5  A    between atoms: C_5  and  C_19
REMARK    6  A    between atoms: C_9  and  C_10
REMARK    7  A    between atoms: C_10  and  N_60
REMARK    8  A    between atoms: C_11  and  C_12
REMARK    9  A    between atoms: C_11  and  N_60
REMARK   10  A    between atoms: C_17  and  O_18
REMARK   11  A    between atoms: C_22  and  O_25
REMARK   12  A    between atoms: O_25  and  C_26
REMARK                            x       y       z     vdW  Elec       q    Type
REMARK                         _______ _______ _______ _____ _____    ______ ____
ROOT
ATOM      1  C   UNL     1      -0.372   2.003   0.989  0.00  0.00    +0.067 C 
ATOM      2  C   UNL     1      -1.546   1.258   0.349  0.00  0.00    +0.046 C 
ATOM      3  C   UNL     1      -2.812   1.514   1.171  0.00  0.00    -0.001 C 
ATOM      4  C   UNL     1      -2.566   1.077   2.618  0.00  0.00    +0.039 C 
ATOM      5  C   UNL     1      -1.352   1.830   3.170  0.00  0.00    +0.161 C 
ATOM      6  O   UNL     1      -0.216   1.572   2.342  0.00  0.00    -0.374 OA
ATOM      7  C   UNL     1       0.909   1.704   0.207  0.00  0.00    +0.041 C 
ENDROOT
BRANCH   3   8
ATOM      8  C   UNL     1      -3.957   0.723   0.594  0.00  0.00    -0.041 A 
ATOM      9  C   UNL     1      -3.740  -0.124  -0.477  0.00  0.00    +0.008 A 
ATOM     10  C   UNL     1      -4.787  -0.855  -1.005  0.00  0.00    +0.046 A 
ATOM     11  C   UNL     1      -6.059  -0.730  -0.467  0.00  0.00    +0.120 A 
ATOM     12  C   UNL     1      -6.276   0.125   0.604  0.00  0.00    +0.046 A 
ATOM     13  C   UNL     1      -5.224   0.849   1.132  0.00  0.00    +0.008 A 
BRANCH  11  14
ATOM     14  O   UNL     1      -7.092  -1.444  -0.988  0.00  0.00    -0.495 OA
ATOM     15  C   UNL     1      -6.795  -2.304  -2.090  0.00  0.00    +0.277 C 
ENDBRANCH  11  14
ENDBRANCH   3   8
BRANCH   1  17
ATOM     16  C   UNL     1       0.676   4.265   0.819  0.00  0.00    +0.007 C 
ATOM     17  C   UNL     1      -0.646   3.508   0.961  0.00  0.00    +0.031 C 
ENDBRANCH   1  17
BRANCH   3  18
ATOM     18  C   UNL     1      -3.153   3.006   1.138  0.00  0.00    -0.007 C 
BRANCH  18  19
ATOM     19  C   UNL     1      -3.330   3.456  -0.313  0.00  0.00    -0.081 C 
BRANCH  19  20
ATOM     20  N   UNL     1      -3.522   4.918  -0.346  0.00  0.00    +0.382 N 
ATOM     21  H   UNL     1      -2.700   5.377   0.064  0.00  0.00    -0.085 HD
ATOM     22  H   UNL     1      -4.357   5.162   0.200  0.00  0.00    -0.085 HD
BRANCH  20  23
ATOM     23  C   UNL     1      -3.696   5.382  -1.735  0.00  0.00    -0.043 C 
BRANCH  23  24
ATOM     24  C   UNL     1      -3.890   6.876  -1.737  0.00  0.00    -0.023 A 
ATOM     25  C   UNL     1      -5.159   7.409  -1.855  0.00  0.00    +0.005 A 
ATOM     26  C   UNL     1      -5.338   8.779  -1.853  0.00  0.00    +0.000 A 
ATOM     27  C   UNL     1      -4.247   9.621  -1.741  0.00  0.00    +0.004 A 
ATOM     28  C   UNL     1      -2.975   9.094  -1.628  0.00  0.00    +0.045 A 
ATOM     29  C   UNL     1      -2.793   7.718  -1.625  0.00  0.00    +0.118 A 
BRANCH  29  30
ATOM     30  O   UNL     1      -1.543   7.197  -1.514  0.00  0.00    -0.507 OA
ATOM     31  H   UNL     1      -1.099   7.056  -2.361  0.00  0.00    +0.292 HD
ENDBRANCH  29  30
ENDBRANCH  23  24
ENDBRANCH  20  23
ENDBRANCH  19  20
ENDBRANCH  18  19
ENDBRANCH   3  18
TORSDOF 9
