REMARK  Name = ZINC38706019
REMARK  10 active torsions:
REMARK  status: ('A' for Active; 'I' for Inactive)
REMARK    1  A    between atoms: C_1  and  C_2
REMARK    2  A    between atoms: C_4  and  C_36
REMARK    3  A    between atoms: C_5  and  C_9
REMARK    4  A    between atoms: C_6  and  O_8
REMARK    5  A    between atoms: N_17  and  C_29
REMARK    6  A    between atoms: C_18  and  C_20
REMARK    7  A    between atoms: C_23  and  C_26
REMARK    8  A    between atoms: C_26  and  C_27
REMARK    9  A    between atoms: C_26  and  C_28
REMARK   10  A    between atoms: C_29  and  C_30
REMARK                            x       y       z     vdW  Elec       q    Type
REMARK                         _______ _______ _______ _____ _____    ______ ____
ROOT
ATOM      1  C   UNL     1       0.219  -4.519  -0.145  0.00  0.00    +0.102 A 
ATOM      2  C   UNL     1       0.245  -5.247   1.049  0.00  0.00    +0.035 A 
ATOM      3  C   UNL     1       0.192  -6.577   0.680  0.00  0.00    +0.126 A 
ATOM      4  N   UNL     1       0.138  -6.591  -0.684  0.00  0.00    -0.272 N 
ATOM      5  H   UNL     1       0.093  -7.390  -1.232  0.00  0.00    +0.189 HD
ATOM      6  N   UNL     1       0.149  -5.387  -1.135  0.00  0.00    -0.173 NA
ATOM      7  C   UNL     1       0.216  -7.400   1.895  0.00  0.00    +0.266 C 
ATOM      8  O   UNL     1       0.181  -8.615   1.911  0.00  0.00    -0.268 OA
ATOM      9  N   UNL     1       0.281  -6.619   2.988  0.00  0.00    -0.281 N 
ATOM     10  C   UNL     1       0.305  -5.216   2.552  0.00  0.00    +0.142 C 
ENDROOT
BRANCH   1  15
ATOM     11  C   UNL     1       0.367   1.220  -0.650  0.00  0.00    +0.044 C 
ATOM     12  C   UNL     1       0.326  -0.280  -0.516  0.00  0.00    -0.047 A 
ATOM     13  C   UNL     1       1.193  -1.062  -1.258  0.00  0.00    +0.007 A 
ATOM     14  C   UNL     1       1.163  -2.437  -1.141  0.00  0.00    -0.037 A 
ATOM     15  C   UNL     1       0.256  -3.041  -0.274  0.00  0.00    +0.047 A 
ATOM     16  C   UNL     1      -0.619  -2.249   0.475  0.00  0.00    +0.127 A 
ATOM     17  C   UNL     1      -0.574  -0.869   0.352  0.00  0.00    +0.049 A 
ATOM     18  C   UNL     1       2.109  -3.284  -1.952  0.00  0.00    +0.044 C 
BRANCH  16  19
ATOM     19  O   UNL     1      -1.507  -2.829   1.324  0.00  0.00    -0.506 OA
ATOM     20  H   UNL     1      -1.199  -2.881   2.239  0.00  0.00    +0.292 HD
ENDBRANCH  16  19
ENDBRANCH   1  15
BRANCH  10  21
ATOM     21  C   UNL     1       1.579  -4.553   3.007  0.00  0.00    -0.022 A 
ATOM     22  C   UNL     1       2.796  -5.169   2.786  0.00  0.00    +0.006 A 
ATOM     23  C   UNL     1       3.965  -4.560   3.204  0.00  0.00    +0.004 A 
ATOM     24  C   UNL     1       3.916  -3.334   3.841  0.00  0.00    -0.045 A 
ATOM     25  C   UNL     1       2.699  -2.717   4.061  0.00  0.00    +0.004 A 
ATOM     26  C   UNL     1       1.531  -3.324   3.640  0.00  0.00    +0.006 A 
BRANCH  24  27
ATOM     27  C   UNL     1       5.191  -2.671   4.297  0.00  0.00    +0.013 C 
ATOM     28  C   UNL     1       5.334  -1.314   3.605  0.00  0.00    +0.012 C 
ATOM     29  C   UNL     1       5.146  -2.469   5.813  0.00  0.00    +0.012 C 
ENDBRANCH  24  27
ENDBRANCH  10  21
BRANCH   9  30
ATOM     30  C   UNL     1       0.320  -7.086   4.376  0.00  0.00    +0.145 C 
BRANCH  30  31
ATOM     31  C   UNL     1       1.753  -7.288   4.798  0.00  0.00    -0.012 A 
ATOM     32  C   UNL     1       2.375  -8.513   4.609  0.00  0.00    +0.008 A 
ATOM     33  C   UNL     1       3.694  -8.653   5.012  0.00  0.00    +0.020 A 
ATOM     34  C   UNL     1       4.341  -7.574   5.585  0.00  0.00    +0.111 A 
ATOM     35  N   UNL     1       3.718  -6.424   5.750  0.00  0.00    -0.263 NA
ATOM     36  C   UNL     1       2.465  -6.253   5.372  0.00  0.00    +0.115 A 
ENDBRANCH  30  31
ENDBRANCH   9  30
TORSDOF 6
