REMARK  Name = ZINC13146008
REMARK  11 active torsions:
REMARK  status: ('A' for Active; 'I' for Inactive)
REMARK    1  A    between atoms: C_1  and  O_2
REMARK    2  A    between atoms: O_2  and  C_3
REMARK    3  A    between atoms: C_6  and  N_9
REMARK    4  A    between atoms: N_12  and  C_15
REMARK    5  A    between atoms: C_15  and  C_16
REMARK    6  A    between atoms: C_16  and  C_18
REMARK    7  A    between atoms: C_16  and  O_35
REMARK    8  A    between atoms: C_18  and  O_19
REMARK    9  A    between atoms: O_19  and  C_20
REMARK   10  A    between atoms: C_20  and  C_21
REMARK   11  A    between atoms: C_20  and  C_28
REMARK                            x       y       z     vdW  Elec       q    Type
REMARK                         _______ _______ _______ _____ _____    ______ ____
ROOT
ATOM      1  C   UNL     1       3.115  -6.599   7.297  0.00  0.00    +0.154 C 
ENDROOT
BRANCH   1   2
ATOM      2  O   UNL     1       2.848  -7.595   6.308  0.00  0.00    -0.388 OA
ATOM      3  H   UNL     1       3.636  -8.064   6.000  0.00  0.00    +0.210 HD
ENDBRANCH   1   2
BRANCH   1   4
ATOM      4  C   UNL     1       4.069  -5.550   6.721  0.00  0.00    +0.118 C 
BRANCH   4   8
ATOM      5  N   UNL     1       2.537  -2.501   4.227  0.00  0.00    -0.391 NA
ATOM      6  C   UNL     1       3.648  -3.316   3.718  0.00  0.00    +0.100 C 
ATOM      7  C   UNL     1       4.362  -3.993   4.890  0.00  0.00    +0.102 C 
ATOM      8  N   UNL     1       3.407  -4.838   5.621  0.00  0.00    -0.297 NA
ATOM      9  C   UNL     1       2.276  -4.039   6.114  0.00  0.00    +0.102 C 
ATOM     10  C   UNL     1       1.579  -3.362   4.933  0.00  0.00    +0.100 C 
ATOM     11  H   UNL     1       2.895  -1.804   4.863  0.00  0.00    +0.126 HD
BRANCH   5  15
ATOM     12  C   UNL     1       0.626  -0.618   1.042  0.00  0.00    +0.120 A 
ATOM     13  C   UNL     1       1.202   0.138   2.051  0.00  0.00    +0.047 A 
ATOM     14  C   UNL     1       1.835  -0.488   3.107  0.00  0.00    +0.025 A 
ATOM     15  C   UNL     1       1.895  -1.869   3.158  0.00  0.00    +0.014 A 
ATOM     16  C   UNL     1       1.322  -2.625   2.152  0.00  0.00    +0.025 A 
ATOM     17  C   UNL     1       0.682  -2.003   1.098  0.00  0.00    +0.047 A 
BRANCH  12  19
ATOM     18  C   UNL     1      -0.017   1.425   0.010  0.00  0.00    +0.277 C 
ATOM     19  O   UNL     1       0.002  -0.004   0.002  0.00  0.00    -0.495 OA
ENDBRANCH  12  19
ENDBRANCH   5  15
ENDBRANCH   4   8
ENDBRANCH   1   4
BRANCH   1  20
ATOM     20  C   UNL     1       3.756  -7.255   8.521  0.00  0.00    +0.193 C 
BRANCH  20  21
ATOM     21  O   UNL     1       2.821  -8.149   9.127  0.00  0.00    -0.365 OA
BRANCH  21  22
ATOM     22  C   UNL     1       3.323  -8.817  10.286  0.00  0.00    +0.178 C 
BRANCH  22  23
ATOM     23  C   UNL     1       3.018  -7.995  11.512  0.00  0.00    -0.014 A 
ATOM     24  C   UNL     1       1.798  -7.358  11.630  0.00  0.00    +0.009 A 
ATOM     25  C   UNL     1       1.517  -6.604  12.754  0.00  0.00    +0.039 A 
ATOM     26  C   UNL     1       2.460  -6.487  13.762  0.00  0.00    +0.123 A 
ATOM     27  C   UNL     1       3.682  -7.126  13.642  0.00  0.00    +0.039 A 
ATOM     28  C   UNL     1       3.958  -7.883  12.520  0.00  0.00    +0.009 A 
ATOM     29  F   UNL     1       2.187  -5.750  14.860  0.00  0.00    -0.205 F 
ENDBRANCH  22  23
BRANCH  22  30
ATOM     30  C   UNL     1       2.666 -10.168  10.412  0.00  0.00    -0.014 A 
ATOM     31  C   UNL     1       1.348 -10.333  10.027  0.00  0.00    +0.009 A 
ATOM     32  C   UNL     1       0.745 -11.571  10.140  0.00  0.00    +0.039 A 
ATOM     33  C   UNL     1       1.460 -12.646  10.640  0.00  0.00    +0.123 A 
ATOM     34  C   UNL     1       2.779 -12.479  11.026  0.00  0.00    +0.039 A 
ATOM     35  C   UNL     1       3.382 -11.242  10.906  0.00  0.00    +0.009 A 
ATOM     36  F   UNL     1       0.871 -13.857  10.753  0.00  0.00    -0.205 F 
ENDBRANCH  22  30
ENDBRANCH  21  22
ENDBRANCH  20  21
ENDBRANCH   1  20
TORSDOF 10
