REMARK  Name = ZINC14382965
REMARK  11 active torsions:
REMARK  status: ('A' for Active; 'I' for Inactive)
REMARK    1  A    between atoms: C_1  and  C_2
REMARK    2  A    between atoms: C_5  and  O_8
REMARK    3  A    between atoms: O_8  and  C_9
REMARK    4  A    between atoms: C_9  and  C_11
REMARK    5  A    between atoms: C_9  and  C_12
REMARK    6  A    between atoms: N_14  and  C_15
REMARK    7  A    between atoms: N_14  and  C_22
REMARK    8  A    between atoms: C_15  and  C_16
REMARK    9  A    between atoms: C_23  and  N_38
REMARK   10  A    between atoms: N_24  and  C_31
REMARK   11  A    between atoms: C_31  and  C_32
REMARK                            x       y       z     vdW  Elec       q    Type
REMARK                         _______ _______ _______ _____ _____    ______ ____
ROOT
ATOM      1  C   UNL     1       3.715  -2.199  -2.090  0.00  0.00    +0.261 C 
ATOM      2  O   UNL     1       4.444  -2.751  -2.887  0.00  0.00    -0.271 OA
ATOM      3  N   UNL     1       3.847  -0.876  -1.859  0.00  0.00    -0.257 N 
ENDROOT
BRANCH   3   4
ATOM      4  C   UNL     1       4.871  -0.146  -2.500  0.00  0.00    +0.140 A 
ATOM      5  C   UNL     1       4.855   0.030  -3.868  0.00  0.00    +0.128 A 
ATOM      6  N   UNL     1       5.864   0.750  -4.464  0.00  0.00    -0.276 N 
ATOM      7  C   UNL     1       6.860   1.268  -3.723  0.00  0.00    +0.331 A 
ATOM      8  O   UNL     1       7.746   1.897  -4.269  0.00  0.00    -0.246 OA
ATOM      9  N   UNL     1       6.895   1.101  -2.389  0.00  0.00    -0.273 N 
ATOM     10  H   UNL     1       7.647   1.496  -1.861  0.00  0.00    +0.173 HD
ATOM     11  C   UNL     1       5.928   0.409  -1.755  0.00  0.00    +0.277 A 
ATOM     12  O   UNL     1       5.969   0.264  -0.545  0.00  0.00    -0.266 OA
BRANCH   5  13
ATOM     13  N   UNL     1       3.840  -0.503  -4.626  0.00  0.00    -0.343 N 
ATOM     14  H   UNL     1       3.095  -0.949  -4.194  0.00  0.00    +0.144 HD
ATOM     15  H   UNL     1       3.869  -0.433  -5.593  0.00  0.00    +0.144 HD
ENDBRANCH   5  13
BRANCH   6  16
ATOM     16  C   UNL     1       5.857   0.950  -5.915  0.00  0.00    +0.163 C 
BRANCH  16  17
ATOM     17  C   UNL     1       6.602  -0.179  -6.581  0.00  0.00    -0.028 A 
ATOM     18  C   UNL     1       7.961  -0.069  -6.811  0.00  0.00    +0.005 A 
ATOM     19  C   UNL     1       8.645  -1.106  -7.417  0.00  0.00    +0.000 A 
ATOM     20  C   UNL     1       7.968  -2.248  -7.804  0.00  0.00    +0.000 A 
ATOM     21  C   UNL     1       6.608  -2.355  -7.579  0.00  0.00    +0.000 A 
ATOM     22  C   UNL     1       5.925  -1.320  -6.968  0.00  0.00    +0.005 A 
ENDBRANCH  16  17
ENDBRANCH   6  16
ENDBRANCH   3   4
BRANCH   1  23
ATOM     23  C   UNL     1       2.663  -2.991  -1.357  0.00  0.00    +0.256 C 
ATOM     24  C   UNL     1       3.096  -3.192   0.097  0.00  0.00    +0.062 C 
BRANCH  23  25
ATOM     25  O   UNL     1       2.500  -4.263  -1.986  0.00  0.00    -0.480 OA
BRANCH  25  30
ATOM     26  C   UNL     1      -2.435  -6.872  -1.240  0.00  0.00    +0.044 C 
ATOM     27  C   UNL     1      -1.115  -6.174  -1.439  0.00  0.00    -0.050 A 
ATOM     28  C   UNL     1      -0.845  -5.000  -0.761  0.00  0.00    +0.007 A 
ATOM     29  C   UNL     1       0.364  -4.358  -0.942  0.00  0.00    +0.046 A 
ATOM     30  C   UNL     1       1.310  -4.893  -1.806  0.00  0.00    +0.122 A 
ATOM     31  C   UNL     1       1.034  -6.068  -2.490  0.00  0.00    +0.046 A 
ATOM     32  C   UNL     1      -0.174  -6.710  -2.300  0.00  0.00    +0.007 A 
ENDBRANCH  25  30
ENDBRANCH  23  25
ENDBRANCH   1  23
BRANCH   3  33
ATOM     33  C   UNL     1       2.928  -0.197  -0.942  0.00  0.00    +0.149 C 
BRANCH  33  34
ATOM     34  C   UNL     1       1.815   0.445  -1.730  0.00  0.00    -0.030 A 
ATOM     35  C   UNL     1       0.624  -0.231  -1.920  0.00  0.00    +0.005 A 
ATOM     36  C   UNL     1      -0.397   0.358  -2.643  0.00  0.00    +0.000 A 
ATOM     37  C   UNL     1      -0.226   1.622  -3.176  0.00  0.00    +0.000 A 
ATOM     38  C   UNL     1       0.965   2.297  -2.986  0.00  0.00    +0.000 A 
ATOM     39  C   UNL     1       1.986   1.708  -2.263  0.00  0.00    +0.005 A 
ENDBRANCH  33  34
ENDBRANCH   3  33
TORSDOF 9
