REMARK  Name = ZINC39667664
REMARK  11 active torsions:
REMARK  status: ('A' for Active; 'I' for Inactive)
REMARK    1  A    between atoms: C_1  and  C_2
REMARK    2  A    between atoms: C_6  and  C_9
REMARK    3  A    between atoms: C_7  and  C_8
REMARK    4  A    between atoms: C_9  and  N_10
REMARK    5  A    between atoms: C_11  and  C_13
REMARK    6  A    between atoms: C_24  and  C_26
REMARK    7  A    between atoms: C_26  and  C_28
REMARK    8  A    between atoms: C_26  and  O_31
REMARK    9  A    between atoms: C_28  and  C_29
REMARK   10  A    between atoms: C_28  and  C_30
REMARK   11  A    between atoms: O_31  and  C_32
REMARK                            x       y       z     vdW  Elec       q    Type
REMARK                         _______ _______ _______ _____ _____    ______ ____
ROOT
ATOM      1  C   UNL     1      -2.956  -3.675   4.853  0.00  0.00    +0.100 C 
ATOM      2  C   UNL     1      -3.409  -2.249   5.239  0.00  0.00    +0.121 C 
ATOM      3  N   UNL     1      -4.174  -2.427   6.496  0.00  0.00    -0.297 N 
ATOM      4  C   UNL     1      -3.413  -3.454   7.248  0.00  0.00    +0.115 C 
ATOM      5  C   UNL     1      -2.959  -4.462   6.173  0.00  0.00    -0.004 C 
ATOM      6  C   UNL     1      -3.943  -5.625   6.092  0.00  0.00    -0.010 C 
ATOM      7  C   UNL     1      -3.887  -6.427   7.396  0.00  0.00    -0.082 C 
ATOM      8  N   UNL     1      -2.523  -6.927   7.607  0.00  0.00    +0.379 N 
ATOM      9  C   UNL     1      -1.597  -5.800   7.777  0.00  0.00    -0.082 C 
ATOM     10  C   UNL     1      -1.557  -4.972   6.489  0.00  0.00    -0.010 C 
ATOM     11  C   UNL     1      -5.305  -1.798   6.871  0.00  0.00    +0.257 C 
ATOM     12  O   UNL     1      -5.816  -2.055   7.940  0.00  0.00    -0.272 OA
ATOM     13  H   UNL     1      -2.502  -7.505   8.434  0.00  0.00    -0.086 HD
ATOM     14  H   UNL     1      -2.240  -7.476   6.809  0.00  0.00    -0.086 HD
ENDROOT
BRANCH   1  16
ATOM     15  N   UNL     1      -1.146  -4.653   3.478  0.00  0.00    -0.311 N 
ATOM     16  C   UNL     1      -1.568  -3.643   4.265  0.00  0.00    +0.218 C 
ATOM     17  O   UNL     1      -0.832  -2.708   4.499  0.00  0.00    -0.275 OA
ATOM     18  H   UNL     1      -1.736  -5.400   3.291  0.00  0.00    +0.149 HD
BRANCH  15  19
ATOM     19  C   UNL     1       0.202  -4.622   2.907  0.00  0.00    +0.139 C 
BRANCH  19  25
ATOM     20  C   UNL     1      -0.434  -7.133  -1.375  0.00  0.00    +0.044 C 
ATOM     21  C   UNL     1       0.118  -7.059   0.025  0.00  0.00    -0.047 A 
ATOM     22  C   UNL     1       0.827  -8.126   0.545  0.00  0.00    +0.003 A 
ATOM     23  C   UNL     1       1.334  -8.059   1.830  0.00  0.00    +0.001 A 
ATOM     24  C   UNL     1       1.131  -6.924   2.594  0.00  0.00    +0.005 A 
ATOM     25  C   UNL     1       0.423  -5.858   2.074  0.00  0.00    -0.027 A 
ATOM     26  C   UNL     1      -0.080  -5.923   0.787  0.00  0.00    -0.043 A 
ATOM     27  C   UNL     1      -0.847  -4.758   0.218  0.00  0.00    +0.044 C 
ENDBRANCH  19  25
ENDBRANCH  15  19
ENDBRANCH   1  16
BRANCH  11  28
ATOM     28  C   UNL     1      -5.935  -0.775   5.961  0.00  0.00    +0.261 C 
BRANCH  28  29
ATOM     29  C   UNL     1      -4.995   0.422   5.810  0.00  0.00    +0.033 C 
ATOM     30  C   UNL     1      -5.634   1.460   4.886  0.00  0.00    +0.011 C 
ATOM     31  C   UNL     1      -4.741   1.048   7.183  0.00  0.00    +0.011 C 
ENDBRANCH  28  29
BRANCH  28  32
ATOM     32  O   UNL     1      -7.175  -0.339   6.521  0.00  0.00    -0.479 OA
BRANCH  32  33
ATOM     33  C   UNL     1      -8.166  -0.013   5.649  0.00  0.00    +0.122 A 
ATOM     34  C   UNL     1      -7.978  -0.190   4.287  0.00  0.00    +0.045 A 
ATOM     35  C   UNL     1      -8.986   0.142   3.402  0.00  0.00    +0.004 A 
ATOM     36  C   UNL     1     -10.182   0.651   3.875  0.00  0.00    +0.000 A 
ATOM     37  C   UNL     1     -10.371   0.829   5.233  0.00  0.00    +0.004 A 
ATOM     38  C   UNL     1      -9.368   0.493   6.122  0.00  0.00    +0.045 A 
ENDBRANCH  32  33
ENDBRANCH  28  32
ENDBRANCH  11  28
TORSDOF 7
