REMARK  Name = ZINC09542279
REMARK  7 active torsions:
REMARK  status: ('A' for Active; 'I' for Inactive)
REMARK    1  A    between atoms: C_1  and  C_2
REMARK    2  A    between atoms: C_2  and  O_3
REMARK    3  A    between atoms: O_3  and  C_4
REMARK    4  A    between atoms: C_7  and  C_10
REMARK    5  A    between atoms: C_12  and  C_25
REMARK    6  A    between atoms: C_14  and  C_17
REMARK    7  A    between atoms: C_22  and  O_23
REMARK                            x       y       z     vdW  Elec       q    Type
REMARK                         _______ _______ _______ _____ _____    ______ ____
ROOT
ATOM      1  C   UNL     1      -1.910   2.001  -1.184  0.00  0.00    +0.040 C 
ATOM      2  N   UNL     1      -0.707   1.563  -1.181  0.00  0.00    -0.299 NA
ATOM      3  C   UNL     1      -0.013   1.086   0.008  0.00  0.00    +0.081 C 
ATOM      4  C   UNL     1      -2.125   1.235   1.163  0.00  0.00    -0.028 C 
ATOM      5  C   UNL     1      -2.756   2.085   0.056  0.00  0.00    +0.044 C 
ATOM      6  N   UNL     1      -0.686   1.556   1.228  0.00  0.00    +0.401 N 
ATOM      7  H   UNL     1      -0.567   2.572   1.312  0.00  0.00    -0.081 HD
ATOM      8  H   UNL     1      -0.271   1.094   2.046  0.00  0.00    -0.081 HD
ENDROOT
BRANCH   4   9
ATOM      9  C   UNL     1      -2.774   1.558   2.484  0.00  0.00    -0.018 A 
ATOM     10  C   UNL     1      -2.195   2.484   3.331  0.00  0.00    +0.020 A 
ATOM     11  C   UNL     1      -2.794   2.785   4.541  0.00  0.00    +0.018 A 
ATOM     12  C   UNL     1      -3.967   2.151   4.912  0.00  0.00    +0.019 A 
ATOM     13  C   UNL     1      -4.545   1.220   4.071  0.00  0.00    +0.047 A 
ATOM     14  C   UNL     1      -3.950   0.922   2.854  0.00  0.00    +0.119 A 
ATOM     15 BR   UNL     1      -2.004   4.058   5.695  0.00  0.00    -0.050 Br
BRANCH  14  16
ATOM     16  O   UNL     1      -4.518   0.007   2.024  0.00  0.00    -0.507 OA
ATOM     17  H   UNL     1      -4.213  -0.899   2.171  0.00  0.00    +0.292 HD
ENDBRANCH  14  16
ENDBRANCH   4   9
BRANCH   3  18
ATOM     18  C   UNL     1       1.403   1.601  -0.003  0.00  0.00    -0.038 A 
ATOM     19  C   UNL     1       2.041   1.844  -1.205  0.00  0.00    +0.004 A 
ATOM     20  C   UNL     1       3.340   2.317  -1.217  0.00  0.00    +0.003 A 
ATOM     21  C   UNL     1       4.002   2.548  -0.026  0.00  0.00    +0.038 A 
ATOM     22  C   UNL     1       3.365   2.305   1.179  0.00  0.00    +0.124 A 
ATOM     23  C   UNL     1       2.062   1.837   1.189  0.00  0.00    +0.042 A 
ATOM     24  F   UNL     1       4.011   2.531   2.344  0.00  0.00    -0.205 F 
ENDBRANCH   3  18
BRANCH   1  28
ATOM     25  C   UNL     1      -3.591   3.275  -4.869  0.00  0.00    +0.121 A 
ATOM     26  C   UNL     1      -2.287   2.794  -4.831  0.00  0.00    +0.046 A 
ATOM     27  C   UNL     1      -1.738   2.380  -3.638  0.00  0.00    +0.013 A 
ATOM     28  C   UNL     1      -2.494   2.444  -2.464  0.00  0.00    -0.004 A 
ATOM     29  C   UNL     1      -3.806   2.922  -2.507  0.00  0.00    +0.013 A 
ATOM     30  C   UNL     1      -4.346   3.339  -3.704  0.00  0.00    +0.046 A 
BRANCH  25  31
ATOM     31  O   UNL     1      -4.128   3.682  -6.047  0.00  0.00    -0.492 OA
BRANCH  31  33
ATOM     32  C   UNL     1      -5.902   4.574  -7.425  0.00  0.00    +0.048 C 
ATOM     33  C   UNL     1      -5.473   4.164  -6.014  0.00  0.00    +0.225 C 
ENDBRANCH  31  33
ENDBRANCH  25  31
ENDBRANCH   1  28
TORSDOF 6
