REMARK  Name = ZINC39280168
REMARK  6 active torsions:
REMARK  status: ('A' for Active; 'I' for Inactive)
REMARK    1  A    between atoms: C_1  and  C_2
REMARK    2  A    between atoms: C_2  and  C_3
REMARK    3  A    between atoms: N_12  and  C_17
REMARK    4  A    between atoms: C_14  and  C_16
REMARK    5  A    between atoms: C_18  and  C_22
REMARK    6  A    between atoms: C_19  and  N_21
REMARK                            x       y       z     vdW  Elec       q    Type
REMARK                         _______ _______ _______ _____ _____    ______ ____
ROOT
ATOM      1  C   UNL     1      -1.413  -0.526   0.013  0.00  0.00    +0.054 C 
ATOM      2  N   UNL     1      -2.476   0.215   0.117  0.00  0.00    -0.155 NA
ATOM      3  N   UNL     1      -3.635  -0.546   0.258  0.00  0.00    -0.115 NA
ATOM      4  C   UNL     1      -3.375  -1.794   0.311  0.00  0.00    +0.227 C 
ATOM      5  C   UNL     1      -1.894  -1.942  -0.092  0.00  0.00    +0.134 C 
ATOM      6  C   UNL     1      -1.984  -2.539  -1.500  0.00  0.00    +0.026 C 
ATOM      7  C   UNL     1      -2.670  -1.549  -2.443  0.00  0.00    -0.005 C 
ATOM      8  C   UNL     1      -1.711  -0.516  -3.018  0.00  0.00    -0.078 C 
ATOM      9  N   UNL     1      -0.608  -1.197  -3.703  0.00  0.00    +0.378 N 
ATOM     10  C   UNL     1       0.186  -1.945  -2.726  0.00  0.00    -0.075 C 
ATOM     11  C   UNL     1      -0.653  -3.019  -2.039  0.00  0.00    -0.018 C 
ATOM     12  C   UNL     1       0.190  -3.687  -0.946  0.00  0.00    +0.006 C 
ATOM     13  C   UNL     1       0.245  -0.202  -4.369  0.00  0.00    -0.096 C 
ATOM     14  C   UNL     1      -2.938  -3.723  -1.376  0.00  0.00    +0.094 C 
ATOM     15  C   UNL     1      -3.854  -3.867  -0.395  0.00  0.00    +0.200 C 
ATOM     16  O   UNL     1      -4.090  -2.915   0.547  0.00  0.00    -0.425 OA
ATOM     17  H   UNL     1      -0.980  -1.831  -4.393  0.00  0.00    -0.082 HD
ENDROOT
BRANCH  15  18
ATOM     18  N   UNL     1      -4.574  -5.033  -0.340  0.00  0.00    -0.328 N 
ATOM     19  H   UNL     1      -4.420  -5.730  -0.997  0.00  0.00    +0.145 HD
ATOM     20  H   UNL     1      -5.239  -5.161   0.355  0.00  0.00    +0.145 HD
ENDBRANCH  15  18
BRANCH   1  22
ATOM     21  C   UNL     1       0.482   0.197   1.441  0.00  0.00    +0.010 C 
ATOM     22  C   UNL     1       0.002  -0.004   0.002  0.00  0.00    +0.050 C 
ENDBRANCH   1  22
BRANCH  14  23
ATOM     23  C   UNL     1      -2.936  -4.750  -2.371  0.00  0.00    +0.100 C 
ATOM     24  N   UNL     1      -2.934  -5.565  -3.162  0.00  0.00    -0.191 NA
ENDBRANCH  14  23
TORSDOF 3
