REMARK  Name = ZINC18223066
REMARK  3 active torsions:
REMARK  status: ('A' for Active; 'I' for Inactive)
REMARK    1  A    between atoms: C_8  and  C_13
REMARK    2  A    between atoms: C_13  and  C_14
REMARK    3  A    between atoms: C_13  and  C_20
REMARK                            x       y       z     vdW  Elec       q    Type
REMARK                         _______ _______ _______ _____ _____    ______ ____
ROOT
ATOM      1  C   UNL     1       2.677  -4.256  -0.046  0.00  0.00    +0.098 C 
ENDROOT
BRANCH   1   9
ATOM      2  C   UNL     1       4.347   0.927   3.001  0.00  0.00    +0.001 A 
ATOM      3  C   UNL     1       5.605   1.025   2.422  0.00  0.00    +0.002 A 
ATOM      4  C   UNL     1       6.028   0.094   1.499  0.00  0.00    +0.026 A 
ATOM      5  C   UNL     1       5.189  -0.957   1.141  0.00  0.00    +0.053 A 
ATOM      6  C   UNL     1       3.917  -1.055   1.728  0.00  0.00    +0.045 A 
ATOM      7  C   UNL     1       3.502  -0.105   2.660  0.00  0.00    +0.014 A 
ATOM      8  C   UNL     1       3.043  -2.176   1.335  0.00  0.00    +0.197 A 
ATOM      9  C   UNL     1       3.532  -3.093   0.387  0.00  0.00    +0.076 A 
ATOM     10  C   UNL     1       4.778  -2.932  -0.138  0.00  0.00    +0.257 A 
ATOM     11  O   UNL     1       5.223  -3.827  -1.047  0.00  0.00    -0.267 OA
ATOM     12  N   UNL     1       5.588  -1.902   0.219  0.00  0.00    -0.322 N 
ATOM     13  H   UNL     1       6.468  -1.829  -0.184  0.00  0.00    +0.169 HD
ATOM     14  O   UNL     1       1.929  -2.305   1.817  0.00  0.00    -0.287 OA
ENDBRANCH   1   9
BRANCH   1  15
ATOM     15  C   UNL     1       1.770  -3.821  -1.169  0.00  0.00    +0.076 A 
ATOM     16  C   UNL     1       0.979  -4.771  -1.840  0.00  0.00    +0.197 A 
ATOM     17  C   UNL     1       0.107  -4.297  -2.931  0.00  0.00    +0.045 A 
ATOM     18  C   UNL     1      -0.708  -5.178  -3.642  0.00  0.00    +0.014 A 
ATOM     19  C   UNL     1      -1.508  -4.697  -4.654  0.00  0.00    +0.001 A 
ATOM     20  C   UNL     1      -1.507  -3.344  -4.967  0.00  0.00    +0.002 A 
ATOM     21  C   UNL     1      -0.708  -2.463  -4.273  0.00  0.00    +0.026 A 
ATOM     22  C   UNL     1       0.108  -2.929  -3.247  0.00  0.00    +0.053 A 
ATOM     23  N   UNL     1       0.917  -2.067  -2.535  0.00  0.00    -0.322 N 
ATOM     24  H   UNL     1       0.914  -1.123  -2.757  0.00  0.00    +0.169 HD
ATOM     25  C   UNL     1       1.714  -2.510  -1.528  0.00  0.00    +0.257 A 
ATOM     26  O   UNL     1       2.481  -1.618  -0.864  0.00  0.00    -0.267 OA
ATOM     27  O   UNL     1       1.012  -5.951  -1.528  0.00  0.00    -0.287 OA
ENDBRANCH   1  15
BRANCH   1  28
ATOM     28  C   UNL     1       1.845  -4.729   1.118  0.00  0.00    -0.017 A 
ATOM     29  C   UNL     1       2.433  -5.419   2.167  0.00  0.00    +0.007 A 
ATOM     30  C   UNL     1       1.629  -5.835   3.217  0.00  0.00    +0.020 A 
ATOM     31  C   UNL     1       0.276  -5.550   3.182  0.00  0.00    +0.111 A 
ATOM     32  N   UNL     1      -0.249  -4.893   2.167  0.00  0.00    -0.263 NA
ATOM     33  C   UNL     1       0.487  -4.476   1.155  0.00  0.00    +0.115 A 
ENDBRANCH   1  28
TORSDOF 3
