REMARK  Name = ZINC39583643
REMARK  6 active torsions:
REMARK  status: ('A' for Active; 'I' for Inactive)
REMARK    1  A    between atoms: C_2  and  C_3
REMARK    2  A    between atoms: C_3  and  N_4
REMARK    3  A    between atoms: C_5  and  C_21
REMARK    4  A    between atoms: C_8  and  S_9
REMARK    5  A    between atoms: S_9  and  C_10
REMARK    6  A    between atoms: C_10  and  C_11
REMARK                            x       y       z     vdW  Elec       q    Type
REMARK                         _______ _______ _______ _____ _____    ______ ____
ROOT
ATOM      1  N   UNL     1       1.368  -1.677   1.113  0.00  0.00    -0.254 NA
ATOM      2  C   UNL     1       2.536  -2.590   0.998  0.00  0.00    +0.172 C 
ATOM      3  N   UNL     1       2.762  -3.017   2.404  0.00  0.00    -0.233 NA
ATOM      4  N   UNL     1       2.486  -1.818   3.200  0.00  0.00    -0.229 NA
ATOM      5  C   UNL     1       1.597  -0.961   2.389  0.00  0.00    +0.200 C 
ATOM      6  H   UNL     1       3.712  -3.330   2.538  0.00  0.00    +0.143 HD
ATOM      7  H   UNL     1       3.341  -1.334   3.433  0.00  0.00    +0.143 HD
ENDROOT
BRANCH   2   8
ATOM      8  C   UNL     1       2.204  -3.775   0.127  0.00  0.00    -0.015 A 
ATOM      9  C   UNL     1       2.996  -4.073  -0.966  0.00  0.00    +0.008 A 
ATOM     10  C   UNL     1       2.692  -5.159  -1.764  0.00  0.00    +0.020 A 
ATOM     11  C   UNL     1       1.594  -5.948  -1.470  0.00  0.00    +0.041 A 
ATOM     12  C   UNL     1       0.802  -5.649  -0.376  0.00  0.00    +0.020 A 
ATOM     13  C   UNL     1       1.110  -4.566   0.426  0.00  0.00    +0.008 A 
ATOM     14 CL   UNL     1       1.211  -7.312  -2.473  0.00  0.00    -0.084 Cl
ENDBRANCH   2   8
BRANCH   1  15
ATOM     15  C   UNL     1       1.319  -0.739  -0.016  0.00  0.00    +0.115 C 
BRANCH  15  17
ATOM     16  C   UNL     1      -0.033   1.294  -0.004  0.00  0.00    +0.005 C 
ATOM     17  C   UNL     1      -0.003  -0.016  -0.012  0.00  0.00    -0.019 C 
ENDBRANCH  15  17
ENDBRANCH   1  15
BRANCH   5  18
ATOM     18  S   UNL     1       0.021  -0.708   3.252  0.00  0.00    -0.117 S 
BRANCH  18  19
ATOM     19  C   UNL     1      -0.605  -2.389   3.523  0.00  0.00    +0.146 C 
BRANCH  19  20
ATOM     20  C   UNL     1      -1.927  -2.323   4.242  0.00  0.00    +0.118 A 
ATOM     21  N   UNL     1      -2.081  -2.322   5.593  0.00  0.00    -0.341 N 
ATOM     22  H   UNL     1      -1.371  -2.364   6.253  0.00  0.00    +0.167 HD
ATOM     23  C   UNL     1      -3.435  -2.252   5.853  0.00  0.00    +0.066 A 
ATOM     24  C   UNL     1      -4.197  -2.217   7.013  0.00  0.00    +0.028 A 
ATOM     25  C   UNL     1      -5.571  -2.144   6.926  0.00  0.00    +0.002 A 
ATOM     26  C   UNL     1      -6.196  -2.104   5.688  0.00  0.00    +0.002 A 
ATOM     27  C   UNL     1      -5.462  -2.136   4.536  0.00  0.00    +0.030 A 
ATOM     28  C   UNL     1      -4.069  -2.211   4.599  0.00  0.00    +0.089 A 
ATOM     29  N   UNL     1      -3.089  -2.252   3.660  0.00  0.00    -0.232 NA
ENDBRANCH  19  20
ENDBRANCH  18  19
ENDBRANCH   5  18
TORSDOF 6
