REMARK  Name = ZINC36552817
REMARK  10 active torsions:
REMARK  status: ('A' for Active; 'I' for Inactive)
REMARK    1  A    between atoms: C_1  and  C_2
REMARK    2  A    between atoms: C_2  and  C_3
REMARK    3  A    between atoms: C_3  and  C_4
REMARK    4  A    between atoms: C_4  and  N_5
REMARK    5  A    between atoms: C_6  and  C_8
REMARK    6  A    between atoms: C_8  and  C_10
REMARK    7  A    between atoms: C_8  and  N_17
REMARK    8  A    between atoms: C_14  and  O_16
REMARK    9  A    between atoms: N_17  and  C_18
REMARK   10  A    between atoms: C_25  and  C_27
REMARK                            x       y       z     vdW  Elec       q    Type
REMARK                         _______ _______ _______ _____ _____    ______ ____
ROOT
ATOM      1  C   UNL     1      -4.227  -5.007  -0.295  0.00  0.00    +0.197 C 
ENDROOT
BRANCH   1   2
ATOM      2  C   UNL     1      -4.686  -4.966  -1.730  0.00  0.00    -0.014 A 
ATOM      3  C   UNL     1      -4.292  -5.958  -2.610  0.00  0.00    +0.006 A 
ATOM      4  C   UNL     1      -4.712  -5.924  -3.927  0.00  0.00    +0.004 A 
ATOM      5  C   UNL     1      -5.525  -4.897  -4.368  0.00  0.00    +0.045 A 
ATOM      6  C   UNL     1      -5.921  -3.901  -3.487  0.00  0.00    +0.117 A 
ATOM      7  C   UNL     1      -5.504  -3.941  -2.165  0.00  0.00    +0.051 A 
BRANCH   6   8
ATOM      8  O   UNL     1      -6.721  -2.891  -3.918  0.00  0.00    -0.507 OA
ATOM      9  H   UNL     1      -7.667  -3.072  -3.829  0.00  0.00    +0.292 HD
ENDBRANCH   6   8
ENDBRANCH   1   2
BRANCH   1  11
ATOM     10  N   UNL     1      -2.152  -3.735  -0.738  0.00  0.00    -0.313 N 
ATOM     11  C   UNL     1      -2.730  -4.848  -0.242  0.00  0.00    +0.238 C 
ATOM     12  O   UNL     1      -2.044  -5.721   0.246  0.00  0.00    -0.273 OA
ATOM     13  H   UNL     1      -2.701  -3.037  -1.128  0.00  0.00    +0.149 HD
BRANCH  10  14
ATOM     14  C   UNL     1      -0.696  -3.580  -0.686  0.00  0.00    +0.104 C 
BRANCH  14  15
ATOM     15  C   UNL     1      -0.303  -2.240  -1.309  0.00  0.00    +0.018 C 
BRANCH  15  17
ATOM     16  C   UNL     1       1.610  -0.737  -1.879  0.00  0.00    +0.004 C 
ATOM     17  C   UNL     1       1.217  -2.078  -1.255  0.00  0.00    -0.002 C 
ENDBRANCH  15  17
ENDBRANCH  14  15
ENDBRANCH  10  14
ENDBRANCH   1  11
BRANCH   1  18
ATOM     18  N   UNL     1      -4.604  -6.291   0.301  0.00  0.00    -0.254 N 
ATOM     19  C   UNL     1      -4.411  -6.504   1.618  0.00  0.00    +0.241 C 
ATOM     20  O   UNL     1      -3.846  -5.668   2.292  0.00  0.00    -0.273 OA
BRANCH  18  21
ATOM     21  C   UNL     1      -5.163  -7.295  -0.496  0.00  0.00    +0.039 A 
ATOM     22  C   UNL     1      -4.440  -8.449  -0.770  0.00  0.00    +0.023 A 
ATOM     23  C   UNL     1      -4.994  -9.440  -1.557  0.00  0.00    +0.003 A 
ATOM     24  C   UNL     1      -6.268  -9.284  -2.072  0.00  0.00    +0.020 A 
ATOM     25  C   UNL     1      -6.991  -8.136  -1.802  0.00  0.00    +0.043 A 
ATOM     26  C   UNL     1      -6.444  -7.144  -1.009  0.00  0.00    +0.043 A 
ATOM     27 CL   UNL     1      -8.589  -7.944  -2.452  0.00  0.00    -0.083 Cl
ENDBRANCH  18  21
BRANCH  19  28
ATOM     28  C   UNL     1      -4.898  -7.780   2.254  0.00  0.00    +0.160 C 
ATOM     29  C   UNL     1      -6.407  -7.680   2.568  0.00  0.00    +0.041 C 
ATOM     30  C   UNL     1      -6.392  -7.189   4.034  0.00  0.00    +0.098 C 
ATOM     31  C   UNL     1      -5.055  -7.655   4.568  0.00  0.00    +0.214 C 
ATOM     32  O   UNL     1      -4.761  -7.722   5.742  0.00  0.00    -0.276 OA
ATOM     33  N   UNL     1      -4.239  -7.986   3.549  0.00  0.00    -0.304 N 
ATOM     34  H   UNL     1      -3.334  -8.318   3.656  0.00  0.00    +0.149 HD
ENDBRANCH  19  28
ENDBRANCH   1  18
TORSDOF 9
