REMARK  Name = ZINC63375889
REMARK  8 active torsions:
REMARK  status: ('A' for Active; 'I' for Inactive)
REMARK    1  A    between atoms: C_1  and  C_2
REMARK    2  A    between atoms: C_3  and  C_34
REMARK    3  A    between atoms: C_14  and  C_19
REMARK    4  A    between atoms: C_16  and  C_18
REMARK    5  A    between atoms: C_19  and  C_20
REMARK    6  A    between atoms: N_22  and  C_23
REMARK    7  A    between atoms: C_23  and  C_24
REMARK    8  A    between atoms: C_24  and  C_25
REMARK                            x       y       z     vdW  Elec       q    Type
REMARK                         _______ _______ _______ _____ _____    ______ ____
ROOT
ATOM      1  C   UNL     1      -0.018   1.503   0.010  0.00  0.00    +0.048 C 
ATOM      2  C   UNL     1       0.002  -0.004   0.002  0.00  0.00    -0.002 A 
ATOM      3  C   UNL     1       0.009  -0.802  -1.074  0.00  0.00    +0.106 A 
ATOM      4  O   UNL     1       0.028  -2.092  -0.694  0.00  0.00    -0.460 OA
ATOM      5  C   UNL     1       0.033  -2.197   0.651  0.00  0.00    +0.139 A 
ATOM      6  C   UNL     1       0.025  -0.892   1.171  0.00  0.00    +0.024 A 
ATOM      7  C   UNL     1       0.039  -0.690   2.549  0.00  0.00    +0.019 A 
ATOM      8  C   UNL     1       0.059  -1.762   3.403  0.00  0.00    -0.001 A 
ATOM      9  C   UNL     1       0.064  -3.056   2.897  0.00  0.00    +0.139 A 
ATOM     10  C   UNL     1       0.048  -3.273   1.526  0.00  0.00    +0.093 A 
ATOM     11  O   UNL     1       0.063  -4.144   3.715  0.00  0.00    -0.425 OA
ATOM     12  C   UNL     1       0.281  -3.937   5.029  0.00  0.00    +0.316 C 
ATOM     13  O   UNL     1       0.978  -4.678   5.680  0.00  0.00    -0.250 OA
ATOM     14  C   UNL     1      -0.391  -2.729   5.652  0.00  0.00    +0.114 C 
ATOM     15  C   UNL     1       0.084  -1.490   4.887  0.00  0.00    +0.034 C 
ATOM     16  C   UNL     1      -0.841  -0.312   5.202  0.00  0.00    +0.013 C 
ATOM     17  C   UNL     1      -0.004  -0.325  -2.503  0.00  0.00    +0.086 C 
ENDROOT
BRANCH  14  18
ATOM     18  C   UNL     1      -1.911  -2.862   5.535  0.00  0.00    +0.111 C 
BRANCH  18  19
ATOM     19  C   UNL     1      -2.376  -4.038   6.354  0.00  0.00    +0.214 C 
ATOM     20  O   UNL     1      -1.571  -4.704   6.971  0.00  0.00    -0.276 OA
ATOM     21  N   UNL     1      -3.686  -4.350   6.402  0.00  0.00    -0.315 N 
ATOM     22  H   UNL     1      -4.330  -3.817   5.909  0.00  0.00    +0.149 HD
BRANCH  21  23
ATOM     23  C   UNL     1      -4.139  -5.493   7.199  0.00  0.00    +0.108 C 
BRANCH  23  24
ATOM     24  C   UNL     1      -5.658  -5.627   7.082  0.00  0.00    +0.052 C 
BRANCH  24  25
ATOM     25  C   UNL     1      -6.124  -6.803   7.901  0.00  0.00    -0.040 C 
ATOM     26  C   UNL     1      -6.591  -6.776   9.170  0.00  0.00    -0.001 A 
ATOM     27  C   UNL     1      -6.797  -5.685  10.131  0.00  0.00    +0.010 A 
ATOM     28  C   UNL     1      -7.291  -5.975  11.356  0.00  0.00    +0.001 A 
ATOM     29  C   UNL     1      -7.610  -7.288  11.731  0.00  0.00    +0.002 A 
ATOM     30  C   UNL     1      -7.448  -8.342  10.903  0.00  0.00    +0.026 A 
ATOM     31  C   UNL     1      -6.936  -8.153   9.590  0.00  0.00    +0.043 A 
ATOM     32  N   UNL     1      -6.692  -8.998   8.618  0.00  0.00    -0.380 N 
ATOM     33  C   UNL     1      -6.169  -8.251   7.469  0.00  0.00    +0.144 C 
ATOM     34  H   UNL     1      -6.836  -9.957   8.652  0.00  0.00    +0.160 HD
ENDBRANCH  24  25
ENDBRANCH  23  24
ENDBRANCH  21  23
ENDBRANCH  18  19
ENDBRANCH  14  18
TORSDOF 5
