REMARK  Name = ZINC36586673
REMARK  12 active torsions:
REMARK  status: ('A' for Active; 'I' for Inactive)
REMARK    1  A    between atoms: C_1  and  C_2
REMARK    2  A    between atoms: C_2  and  C_3
REMARK    3  A    between atoms: C_2  and  C_4
REMARK    4  A    between atoms: C_2  and  N_5
REMARK    5  A    between atoms: N_5  and  C_6
REMARK    6  A    between atoms: C_6  and  C_8
REMARK    7  A    between atoms: C_6  and  C_15
REMARK    8  A    between atoms: C_13  and  O_14
REMARK    9  A    between atoms: N_17  and  C_18
REMARK   10  A    between atoms: C_24  and  C_26
REMARK   11  A    between atoms: C_27  and  O_33
REMARK   12  A    between atoms: C_31  and  O_32
REMARK                            x       y       z     vdW  Elec       q    Type
REMARK                         _______ _______ _______ _____ _____    ______ ____
ROOT
ATOM      1  C   UNL     1       2.430  -1.253  -2.669  0.00  0.00    +0.196 C 
ENDROOT
BRANCH   1   2
ATOM      2  C   UNL     1       3.075  -0.082  -3.363  0.00  0.00    +0.023 A 
ATOM      3  C   UNL     1       3.185   1.133  -2.713  0.00  0.00    +0.009 A 
ATOM      4  C   UNL     1       3.776   2.208  -3.350  0.00  0.00    +0.001 A 
ATOM      5  C   UNL     1       4.259   2.071  -4.638  0.00  0.00    +0.004 A 
ATOM      6  C   UNL     1       4.153   0.860  -5.292  0.00  0.00    +0.046 A 
ATOM      7  C   UNL     1       3.564  -0.223  -4.654  0.00  0.00    +0.122 A 
BRANCH   7   8
ATOM      8  O   UNL     1       3.463  -1.418  -5.293  0.00  0.00    -0.506 OA
ATOM      9  H   UNL     1       2.648  -1.524  -5.802  0.00  0.00    +0.292 HD
ENDBRANCH   7   8
ENDBRANCH   1   2
BRANCH   1  10
ATOM     10  C   UNL     1       3.498  -2.198  -2.182  0.00  0.00    +0.238 C 
ATOM     11  O   UNL     1       3.552  -2.499  -1.008  0.00  0.00    -0.273 OA
ATOM     12  N   UNL     1       4.393  -2.709  -3.050  0.00  0.00    -0.311 N 
ATOM     13  H   UNL     1       4.350  -2.469  -3.989  0.00  0.00    +0.149 HD
BRANCH  12  14
ATOM     14  C   UNL     1       5.431  -3.628  -2.576  0.00  0.00    +0.073 C 
ATOM     15  C   UNL     1       6.622  -2.824  -2.048  0.00  0.00    +0.022 C 
ATOM     16  C   UNL     1       7.706  -3.783  -1.553  0.00  0.00    +0.002 C 
ATOM     17  C   UNL     1       8.165  -4.675  -2.709  0.00  0.00    +0.000 C 
ATOM     18  C   UNL     1       6.974  -5.479  -3.237  0.00  0.00    +0.002 C 
ATOM     19  C   UNL     1       5.890  -4.519  -3.732  0.00  0.00    +0.022 C 
ENDBRANCH  12  14
ENDBRANCH   1  10
BRANCH   1  20
ATOM     20  N   UNL     1       1.645  -0.773  -1.529  0.00  0.00    -0.277 N 
ATOM     21  C   UNL     1       2.269  -0.308  -0.429  0.00  0.00    +0.255 C 
ATOM     22  O   UNL     1       3.482  -0.214  -0.412  0.00  0.00    -0.270 OA
BRANCH  21  23
ATOM     23  C   UNL     1       1.483   0.086   0.752  0.00  0.00    +0.119 A 
ATOM     24  C   UNL     1       1.156  -0.863   1.732  0.00  0.00    +0.133 A 
ATOM     25  C   UNL     1       0.417  -0.481   2.839  0.00  0.00    +0.046 A 
ATOM     26  C   UNL     1       0.002   0.830   2.981  0.00  0.00    +0.007 A 
ATOM     27  C   UNL     1       0.318   1.773   2.021  0.00  0.00    +0.046 A 
ATOM     28  C   UNL     1       1.062   1.414   0.908  0.00  0.00    +0.133 A 
BRANCH  28  29
ATOM     29  O   UNL     1       1.376   2.343  -0.029  0.00  0.00    -0.506 OA
ATOM     30  H   UNL     1       0.721   2.426  -0.735  0.00  0.00    +0.292 HD
ENDBRANCH  28  29
BRANCH  24  31
ATOM     31  O   UNL     1       1.562  -2.150   1.595  0.00  0.00    -0.506 OA
ATOM     32  H   UNL     1       2.426  -2.334   1.988  0.00  0.00    +0.292 HD
ENDBRANCH  24  31
ENDBRANCH  21  23
BRANCH  20  34
ATOM     33  C   UNL     1      -0.268  -1.346  -2.942  0.00  0.00    +0.031 C 
ATOM     34  C   UNL     1       0.181  -0.799  -1.585  0.00  0.00    +0.030 C 
ATOM     35  C   UNL     1      -0.361   0.619  -1.402  0.00  0.00    +0.031 C 
ATOM     36  C   UNL     1      -0.356  -1.699  -0.470  0.00  0.00    +0.031 C 
ENDBRANCH  20  34
ENDBRANCH   1  20
TORSDOF 9
