REMARK  Name = ZINC17988199
REMARK  6 active torsions:
REMARK  status: ('A' for Active; 'I' for Inactive)
REMARK    1  A    between atoms: C_1  and  C_2
REMARK    2  A    between atoms: C_5  and  N_9
REMARK    3  A    between atoms: C_7  and  C_8
REMARK    4  A    between atoms: C_10  and  S_14
REMARK    5  A    between atoms: S_14  and  C_15
REMARK    6  A    between atoms: C_15  and  C_16
REMARK                            x       y       z     vdW  Elec       q    Type
REMARK                         _______ _______ _______ _____ _____    ______ ____
ROOT
ATOM      1  S   UNL     1      -1.529  -4.516  -2.292  0.00  0.00    -0.076 S 
ENDROOT
BRANCH   1   3
ATOM      2  N   UNL     1       0.057  -4.173  -0.021  0.00  0.00    -0.187 N 
ATOM      3  C   UNL     1      -0.550  -5.000  -0.908  0.00  0.00    +0.214 A 
ATOM      4  N   UNL     1      -0.271  -6.232  -0.540  0.00  0.00    -0.101 NA
ATOM      5  N   UNL     1       0.466  -6.231   0.511  0.00  0.00    -0.022 NA
ATOM      6  N   UNL     1       0.714  -5.023   0.886  0.00  0.00    -0.038 NA
BRANCH   2  11
ATOM      7  C   UNL     1      -0.018   1.503   0.010  0.00  0.00    +0.044 C 
ATOM      8  C   UNL     1       0.002  -0.004   0.002  0.00  0.00    -0.047 A 
ATOM      9  C   UNL     1       0.006  -0.688  -1.200  0.00  0.00    +0.006 A 
ATOM     10  C   UNL     1       0.024  -2.068  -1.211  0.00  0.00    +0.028 A 
ATOM     11  C   UNL     1       0.039  -2.771  -0.013  0.00  0.00    +0.070 A 
ATOM     12  C   UNL     1       0.036  -2.082   1.192  0.00  0.00    +0.031 A 
ATOM     13  C   UNL     1       0.023  -0.700   1.196  0.00  0.00    -0.046 A 
ATOM     14  C   UNL     1       0.026   0.048   2.504  0.00  0.00    +0.044 C 
ENDBRANCH   2  11
ENDBRANCH   1   3
BRANCH   1  15
ATOM     15  C   UNL     1      -2.030  -6.088  -3.046  0.00  0.00    +0.153 C 
BRANCH  15  16
ATOM     16  C   UNL     1      -2.884  -5.814  -4.257  0.00  0.00    +0.146 A 
ATOM     17  N   UNL     1      -4.195  -5.705  -4.128  0.00  0.00    -0.199 NA
ATOM     18  C   UNL     1      -4.952  -5.463  -5.196  0.00  0.00    +0.217 A 
ATOM     19  N   UNL     1      -4.389  -5.330  -6.391  0.00  0.00    -0.181 NA
ATOM     20  C   UNL     1      -3.071  -5.440  -6.517  0.00  0.00    +0.217 A 
ATOM     21  N   UNL     1      -2.320  -5.677  -5.444  0.00  0.00    -0.199 NA
ATOM     22  N   UNL     1      -2.481  -5.303  -7.757  0.00  0.00    -0.327 N 
ATOM     23  N   UNL     1      -6.321  -5.350  -5.060  0.00  0.00    -0.327 N 
ATOM     24  H   UNL     1      -3.029  -5.126  -8.538  0.00  0.00    +0.145 HD
ATOM     25  H   UNL     1      -1.519  -5.383  -7.848  0.00  0.00    +0.145 HD
ATOM     26  H   UNL     1      -6.731  -5.447  -4.187  0.00  0.00    +0.145 HD
ATOM     27  H   UNL     1      -6.872  -5.173  -5.838  0.00  0.00    +0.145 HD
ENDBRANCH  15  16
ENDBRANCH   1  15
TORSDOF 4
