REMARK  Name = ZINC22295327
REMARK  12 active torsions:
REMARK  status: ('A' for Active; 'I' for Inactive)
REMARK    1  A    between atoms: C_1  and  C_2
REMARK    2  A    between atoms: C_2  and  C_3
REMARK    3  A    between atoms: C_3  and  C_4
REMARK    4  A    between atoms: C_4  and  O_5
REMARK    5  A    between atoms: O_5  and  C_6
REMARK    6  A    between atoms: C_9  and  C_12
REMARK    7  A    between atoms: N_14  and  C_15
REMARK    8  A    between atoms: C_15  and  C_16
REMARK    9  A    between atoms: C_21  and  C_24
REMARK   10  A    between atoms: C_24  and  N_25
REMARK   11  A    between atoms: C_27  and  C_34
REMARK   12  A    between atoms: C_30  and  C_33
REMARK                            x       y       z     vdW  Elec       q    Type
REMARK                         _______ _______ _______ _____ _____    ______ ____
ROOT
ATOM      1  C   UNL     1       1.840  -2.575  -0.029  0.00  0.00    +0.236 C 
ATOM      2  O   UNL     1       0.628  -2.622  -0.018  0.00  0.00    -0.274 OA
ATOM      3  N   UNL     1       2.468  -1.382  -0.029  0.00  0.00    -0.263 N 
ATOM      4  C   UNL     1       1.727  -0.206  -0.015  0.00  0.00    +0.165 A 
ATOM      5  N   UNL     1       2.153   1.042  -0.013  0.00  0.00    -0.231 NA
ATOM      6  C   UNL     1       1.306   2.052   0.001  0.00  0.00    +0.034 A 
ATOM      7  C   UNL     1      -0.022   1.783   0.012  0.00  0.00    +0.070 A 
ATOM      8  S   UNL     1       0.002  -0.004   0.002  0.00  0.00    -0.060 S 
ATOM      9  H   UNL     1       3.567  -1.339  -0.038  0.00  0.00    +0.157 HD
ENDROOT
BRANCH   1  10
ATOM     10  C   UNL     1       2.643  -3.850  -0.043  0.00  0.00    +0.200 C 
BRANCH  10  13
ATOM     11  C   UNL     1       2.234  -6.252  -0.052  0.00  0.00    +0.244 C 
ATOM     12  O   UNL     1       3.437  -6.427  -0.064  0.00  0.00    -0.270 OA
ATOM     13  N   UNL     1       1.736  -4.999  -0.041  0.00  0.00    -0.303 N 
ATOM     14  H   UNL     1       0.647  -4.840  -0.030  0.00  0.00    +0.150 HD
BRANCH  11  18
ATOM     15  C   UNL     1      -0.398  -9.584  -0.045  0.00  0.00    +0.121 A 
ATOM     16  C   UNL     1       0.977  -9.787  -0.059  0.00  0.00    +0.046 A 
ATOM     17  C   UNL     1       1.833  -8.709  -0.061  0.00  0.00    +0.016 A 
ATOM     18  C   UNL     1       1.319  -7.410  -0.050  0.00  0.00    +0.037 A 
ATOM     19  C   UNL     1      -0.064  -7.210  -0.030  0.00  0.00    +0.016 A 
ATOM     20  C   UNL     1      -0.914  -8.294  -0.034  0.00  0.00    +0.046 A 
BRANCH  15  21
ATOM     21  O   UNL     1      -1.239 -10.649  -0.042  0.00  0.00    -0.492 OA
BRANCH  21  22
ATOM     22  C   UNL     1      -2.641 -10.369  -0.027  0.00  0.00    +0.229 C 
BRANCH  22  23
ATOM     23  C   UNL     1      -3.423 -11.684  -0.027  0.00  0.00    +0.041 C 
BRANCH  23  25
ATOM     24  C   UNL     1      -5.706 -12.699  -0.010  0.00  0.00    +0.004 C 
ATOM     25  C   UNL     1      -4.924 -11.384  -0.011  0.00  0.00    -0.000 C 
ENDBRANCH  23  25
ENDBRANCH  22  23
ENDBRANCH  21  22
ENDBRANCH  15  21
ENDBRANCH  11  18
ENDBRANCH  10  13
ENDBRANCH   1  10
BRANCH   6  26
ATOM     26  C   UNL     1       1.804   3.475   0.004  0.00  0.00    -0.022 C 
BRANCH  26  27
ATOM     27  N   UNL     1       2.093   3.890   1.383  0.00  0.00    +0.384 N 
ATOM     28  C   UNL     1       0.864   3.942   2.185  0.00  0.00    -0.075 C 
ATOM     29  C   UNL     1       1.218   4.235   3.645  0.00  0.00    -0.031 C 
ATOM     30  C   UNL     1       1.961   5.571   3.727  0.00  0.00    +0.003 C 
ATOM     31  C   UNL     1       3.211   5.506   2.845  0.00  0.00    -0.031 C 
ATOM     32  C   UNL     1       2.799   5.177   1.408  0.00  0.00    -0.075 C 
ATOM     33  C   UNL     1       4.150   4.418   3.369  0.00  0.00    +0.005 C 
ATOM     34  C   UNL     1      -0.064   4.311   4.476  0.00  0.00    +0.005 C 
ATOM     35  H   UNL     1       2.755   3.135   1.833  0.00  0.00    -0.081 HD
ENDBRANCH  26  27
ENDBRANCH   6  26
TORSDOF 9
