REMARK  Name = ZINC62726683
REMARK  12 active torsions:
REMARK  status: ('A' for Active; 'I' for Inactive)
REMARK    1  A    between atoms: C_1  and  C_2
REMARK    2  A    between atoms: C_2  and  O_3
REMARK    3  A    between atoms: O_3  and  C_4
REMARK    4  A    between atoms: C_6  and  C_23
REMARK    5  A    between atoms: C_9  and  O_10
REMARK    6  A    between atoms: O_10  and  C_11
REMARK    7  A    between atoms: C_11  and  C_13
REMARK    8  A    between atoms: C_16  and  C_19
REMARK    9  A    between atoms: C_19  and  C_20
REMARK   10  A    between atoms: C_19  and  C_21
REMARK   11  A    between atoms: C_19  and  C_22
REMARK   12  A    between atoms: C_28  and  C_35
REMARK                            x       y       z     vdW  Elec       q    Type
REMARK                         _______ _______ _______ _____ _____    ______ ____
ROOT
ATOM      1  C   UNL     1       0.601  -1.914  -1.666  0.00  0.00    +0.163 A 
ATOM      2  C   UNL     1       0.313  -2.691  -0.562  0.00  0.00    +0.057 A 
ATOM      3  C   UNL     1       0.030  -4.054  -0.724  0.00  0.00    -0.021 A 
ATOM      4  C   UNL     1       0.042  -4.620  -2.006  0.00  0.00    +0.012 A 
ATOM      5  C   UNL     1       0.331  -3.837  -3.101  0.00  0.00    +0.051 A 
ATOM      6  C   UNL     1       0.605  -2.484  -2.939  0.00  0.00    +0.173 A 
ENDROOT
BRANCH   3   7
ATOM      7  C   UNL     1      -0.276  -4.885   0.444  0.00  0.00    +0.024 C 
ATOM      8  C   UNL     1       0.191  -6.178   0.510  0.00  0.00    +0.082 C 
ATOM      9  C   UNL     1      -0.256  -7.122   1.573  0.00  0.00    +0.144 C 
ATOM     10  N   UNL     1      -0.537  -6.748   2.794  0.00  0.00    -0.282 NA
ATOM     11  N   UNL     1      -0.347  -8.458   1.133  0.00  0.00    -0.282 N 
ATOM     12  C   UNL     1      -1.193  -9.292   1.638  0.00  0.00    +0.012 C 
ATOM     13  C   UNL     1      -1.194 -10.704   1.069  0.00  0.00    +0.126 C 
ATOM     14  S   UNL     1       0.319 -10.597   0.017  0.00  0.00    -0.084 S 
ATOM     15  C   UNL     1       0.486  -8.828   0.096  0.00  0.00    +0.167 C 
ATOM     16  N   UNL     1       1.217  -8.045  -0.656  0.00  0.00    -0.152 NA
ATOM     17  C   UNL     1       1.163  -6.710  -0.477  0.00  0.00    +0.273 C 
ATOM     18  O   UNL     1       1.894  -5.964  -1.105  0.00  0.00    -0.268 OA
ATOM     19  C   UNL     1      -2.137  -8.886   2.740  0.00  0.00    +0.060 C 
ATOM     20  H   UNL     1      -0.458  -5.815   3.045  0.00  0.00    +0.188 HD
ENDBRANCH   3   7
BRANCH   1  21
ATOM     21  O   UNL     1       0.875  -0.591  -1.513  0.00  0.00    -0.489 OA
BRANCH  21  23
ATOM     22  C   UNL     1       1.183   1.420  -0.208  0.00  0.00    +0.048 C 
ATOM     23  C   UNL     1       0.853  -0.074  -0.181  0.00  0.00    +0.226 C 
ENDBRANCH  21  23
ENDBRANCH   1  21
BRANCH   6  24
ATOM     24  O   UNL     1       0.884  -1.716  -4.024  0.00  0.00    -0.419 OA
BRANCH  24  25
ATOM     25  C   UNL     1       2.178  -1.535  -4.354  0.00  0.00    +0.345 C 
ATOM     26  O   UNL     1       3.049  -2.125  -3.747  0.00  0.00    -0.245 OA
BRANCH  25  27
ATOM     27  C   UNL     1       2.537  -0.618  -5.455  0.00  0.00    +0.059 A 
ATOM     28  C   UNL     1       1.538   0.067  -6.152  0.00  0.00    +0.015 A 
ATOM     29  C   UNL     1       1.881   0.921  -7.179  0.00  0.00    +0.005 A 
ATOM     30  C   UNL     1       3.210   1.101  -7.520  0.00  0.00    -0.042 A 
ATOM     31  C   UNL     1       4.204   0.425  -6.835  0.00  0.00    +0.005 A 
ATOM     32  C   UNL     1       3.876  -0.427  -5.801  0.00  0.00    +0.015 A 
BRANCH  30  33
ATOM     33  C   UNL     1       3.576   2.035  -8.644  0.00  0.00    -0.013 C 
ATOM     34  C   UNL     1       3.083   3.446  -8.315  0.00  0.00    +0.015 C 
ATOM     35  C   UNL     1       5.096   2.054  -8.817  0.00  0.00    +0.015 C 
ATOM     36  C   UNL     1       2.921   1.556  -9.941  0.00  0.00    +0.015 C 
ENDBRANCH  30  33
ENDBRANCH  25  27
ENDBRANCH  24  25
ENDBRANCH   6  24
TORSDOF 7
