REMARK  Name = ZINC30448672
REMARK  6 active torsions:
REMARK  status: ('A' for Active; 'I' for Inactive)
REMARK    1  A    between atoms: C_1  and  C_2
REMARK    2  A    between atoms: C_3  and  C_29
REMARK    3  A    between atoms: C_11  and  C_13
REMARK    4  A    between atoms: C_13  and  C_15
REMARK    5  A    between atoms: C_13  and  N_16
REMARK    6  A    between atoms: N_16  and  C_17
REMARK                            x       y       z     vdW  Elec       q    Type
REMARK                         _______ _______ _______ _____ _____    ______ ____
ROOT
ATOM      1  C   UNL     1      -1.807   4.977   0.046  0.00  0.00    +0.133 C 
ATOM      2  C   UNL     1      -1.640   5.939  -1.132  0.00  0.00    +0.036 C 
ENDROOT
BRANCH   1  13
ATOM      3  C   UNL     1       3.748   1.225  -0.027  0.00  0.00    +0.045 C 
ATOM      4  C   UNL     1       2.260   0.993  -0.014  0.00  0.00    -0.026 A 
ATOM      5  C   UNL     1       1.767  -0.256  -0.016  0.00  0.00    -0.008 A 
ATOM      6  S   UNL     1       0.002  -0.004   0.002  0.00  0.00    -0.073 S 
ATOM      7  C   UNL     1      -0.022   1.770   0.012  0.00  0.00    +0.116 A 
ATOM      8  C   UNL     1       1.341   2.116   0.001  0.00  0.00    +0.075 A 
ATOM      9  C   UNL     1       1.623   3.521   0.005  0.00  0.00    +0.260 A 
ATOM     10  O   UNL     1       2.775   3.921  -0.004  0.00  0.00    -0.267 OA
ATOM     11  N   UNL     1       0.597   4.392   0.020  0.00  0.00    -0.309 N 
ATOM     12  H   UNL     1       0.794   5.474   0.024  0.00  0.00    +0.170 HD
ATOM     13  C   UNL     1      -0.692   3.964   0.030  0.00  0.00    +0.131 A 
ATOM     14  N   UNL     1      -0.981   2.691   0.031  0.00  0.00    -0.225 NA
ATOM     15  C   UNL     1       2.524  -1.559  -0.031  0.00  0.00    +0.052 C 
ENDBRANCH   1  13
BRANCH   1  16
ATOM     16  N   UNL     1      -3.095   4.287  -0.066  0.00  0.00    -0.334 N 
ATOM     17  H   UNL     1      -3.149   3.297  -0.542  0.00  0.00    +0.147 HD
BRANCH  16  18
ATOM     18  C   UNL     1      -4.256   4.888   0.433  0.00  0.00    +0.030 A 
ATOM     19  C   UNL     1      -4.186   6.139   1.035  0.00  0.00    +0.025 A 
ATOM     20  C   UNL     1      -5.328   6.737   1.529  0.00  0.00    +0.029 A 
ATOM     21  C   UNL     1      -6.549   6.088   1.425  0.00  0.00    +0.067 A 
ATOM     22  C   UNL     1      -6.623   4.831   0.822  0.00  0.00    +0.069 A 
ATOM     23  C   UNL     1      -5.475   4.236   0.322  0.00  0.00    +0.050 A 
ATOM     24  N   UNL     1      -7.959   4.440   0.866  0.00  0.00    -0.306 N 
ATOM     25  H   UNL     1      -8.263   3.471   0.444  0.00  0.00    +0.170 HD
ATOM     26  C   UNL     1      -8.667   5.414   1.468  0.00  0.00    +0.325 A 
ATOM     27  O   UNL     1      -9.867   5.387   1.667  0.00  0.00    -0.247 OA
ATOM     28  N   UNL     1      -7.846   6.422   1.818  0.00  0.00    -0.306 N 
ATOM     29  H   UNL     1      -8.038   7.380   2.322  0.00  0.00    +0.170 HD
ENDBRANCH  16  18
ENDBRANCH   1  16
TORSDOF 3
