REMARK  Name = ZINC20527938
REMARK  9 active torsions:
REMARK  status: ('A' for Active; 'I' for Inactive)
REMARK    1  A    between atoms: C_1  and  C_2
REMARK    2  A    between atoms: C_2  and  C_4
REMARK    3  A    between atoms: C_2  and  N_10
REMARK    4  A    between atoms: C_11  and  C_13
REMARK    5  A    between atoms: C_13  and  S_14
REMARK    6  A    between atoms: S_14  and  C_15
REMARK    7  A    between atoms: N_19  and  N_20
REMARK    8  A    between atoms: N_21  and  N_22
REMARK    9  A    between atoms: C_23  and  C_24
REMARK                            x       y       z     vdW  Elec       q    Type
REMARK                         _______ _______ _______ _____ _____    ______ ____
ROOT
ATOM      1  C   UNL     1       1.825   5.511   0.014  0.00  0.00    +0.210 A 
ATOM      2  N   UNL     1       0.513   5.493   0.027  0.00  0.00    -0.119 NA
ATOM      3  N   UNL     1       0.098   4.155   0.018  0.00  0.00    -0.109 NA
ATOM      4  C   UNL     1       1.169   3.399   0.009  0.00  0.00    +0.254 A 
ATOM      5  N   UNL     1       2.264   4.217   0.003  0.00  0.00    -0.211 N 
ATOM      6  N   UNL     1       1.188   2.011   0.002  0.00  0.00    -0.204 N 
ATOM      7  H   UNL     1       2.148   1.474  -0.011  0.00  0.00    +0.177 HD
ENDROOT
BRANCH   5   8
ATOM      8  N   UNL     1       3.569   3.813  -0.011  0.00  0.00    -0.294 N 
ATOM      9  H   UNL     1       3.812   2.740  -0.019  0.00  0.00    +0.163 HD
ATOM     10  H   UNL     1       4.376   4.560  -0.014  0.00  0.00    +0.163 HD
ENDBRANCH   5   8
BRANCH   6  11
ATOM     11  N   UNL     1      -0.015   1.294   0.009  0.00  0.00    -0.187 NA
ATOM     12  C   UNL     1       0.002  -0.004   0.002  0.00  0.00    +0.139 C 
BRANCH  12  13
ATOM     13  C   UNL     1      -1.264  -0.758   0.010  0.00  0.00    +0.013 A 
ATOM     14  C   UNL     1      -1.249  -2.156   0.002  0.00  0.00    +0.012 A 
ATOM     15  C   UNL     1      -2.437  -2.855   0.011  0.00  0.00    +0.021 A 
ATOM     16  C   UNL     1      -3.645  -2.177   0.026  0.00  0.00    +0.042 A 
ATOM     17  C   UNL     1      -3.668  -0.792   0.033  0.00  0.00    +0.040 A 
ATOM     18  C   UNL     1      -2.486  -0.079   0.031  0.00  0.00    +0.051 A 
ATOM     19 CL   UNL     1      -2.517   1.656   0.048  0.00  0.00    -0.083 Cl
ATOM     20 CL   UNL     1      -5.136  -3.066   0.036  0.00  0.00    -0.083 Cl
ENDBRANCH  12  13
ENDBRANCH   6  11
BRANCH   1  21
ATOM     21  S   UNL     1       2.841   6.950   0.013  0.00  0.00    -0.075 S 
BRANCH  21  22
ATOM     22  C   UNL     1       1.657   8.323   0.031  0.00  0.00    +0.173 C 
BRANCH  22  24
ATOM     23  N   UNL     1       1.726  10.796   0.045  0.00  0.00    -0.308 N 
ATOM     24  C   UNL     1       2.405   9.632   0.032  0.00  0.00    +0.224 C 
ATOM     25  O   UNL     1       3.617   9.637   0.021  0.00  0.00    -0.275 OA
ATOM     26  H   UNL     1       0.626  10.791   0.054  0.00  0.00    +0.149 HD
BRANCH  23  28
ATOM     27  C   UNL     1       2.802  12.456  -1.393  0.00  0.00    +0.033 C 
ATOM     28  C   UNL     1       2.453  12.068   0.045  0.00  0.00    +0.100 C 
BRANCH  28  29
ATOM     29  C   UNL     1       1.590  13.140   0.659  0.00  0.00    -0.027 A 
ATOM     30  C   UNL     1       0.238  13.186   0.374  0.00  0.00    +0.005 A 
ATOM     31  C   UNL     1      -0.554  14.167   0.941  0.00  0.00    +0.000 A 
ATOM     32  C   UNL     1       0.007  15.107   1.786  0.00  0.00    +0.000 A 
ATOM     33  C   UNL     1       1.359  15.063   2.067  0.00  0.00    +0.000 A 
ATOM     34  C   UNL     1       2.151  14.080   1.503  0.00  0.00    +0.005 A 
ENDBRANCH  28  29
ENDBRANCH  23  28
ENDBRANCH  22  24
ENDBRANCH  21  22
ENDBRANCH   1  21
TORSDOF 8
