REMARK  Name = ZINC33705366
REMARK  14 active torsions:
REMARK  status: ('A' for Active; 'I' for Inactive)
REMARK    1  A    between atoms: C_1  and  C_2
REMARK    2  A    between atoms: C_2  and  C_3
REMARK    3  A    between atoms: C_2  and  C_4
REMARK    4  A    between atoms: C_2  and  C_5
REMARK    5  A    between atoms: C_8  and  S_11
REMARK    6  A    between atoms: S_11  and  N_14
REMARK    7  A    between atoms: N_14  and  C_15
REMARK    8  A    between atoms: N_14  and  C_18
REMARK    9  A    between atoms: C_15  and  C_16
REMARK   10  A    between atoms: C_18  and  C_19
REMARK   11  A    between atoms: N_21  and  C_22
REMARK   12  A    between atoms: N_21  and  C_30
REMARK   13  A    between atoms: C_22  and  C_23
REMARK   14  A    between atoms: C_30  and  C_31
REMARK                            x       y       z     vdW  Elec       q    Type
REMARK                         _______ _______ _______ _____ _____    ______ ____
ROOT
ATOM      1  C   UNL     1       0.002  -0.004   0.002  0.00  0.00    +0.205 C 
ENDROOT
BRANCH   1   2
ATOM      2  C   UNL     1       0.146  -0.512   1.413  0.00  0.00    +0.232 C 
ATOM      3  O   UNL     1       0.225   0.272   2.335  0.00  0.00    -0.274 OA
ATOM      4  N   UNL     1       0.188  -1.838   1.651  0.00  0.00    -0.291 N 
BRANCH   4   5
ATOM      5  C   UNL     1       0.328  -2.332   3.023  0.00  0.00    +0.143 C 
BRANCH   5   6
ATOM      6  C   UNL     1      -1.038  -2.522   3.631  0.00  0.00    -0.030 A 
ATOM      7  C   UNL     1      -1.638  -1.483   4.318  0.00  0.00    +0.008 A 
ATOM      8  C   UNL     1      -2.893  -1.654   4.872  0.00  0.00    +0.038 A 
ATOM      9  C   UNL     1      -3.544  -2.869   4.747  0.00  0.00    +0.123 A 
ATOM     10  C   UNL     1      -2.940  -3.911   4.063  0.00  0.00    +0.038 A 
ATOM     11  C   UNL     1      -1.687  -3.736   3.506  0.00  0.00    +0.008 A 
ATOM     12  F   UNL     1      -4.769  -3.039   5.292  0.00  0.00    -0.205 F 
ENDBRANCH   5   6
ENDBRANCH   4   5
BRANCH   4  13
ATOM     13  C   UNL     1       0.093  -2.785   0.538  0.00  0.00    +0.150 C 
BRANCH  13  14
ATOM     14  C   UNL     1       1.475  -3.090   0.019  0.00  0.00    +0.007 A 
ATOM     15  C   UNL     1       2.337  -4.063   0.405  0.00  0.00    +0.013 A 
ATOM     16  C   UNL     1       3.565  -4.158  -0.222  0.00  0.00    +0.008 A 
ATOM     17  C   UNL     1       3.876  -3.269  -1.197  0.00  0.00    +0.045 A 
ATOM     18  S   UNL     1       2.404  -2.260  -1.259  0.00  0.00    -0.100 S 
ENDBRANCH  13  14
ENDBRANCH   4  13
ENDBRANCH   1   2
BRANCH   1  19
ATOM     19  N   UNL     1      -0.018   1.461   0.010  0.00  0.00    -0.164 NA
BRANCH  19  20
ATOM     20  S   UNL     1      -1.463   2.269   0.021  0.00  0.00    +0.062 S 
ATOM     21  O   UNL     1      -1.212   3.557  -0.524  0.00  0.00    -0.153 OA
ATOM     22  O   UNL     1      -2.428   1.384  -0.530  0.00  0.00    -0.153 OA
BRANCH  20  26
ATOM     23  C   UNL     1      -2.611   2.899   4.354  0.00  0.00    -0.042 A 
ATOM     24  C   UNL     1      -1.851   3.848   3.696  0.00  0.00    +0.006 A 
ATOM     25  C   UNL     1      -1.500   3.655   2.373  0.00  0.00    +0.029 A 
ATOM     26  C   UNL     1      -1.910   2.514   1.708  0.00  0.00    +0.106 A 
ATOM     27  C   UNL     1      -2.674   1.568   2.365  0.00  0.00    +0.029 A 
ATOM     28  C   UNL     1      -3.021   1.759   3.690  0.00  0.00    +0.006 A 
BRANCH  23  30
ATOM     29  C   UNL     1      -3.813   4.395   5.926  0.00  0.00    +0.015 C 
ATOM     30  C   UNL     1      -2.993   3.109   5.797  0.00  0.00    -0.013 C 
ATOM     31  C   UNL     1      -3.828   1.922   6.281  0.00  0.00    +0.015 C 
ATOM     32  C   UNL     1      -1.727   3.224   6.648  0.00  0.00    +0.015 C 
ENDBRANCH  23  30
ENDBRANCH  20  26
ENDBRANCH  19  20
BRANCH  19  33
ATOM     33  C   UNL     1       1.241   2.211   0.002  0.00  0.00    +0.136 C 
BRANCH  33  34
ATOM     34  C   UNL     1       1.722   2.369  -1.417  0.00  0.00    -0.018 C 
ATOM     35  C   UNL     1       1.976   3.562  -1.893  0.00  0.00    +0.005 C 
ENDBRANCH  33  34
ENDBRANCH  19  33
ENDBRANCH   1  19
TORSDOF 11
