REMARK  Name = ZINC09630871
REMARK  5 active torsions:
REMARK  status: ('A' for Active; 'I' for Inactive)
REMARK    1  A    between atoms: C_1  and  C_2
REMARK    2  A    between atoms: C_2  and  C_23
REMARK    3  A    between atoms: N_5  and  C_9
REMARK    4  A    between atoms: C_9  and  C_10
REMARK    5  A    between atoms: N_12  and  C_13
REMARK                            x       y       z     vdW  Elec       q    Type
REMARK                         _______ _______ _______ _____ _____    ______ ____
ROOT
ATOM      1  C   UNL     1       2.543   4.845   1.226  0.00  0.00    +0.047 C 
ATOM      2  C   UNL     1       2.452   3.936  -0.001  0.00  0.00    +0.136 C 
ATOM      3  C   UNL     1       2.585   4.742  -1.277  0.00  0.00    +0.251 C 
ATOM      4  O   UNL     1       1.852   5.627  -1.664  0.00  0.00    -0.272 OA
ATOM      5  N   UNL     1       3.686   4.269  -1.894  0.00  0.00    -0.215 N 
ATOM      6  C   UNL     1       4.261   3.287  -1.192  0.00  0.00    +0.310 C 
ATOM      7  O   UNL     1       5.268   2.704  -1.545  0.00  0.00    -0.252 OA
ATOM      8  N   UNL     1       3.602   3.016  -0.051  0.00  0.00    -0.281 N 
ATOM      9  H   UNL     1       3.837   2.346   0.610  0.00  0.00    +0.152 HD
ENDROOT
BRANCH   2  10
ATOM     10  C   UNL     1       1.157   3.165   0.008  0.00  0.00    +0.003 A 
ATOM     11  C   UNL     1       1.175   1.783   0.000  0.00  0.00    +0.009 A 
ATOM     12  C   UNL     1      -0.013   1.076   0.008  0.00  0.00    +0.020 A 
ATOM     13  C   UNL     1      -1.220   1.751   0.017  0.00  0.00    +0.042 A 
ATOM     14  C   UNL     1      -1.239   3.134   0.030  0.00  0.00    +0.040 A 
ATOM     15  C   UNL     1      -0.050   3.841   0.023  0.00  0.00    +0.048 A 
ATOM     16 CL   UNL     1      -0.072   5.577   0.032  0.00  0.00    -0.083 Cl
ATOM     17 CL   UNL     1      -2.712   0.863   0.019  0.00  0.00    -0.083 Cl
ENDBRANCH   2  10
BRANCH   5  18
ATOM     18  C   UNL     1       4.190   4.769  -3.175  0.00  0.00    +0.213 C 
BRANCH  18  19
ATOM     19  C   UNL     1       3.568   3.984  -4.301  0.00  0.00    +0.231 C 
ATOM     20  O   UNL     1       2.780   3.094  -4.057  0.00  0.00    -0.274 OA
ATOM     21  N   UNL     1       3.886   4.271  -5.579  0.00  0.00    -0.308 N 
ATOM     22  H   UNL     1       4.516   4.982  -5.774  0.00  0.00    +0.149 HD
BRANCH  21  23
ATOM     23  C   UNL     1       3.281   3.507  -6.673  0.00  0.00    +0.035 C 
ATOM     24  C   UNL     1       3.643   2.028  -6.525  0.00  0.00    +0.029 C 
ATOM     25  C   UNL     1       3.011   1.231  -7.667  0.00  0.00    -0.008 C 
ATOM     26  C   UNL     1       3.538   1.753  -9.006  0.00  0.00    +0.007 C 
ATOM     27  C   UNL     1       3.175   3.232  -9.154  0.00  0.00    -0.008 C 
ATOM     28  C   UNL     1       3.807   4.029  -8.011  0.00  0.00    +0.029 C 
ATOM     29  C   UNL     1       1.655   3.392  -9.107  0.00  0.00    +0.007 C 
ATOM     30  C   UNL     1       1.128   2.870  -7.769  0.00  0.00    -0.008 C 
ATOM     31  C   UNL     1       1.490   1.391  -7.620  0.00  0.00    +0.007 C 
ATOM     32  C   UNL     1       1.760   3.667  -6.626  0.00  0.00    +0.029 C 
ENDBRANCH  21  23
ENDBRANCH  18  19
ENDBRANCH   5  18
TORSDOF 4
