REMARK  Name = ZINC40082988
REMARK  8 active torsions:
REMARK  status: ('A' for Active; 'I' for Inactive)
REMARK    1  A    between atoms: C_1  and  C_2
REMARK    2  A    between atoms: C_2  and  N_3
REMARK    3  A    between atoms: N_6  and  C_9
REMARK    4  A    between atoms: C_9  and  N_10
REMARK    5  A    between atoms: C_16  and  C_18
REMARK    6  A    between atoms: C_19  and  C_30
REMARK    7  A    between atoms: N_21  and  C_24
REMARK    8  A    between atoms: C_22  and  C_23
REMARK                            x       y       z     vdW  Elec       q    Type
REMARK                         _______ _______ _______ _____ _____    ______ ____
ROOT
ATOM      1  N   UNL     1       1.501  -0.175   6.145  0.00  0.00    +0.404 N 
ATOM      2  C   UNL     1       0.877   1.149   6.297  0.00  0.00    -0.056 C 
ATOM      3  C   UNL     1       1.935   2.140   6.784  0.00  0.00    +0.086 C 
ATOM      4  N   UNL     1       2.624   1.597   7.952  0.00  0.00    -0.318 N 
ATOM      5  C   UNL     1       2.586   0.299   8.273  0.00  0.00    +0.204 C 
ATOM      6  O   UNL     1       3.203  -0.079   9.246  0.00  0.00    -0.277 OA
ATOM      7  C   UNL     1       1.809  -0.711   7.476  0.00  0.00    +0.056 C 
ATOM      8  H   UNL     1       3.129   2.202   8.518  0.00  0.00    +0.149 HD
ATOM      9  H   UNL     1       2.352  -0.090   5.609  0.00  0.00    -0.077 HD
ENDROOT
BRANCH   7  10
ATOM     10  C   UNL     1       2.627  -1.969   7.332  0.00  0.00    -0.008 A 
ATOM     11  C   UNL     1       3.822  -2.096   6.617  0.00  0.00    +0.063 A 
ATOM     12  N   UNL     1       4.233  -3.334   6.722  0.00  0.00    -0.171 NA
ATOM     13  N   UNL     1       3.311  -4.036   7.508  0.00  0.00    -0.237 N 
ATOM     14  C   UNL     1       2.336  -3.174   7.875  0.00  0.00    +0.044 A 
ATOM     15  C   UNL     1       1.140  -3.497   8.733  0.00  0.00    +0.066 C 
ATOM     16  C   UNL     1       4.517  -0.996   5.856  0.00  0.00    +0.068 C 
BRANCH  13  17
ATOM     17  C   UNL     1       3.387  -5.392   7.858  0.00  0.00    +0.066 A 
ATOM     18  C   UNL     1       2.247  -6.183   7.827  0.00  0.00    +0.028 A 
ATOM     19  C   UNL     1       2.326  -7.519   8.171  0.00  0.00    +0.002 A 
ATOM     20  C   UNL     1       3.539  -8.067   8.546  0.00  0.00    +0.000 A 
ATOM     21  C   UNL     1       4.676  -7.281   8.577  0.00  0.00    +0.002 A 
ATOM     22  C   UNL     1       4.605  -5.947   8.229  0.00  0.00    +0.028 A 
ENDBRANCH  13  17
ENDBRANCH   7  10
BRANCH   1  23
ATOM     23  C   UNL     1       0.573  -1.080   5.453  0.00  0.00    +0.073 C 
BRANCH  23  27
ATOM     24  N   UNL     1      -0.529   0.281   2.309  0.00  0.00    -0.310 N 
ATOM     25  C   UNL     1       0.717  -0.186   1.970  0.00  0.00    +0.223 A 
ATOM     26  N   UNL     1       1.262  -0.719   3.016  0.00  0.00    -0.161 NA
ATOM     27  N   UNL     1       0.360  -0.607   4.083  0.00  0.00    -0.258 N 
ATOM     28  C   UNL     1      -0.738   0.022   3.615  0.00  0.00    +0.176 A 
ATOM     29  S   UNL     1      -2.141   0.415   4.515  0.00  0.00    -0.011 S 
BRANCH  24  31
ATOM     30  C   UNL     1      -1.217   2.460   1.437  0.00  0.00    +0.027 C 
ATOM     31  C   UNL     1      -1.469   0.951   1.406  0.00  0.00    +0.122 C 
ENDBRANCH  24  31
ENDBRANCH  23  27
ENDBRANCH   1  23
TORSDOF 5
