REMARK  Name = ZINC55329723
REMARK  4 active torsions:
REMARK  status: ('A' for Active; 'I' for Inactive)
REMARK    1  A    between atoms: C_2  and  S_10
REMARK    2  A    between atoms: C_5  and  C_6
REMARK    3  A    between atoms: S_10  and  N_13
REMARK    4  A    between atoms: C_16  and  N_19
REMARK                            x       y       z     vdW  Elec       q    Type
REMARK                         _______ _______ _______ _____ _____    ______ ____
ROOT
ATOM      1  S   UNL     1       1.896   3.458   0.002  0.00  0.00    +0.065 S 
ATOM      2  O   UNL     1       2.865   3.554  -1.033  0.00  0.00    -0.153 OA
ATOM      3  O   UNL     1       0.742   4.286   0.043  0.00  0.00    -0.153 OA
ENDROOT
BRANCH   1   5
ATOM      4  C   UNL     1      -0.017   1.375   0.010  0.00  0.00    +0.086 A 
ATOM      5  C   UNL     1       1.321   1.792  -0.001  0.00  0.00    +0.158 A 
ATOM      6  C   UNL     1       2.088   0.677  -0.014  0.00  0.00    +0.197 A 
ATOM      7  O   UNL     1       1.293  -0.400  -0.012  0.00  0.00    -0.439 OA
ATOM      8  C   UNL     1       0.002  -0.004   0.002  0.00  0.00    +0.219 A 
ATOM      9 BR   UNL     1       3.979   0.646  -0.033  0.00  0.00    -0.006 Br
BRANCH   8  10
ATOM     10  C   UNL     1      -1.132  -0.855   0.009  0.00  0.00    +0.421 C 
ATOM     11  O   UNL     1      -2.258  -0.373   0.023  0.00  0.00    -0.237 OA
ATOM     12  O   UNL     1      -0.985  -2.071   0.001  0.00  0.00    -0.237 OA
ENDBRANCH   8  10
ENDBRANCH   1   5
BRANCH   1  13
ATOM     13  N   UNL     1       2.701   3.696   1.429  0.00  0.00    -0.177 NA
ATOM     14  C   UNL     1       1.986   4.169   2.622  0.00  0.00    +0.108 C 
ATOM     15  C   UNL     1       2.262   3.202   3.778  0.00  0.00    +0.001 C 
ATOM     16  C   UNL     1       3.773   3.058   3.967  0.00  0.00    -0.073 C 
ATOM     17  C   UNL     1       4.396   2.479   2.695  0.00  0.00    +0.001 C 
ATOM     18  C   UNL     1       4.143   3.431   1.528  0.00  0.00    +0.108 C 
BRANCH  16  19
ATOM     19  N   UNL     1       4.041   2.157   5.097  0.00  0.00    +0.380 N 
ATOM     20  H   UNL     1       3.638   1.252   4.908  0.00  0.00    -0.090 HD
ATOM     21  H   UNL     1       5.038   2.062   5.222  0.00  0.00    -0.090 HD
ATOM     22  H   UNL     1       3.632   2.539   5.936  0.00  0.00    -0.090 HD
ENDBRANCH  16  19
ENDBRANCH   1  13
TORSDOF 4
