REMARK  Name = ZINC12787156
REMARK  12 active torsions:
REMARK  status: ('A' for Active; 'I' for Inactive)
REMARK    1  A    between atoms: C_1  and  C_2
REMARK    2  A    between atoms: C_2  and  C_3
REMARK    3  A    between atoms: C_2  and  C_4
REMARK    4  A    between atoms: C_2  and  N_5
REMARK    5  A    between atoms: C_6  and  C_8
REMARK    6  A    between atoms: C_8  and  N_56
REMARK    7  A    between atoms: C_9  and  N_56
REMARK    8  A    between atoms: C_10  and  C_11
REMARK    9  A    between atoms: C_10  and  N_56
REMARK   10  A    between atoms: N_13  and  C_14
REMARK   11  A    between atoms: C_14  and  C_15
REMARK   12  A    between atoms: C_19  and  C_22
REMARK                            x       y       z     vdW  Elec       q    Type
REMARK                         _______ _______ _______ _____ _____    ______ ____
ROOT
ATOM      1  C   UNL     1      -0.016   1.344   0.009  0.00  0.00    +0.205 C 
ATOM      2  O   UNL     1      -1.075   1.936   0.018  0.00  0.00    -0.277 OA
ATOM      3  N   UNL     1       0.002  -0.004   0.002  0.00  0.00    -0.248 N 
ATOM      4  C   UNL     1      -1.192  -0.715   0.010  0.00  0.00    +0.168 A 
ATOM      5  N   UNL     1      -2.432  -0.264   0.024  0.00  0.00    -0.224 NA
ATOM      6  C   UNL     1      -3.465  -1.093   0.029  0.00  0.00    +0.080 A 
ATOM      7  C   UNL     1      -3.243  -2.442   0.020  0.00  0.00    +0.076 A 
ATOM      8  S   UNL     1      -1.455  -2.483  -0.005  0.00  0.00    -0.060 S 
ENDROOT
BRANCH   6   9
ATOM      9  C   UNL     1      -4.850  -0.564   0.046  0.00  0.00    +0.002 A 
ATOM     10  C   UNL     1      -5.072   0.813   0.055  0.00  0.00    +0.011 A 
ATOM     11  C   UNL     1      -6.363   1.302   0.070  0.00  0.00    +0.022 A 
ATOM     12  C   UNL     1      -7.436   0.428   0.076  0.00  0.00    +0.059 A 
ATOM     13  C   UNL     1      -7.222  -0.941   0.067  0.00  0.00    +0.060 A 
ATOM     14  C   UNL     1      -5.934  -1.440   0.046  0.00  0.00    +0.031 A 
ATOM     15 CL   UNL     1      -8.573  -2.030   0.075  0.00  0.00    -0.082 Cl
ATOM     16 CL   UNL     1      -9.057   1.049   0.096  0.00  0.00    -0.082 Cl
ENDBRANCH   6   9
BRANCH   1  17
ATOM     17  C   UNL     1       1.278   2.115   0.001  0.00  0.00    +0.019 C 
BRANCH  17  19
ATOM     18  C   UNL     1       0.353   3.955   1.273  0.00  0.00    -0.095 C 
ATOM     19  N   UNL     1       0.972   3.561  -0.010  0.00  0.00    +0.389 N 
ATOM     20  H   UNL     1       0.313   3.756  -0.772  0.00  0.00    -0.081 HD
BRANCH  19  21
ATOM     21  C   UNL     1       2.209   4.338  -0.234  0.00  0.00    +0.019 C 
BRANCH  21  23
ATOM     22  N   UNL     1       2.806   6.691  -0.706  0.00  0.00    -0.312 N 
ATOM     23  C   UNL     1       1.842   5.782  -0.460  0.00  0.00    +0.197 C 
ATOM     24  O   UNL     1       0.680   6.125  -0.420  0.00  0.00    -0.278 OA
ATOM     25  H   UNL     1       3.736   6.416  -0.738  0.00  0.00    +0.149 HD
BRANCH  22  27
ATOM     26  C   UNL     1       1.734   8.639   0.312  0.00  0.00    +0.031 C 
ATOM     27  C   UNL     1       2.449   8.095  -0.926  0.00  0.00    +0.026 C 
ATOM     28  C   UNL     1       3.719   8.910  -1.182  0.00  0.00    +0.031 C 
ATOM     29  C   UNL     1       1.522   8.202  -2.138  0.00  0.00    +0.031 C 
ENDBRANCH  22  27
ENDBRANCH  21  23
ENDBRANCH  19  21
ENDBRANCH  17  19
ENDBRANCH   1  17
BRANCH   3  30
ATOM     30  C   UNL     1       1.281  -0.719  -0.014  0.00  0.00    +0.142 C 
BRANCH  30  31
ATOM     31  C   UNL     1       1.732  -0.972   1.401  0.00  0.00    -0.015 C 
ATOM     32  C   UNL     1       2.009  -2.191   1.793  0.00  0.00    +0.005 C 
ENDBRANCH  30  31
ENDBRANCH   3  30
TORSDOF 8
