REMARK  Name = ZINC13360636
REMARK  12 active torsions:
REMARK  status: ('A' for Active; 'I' for Inactive)
REMARK    1  A    between atoms: C_1  and  C_2
REMARK    2  A    between atoms: C_6  and  C_29
REMARK    3  A    between atoms: C_7  and  O_8
REMARK    4  A    between atoms: O_8  and  C_9
REMARK    5  A    between atoms: C_9  and  C_11
REMARK    6  A    between atoms: C_9  and  C_12
REMARK    7  A    between atoms: N_14  and  N_15
REMARK    8  A    between atoms: N_15  and  S_16
REMARK    9  A    between atoms: S_16  and  C_19
REMARK   10  A    between atoms: C_21  and  C_27
REMARK   11  A    between atoms: C_24  and  O_25
REMARK   12  A    between atoms: O_25  and  C_26
REMARK                            x       y       z     vdW  Elec       q    Type
REMARK                         _______ _______ _______ _____ _____    ______ ____
ROOT
ATOM      1  C   UNL     1       5.153   1.779   1.762  0.00  0.00    +0.268 C 
ATOM      2  O   UNL     1       5.528   2.810   2.279  0.00  0.00    -0.270 OA
ATOM      3  N   UNL     1       4.072   1.783   0.957  0.00  0.00    -0.229 N 
ATOM      4  H   UNL     1       3.729   0.948   0.601  0.00  0.00    +0.171 HD
ENDROOT
BRANCH   1   5
ATOM      5  C   UNL     1       5.896   0.493   2.020  0.00  0.00    +0.257 C 
ATOM      6  C   UNL     1       6.548   0.013   0.722  0.00  0.00    +0.062 C 
BRANCH   5   7
ATOM      7  O   UNL     1       6.905   0.716   3.006  0.00  0.00    -0.479 OA
BRANCH   7  14
ATOM      8  C   UNL     1       5.316   0.153   5.272  0.00  0.00    +0.047 C 
ATOM      9  C   UNL     1       6.520  -0.672   4.900  0.00  0.00    -0.007 A 
ATOM     10  C   UNL     1       6.883  -1.756   5.676  0.00  0.00    +0.027 A 
ATOM     11  C   UNL     1       7.992  -2.510   5.337  0.00  0.00    +0.042 A 
ATOM     12  C   UNL     1       8.737  -2.184   4.218  0.00  0.00    +0.027 A 
ATOM     13  C   UNL     1       8.375  -1.105   3.436  0.00  0.00    -0.007 A 
ATOM     14  C   UNL     1       7.263  -0.347   3.774  0.00  0.00    +0.127 A 
ATOM     15  C   UNL     1       9.187  -0.750   2.217  0.00  0.00    +0.047 C 
ATOM     16 CL   UNL     1       8.449  -3.868   6.318  0.00  0.00    -0.084 Cl
ENDBRANCH   7  14
ENDBRANCH   5   7
ENDBRANCH   1   5
BRANCH   3  17
ATOM     17  N   UNL     1       3.443   2.993   0.635  0.00  0.00    -0.108 NA
ATOM     18  H   UNL     1       3.035   3.528   1.333  0.00  0.00    +0.172 HD
BRANCH  17  19
ATOM     19  S   UNL     1       3.396   3.508  -0.938  0.00  0.00    +0.077 S 
ATOM     20  O   UNL     1       2.846   4.818  -0.920  0.00  0.00    -0.152 OA
ATOM     21  O   UNL     1       2.821   2.451  -1.695  0.00  0.00    -0.152 OA
BRANCH  19  22
ATOM     22  C   UNL     1       5.064   3.669  -1.484  0.00  0.00    +0.149 A 
ATOM     23  C   UNL     1       5.555   2.822  -2.452  0.00  0.00    +0.047 A 
ATOM     24  C   UNL     1       6.878   2.951  -2.884  0.00  0.00    +0.065 A 
ATOM     25  C   UNL     1       7.695   3.943  -2.335  0.00  0.00    +0.019 A 
ATOM     26  C   UNL     1       7.198   4.782  -1.363  0.00  0.00    +0.048 A 
ATOM     27  C   UNL     1       5.881   4.651  -0.936  0.00  0.00    +0.146 A 
BRANCH  24  28
ATOM     28  C   UNL     1       7.409   2.046  -3.921  0.00  0.00    +0.387 C 
ATOM     29  O   UNL     1       6.695   1.188  -4.401  0.00  0.00    -0.241 OA
ATOM     30  O   UNL     1       8.684   2.172  -4.336  0.00  0.00    -0.241 OA
ENDBRANCH  24  28
BRANCH  27  31
ATOM     31  O   UNL     1       5.393   5.483   0.018  0.00  0.00    -0.493 OA
ATOM     32  C   UNL     1       6.316   6.393   0.619  0.00  0.00    +0.277 C 
ENDBRANCH  27  31
ENDBRANCH  19  22
ENDBRANCH  17  19
ENDBRANCH   3  17
TORSDOF 8
