REMARK  Name = ZINC09318297
REMARK  10 active torsions:
REMARK  status: ('A' for Active; 'I' for Inactive)
REMARK    1  A    between atoms: C_1  and  O_2
REMARK    2  A    between atoms: O_2  and  C_3
REMARK    3  A    between atoms: C_6  and  C_9
REMARK    4  A    between atoms: C_17  and  O_37
REMARK    5  A    between atoms: C_20  and  C_21
REMARK    6  A    between atoms: C_20  and  N_72
REMARK    7  A    between atoms: N_23  and  C_24
REMARK    8  A    between atoms: C_25  and  C_33
REMARK    9  A    between atoms: C_33  and  O_35
REMARK   10  A    between atoms: O_35  and  C_36
REMARK                            x       y       z     vdW  Elec       q    Type
REMARK                         _______ _______ _______ _____ _____    ______ ____
ROOT
ATOM      1  C   UNL     1       0.060  -4.277  -0.021  0.00  0.00    -0.031 C 
ATOM      2  C   UNL     1       0.304  -4.776  -1.447  0.00  0.00    +0.011 C 
ATOM      3  C   UNL     1      -0.824  -4.285  -2.354  0.00  0.00    +0.005 C 
ATOM      4  C   UNL     1      -2.165  -4.840  -1.872  0.00  0.00    +0.000 C 
ATOM      5  C   UNL     1      -2.119  -6.369  -1.896  0.00  0.00    +0.003 C 
ATOM      6  C   UNL     1      -1.005  -6.859  -0.970  0.00  0.00    +0.035 C 
ATOM      7  C   UNL     1       0.339  -6.306  -1.448  0.00  0.00    +0.066 C 
ATOM      8  C   UNL     1       1.443  -6.778  -0.495  0.00  0.00    +0.016 C 
ATOM      9  C   UNL     1       1.169  -6.224   0.905  0.00  0.00    -0.075 C 
ATOM     10  N   UNL     1       1.163  -4.747   0.846  0.00  0.00    +0.390 N 
ATOM     11  H   UNL     1       2.055  -4.425   0.452  0.00  0.00    -0.080 HD
ENDROOT
BRANCH   1  15
ATOM     12  C   UNL     1       0.002  -0.004   0.002  0.00  0.00    +0.120 A 
ATOM     13  C   UNL     1       1.212  -0.682  -0.019  0.00  0.00    +0.046 A 
ATOM     14  C   UNL     1       1.228  -2.064  -0.021  0.00  0.00    +0.005 A 
ATOM     15  C   UNL     1       0.040  -2.770  -0.013  0.00  0.00    -0.060 A 
ATOM     16  C   UNL     1      -1.168  -2.096   0.002  0.00  0.00    +0.005 A 
ATOM     17  C   UNL     1      -1.189  -0.715   0.010  0.00  0.00    +0.046 A 
BRANCH  12  19
ATOM     18  C   UNL     1       1.248   2.021   0.001  0.00  0.00    +0.277 C 
ATOM     19  O   UNL     1      -0.016   1.355   0.009  0.00  0.00    -0.495 OA
ENDBRANCH  12  19
ENDBRANCH   1  15
BRANCH   7  20
ATOM     20  O   UNL     1       0.611  -6.779  -2.769  0.00  0.00    -0.388 OA
ATOM     21  H   UNL     1       0.655  -7.743  -2.840  0.00  0.00    +0.210 HD
ENDBRANCH   7  20
BRANCH  10  22
ATOM     22  C   UNL     1       1.009  -4.188   2.204  0.00  0.00    +0.020 C 
BRANCH  22  23
ATOM     23  C   UNL     1       2.250  -4.500   3.000  0.00  0.00    +0.201 C 
ATOM     24  O   UNL     1       3.151  -5.134   2.494  0.00  0.00    -0.278 OA
ATOM     25  N   UNL     1       2.358  -4.075   4.275  0.00  0.00    -0.281 N 
ATOM     26  H   UNL     1       1.637  -3.568   4.679  0.00  0.00    +0.155 HD
BRANCH  25  27
ATOM     27  C   UNL     1       3.499  -4.362   5.007  0.00  0.00    +0.086 A 
ATOM     28  C   UNL     1       3.793  -4.014   6.319  0.00  0.00    +0.091 A 
ATOM     29  C   UNL     1       5.074  -4.443   6.856  0.00  0.00    -0.021 A 
ATOM     30  C   UNL     1       5.849  -5.145   6.002  0.00  0.00    -0.004 A 
ATOM     31  S   UNL     1       4.903  -5.248   4.510  0.00  0.00    -0.077 S 
ATOM     32  C   UNL     1       7.209  -5.711   6.274  0.00  0.00    +0.043 C 
ATOM     33  C   UNL     1       7.759  -5.056   7.550  0.00  0.00    +0.005 C 
ATOM     34  C   UNL     1       6.677  -5.101   8.633  0.00  0.00    +0.005 C 
ATOM     35  C   UNL     1       5.542  -4.141   8.274  0.00  0.00    +0.037 C 
BRANCH  28  36
ATOM     36  C   UNL     1       2.849  -3.243   7.130  0.00  0.00    +0.342 C 
ATOM     37  O   UNL     1       2.015  -3.819   7.804  0.00  0.00    -0.245 OA
BRANCH  36  38
ATOM     38  O   UNL     1       2.903  -1.896   7.131  0.00  0.00    -0.464 OA
ATOM     39  C   UNL     1       1.936  -1.197   7.958  0.00  0.00    +0.280 C 
ENDBRANCH  36  38
ENDBRANCH  28  36
ENDBRANCH  25  27
ENDBRANCH  22  23
ENDBRANCH  10  22
TORSDOF 8
