REMARK  Name = ZINC12603066
REMARK  8 active torsions:
REMARK  status: ('A' for Active; 'I' for Inactive)
REMARK    1  A    between atoms: C_1  and  N_2
REMARK    2  A    between atoms: C_6  and  C_7
REMARK    3  A    between atoms: C_7  and  N_8
REMARK    4  A    between atoms: N_8  and  C_9
REMARK    5  A    between atoms: C_12  and  C_35
REMARK    6  A    between atoms: C_15  and  C_31
REMARK    7  A    between atoms: C_31  and  O_33
REMARK    8  A    between atoms: O_33  and  C_34
REMARK                            x       y       z     vdW  Elec       q    Type
REMARK                         _______ _______ _______ _____ _____    ______ ____
ROOT
ATOM      1  C   UNL     1      -3.586   6.012   2.523  0.00  0.00    -0.068 C 
ATOM      2  C   UNL     1      -2.748   7.133   1.903  0.00  0.00    +0.008 C 
ATOM      3  C   UNL     1      -1.360   7.149   2.550  0.00  0.00    +0.090 C 
ATOM      4  N   UNL     1      -1.502   7.354   3.997  0.00  0.00    -0.274 NA
ATOM      5  C   UNL     1      -0.204   7.563   4.647  0.00  0.00    +0.172 C 
ATOM      6  C   UNL     1      -0.423   8.156   6.046  0.00  0.00    +0.068 C 
ATOM      7  C   UNL     1      -1.478   7.335   6.745  0.00  0.00    -0.016 A 
ATOM      8  C   UNL     1      -1.818   7.286   8.149  0.00  0.00    +0.003 A 
ATOM      9  C   UNL     1      -1.313   7.946   9.274  0.00  0.00    +0.010 A 
ATOM     10  C   UNL     1      -1.891   7.646  10.482  0.00  0.00    +0.001 A 
ATOM     11  C   UNL     1      -2.927   6.733  10.597  0.00  0.00    +0.002 A 
ATOM     12  C   UNL     1      -3.446   6.065   9.501  0.00  0.00    +0.026 A 
ATOM     13  C   UNL     1      -2.879   6.349   8.261  0.00  0.00    +0.047 A 
ATOM     14  N   UNL     1      -3.144   5.882   7.005  0.00  0.00    -0.356 N 
ATOM     15  H   UNL     1      -3.940   5.139   6.851  0.00  0.00    +0.166 HD
ATOM     16  C   UNL     1      -2.303   6.474   6.104  0.00  0.00    +0.038 A 
ATOM     17  C   UNL     1      -2.249   6.247   4.613  0.00  0.00    +0.103 C 
ATOM     18  C   UNL     1      -3.666   6.216   4.039  0.00  0.00    +0.009 C 
ENDROOT
BRANCH   3  19
ATOM     19  C   UNL     1      -0.542   8.270   1.962  0.00  0.00    +0.005 A 
ATOM     20  C   UNL     1       0.480   7.989   1.075  0.00  0.00    +0.008 A 
ATOM     21  C   UNL     1       1.229   9.016   0.534  0.00  0.00    +0.000 A 
ATOM     22  C   UNL     1       0.958  10.327   0.880  0.00  0.00    +0.003 A 
ATOM     23  C   UNL     1      -0.063  10.611   1.767  0.00  0.00    +0.038 A 
ATOM     24  C   UNL     1      -0.818   9.583   2.305  0.00  0.00    +0.128 A 
ATOM     25  F   UNL     1      -1.820   9.859   3.168  0.00  0.00    -0.205 F 
ENDBRANCH   3  19
BRANCH   1  26
ATOM     26  N   UNL     1      -2.960   4.715   2.235  0.00  0.00    +0.385 N 
ATOM     27  H   UNL     1      -3.259   3.998   3.013  0.00  0.00    -0.085 HD
ATOM     28  H   UNL     1      -1.867   4.840   2.252  0.00  0.00    -0.085 HD
BRANCH  26  29
ATOM     29  C   UNL     1      -3.374   4.211   0.919  0.00  0.00    -0.028 C 
BRANCH  29  35
ATOM     30  C   UNL     1      -0.541   3.762  -0.258  0.00  0.00    +0.148 C 
ATOM     31  N   UNL     1      -1.466   2.698   0.140  0.00  0.00    -0.355 N 
ATOM     32  C   UNL     1      -1.221   1.359   0.054  0.00  0.00    +0.085 A 
ATOM     33  C   UNL     1      -2.304   0.702   0.515  0.00  0.00    +0.019 A 
ATOM     34  C   UNL     1      -3.255   1.670   0.893  0.00  0.00    +0.021 A 
ATOM     35  C   UNL     1      -2.713   2.882   0.659  0.00  0.00    +0.001 A 
ENDBRANCH  29  35
ENDBRANCH  26  29
ENDBRANCH   1  26
BRANCH   5  36
ATOM     36  C   UNL     1       0.516   6.244   4.768  0.00  0.00    +0.325 C 
ATOM     37  O   UNL     1       0.098   5.272   4.184  0.00  0.00    -0.249 OA
BRANCH  36  38
ATOM     38  O   UNL     1       1.621   6.150   5.524  0.00  0.00    -0.467 OA
ATOM     39  C   UNL     1       2.262   4.849   5.594  0.00  0.00    +0.280 C 
ENDBRANCH  36  38
ENDBRANCH   5  36
TORSDOF 6
