REMARK  Name = ZINC21885874
REMARK  7 active torsions:
REMARK  status: ('A' for Active; 'I' for Inactive)
REMARK    1  A    between atoms: C_1  and  C_2
REMARK    2  A    between atoms: C_3  and  N_12
REMARK    3  A    between atoms: N_6  and  C_11
REMARK    4  A    between atoms: N_9  and  C_10
REMARK    5  A    between atoms: C_18  and  C_20
REMARK    6  A    between atoms: C_20  and  N_21
REMARK    7  A    between atoms: C_29  and  C_33
REMARK                            x       y       z     vdW  Elec       q    Type
REMARK                         _______ _______ _______ _____ _____    ______ ____
ROOT
ATOM      1  N   UNL     1       5.835   5.738  -3.574  0.00  0.00    -0.321 N 
ATOM      2  C   UNL     1       4.793   5.025  -4.323  0.00  0.00    +0.124 C 
ATOM      3  C   UNL     1       3.415   5.441  -3.798  0.00  0.00    +0.126 C 
ATOM      4  N   UNL     1       3.387   5.232  -2.342  0.00  0.00    -0.297 N 
ATOM      5  C   UNL     1       4.474   5.808  -1.536  0.00  0.00    +0.126 C 
ATOM      6  C   UNL     1       5.813   5.373  -2.151  0.00  0.00    +0.124 C 
ATOM      7  C   UNL     1       2.389   4.537  -1.762  0.00  0.00    +0.233 C 
ATOM      8  O   UNL     1       1.498   4.073  -2.442  0.00  0.00    -0.274 OA
ENDROOT
BRANCH   1  11
ATOM      9  C   UNL     1       7.277   7.938  -4.609  0.00  0.00    +0.066 C 
ATOM     10  C   UNL     1       7.827   6.535  -4.640  0.00  0.00    +0.046 A 
ATOM     11  C   UNL     1       7.105   5.509  -4.134  0.00  0.00    +0.115 A 
ATOM     12  C   UNL     1       7.646   4.196  -4.181  0.00  0.00    +0.278 A 
ATOM     13  O   UNL     1       7.014   3.255  -3.736  0.00  0.00    -0.265 OA
ATOM     14  N   UNL     1       8.865   4.002  -4.723  0.00  0.00    -0.262 N 
ATOM     15  C   UNL     1       9.565   5.042  -5.214  0.00  0.00    +0.332 A 
ATOM     16  O   UNL     1      10.663   4.848  -5.699  0.00  0.00    -0.246 OA
ATOM     17  N   UNL     1       9.068   6.291  -5.178  0.00  0.00    -0.299 N 
ATOM     18  C   UNL     1       9.854   7.401  -5.721  0.00  0.00    +0.154 C 
ATOM     19  C   UNL     1       9.432   2.652  -4.777  0.00  0.00    +0.157 C 
ENDBRANCH   1  11
BRANCH   7  20
ATOM     20  C   UNL     1       2.381   4.335  -0.269  0.00  0.00    +0.209 C 
BRANCH  20  21
ATOM     21  N   UNL     1       1.202   3.553   0.112  0.00  0.00    -0.256 N 
ATOM     22  C   UNL     1       1.262   2.153   0.163  0.00  0.00    +0.079 A 
ATOM     23  C   UNL     1       2.482   1.497   0.170  0.00  0.00    +0.027 A 
ATOM     24  C   UNL     1       2.519   0.115   0.220  0.00  0.00    +0.002 A 
ATOM     25  C   UNL     1       1.343  -0.611   0.262  0.00  0.00    +0.004 A 
ATOM     26  C   UNL     1       0.122   0.039   0.255  0.00  0.00    +0.047 A 
ATOM     27  C   UNL     1       0.076   1.421   0.205  0.00  0.00    +0.143 A 
ATOM     28  O   UNL     1      -1.115   2.076   0.203  0.00  0.00    -0.478 OA
ATOM     29  C   UNL     1      -1.152   3.350   0.846  0.00  0.00    +0.256 C 
ATOM     30  C   UNL     1       0.040   4.170   0.420  0.00  0.00    +0.261 C 
ATOM     31  O   UNL     1      -0.044   5.378   0.353  0.00  0.00    -0.271 OA
ATOM     32  C   UNL     1      -1.117   3.152   2.363  0.00  0.00    +0.062 C 
ENDBRANCH  20  21
ENDBRANCH   7  20
TORSDOF 3
