REMARK  Name = ZINC40978942
REMARK  9 active torsions:
REMARK  status: ('A' for Active; 'I' for Inactive)
REMARK    1  A    between atoms: C_1  and  C_2
REMARK    2  A    between atoms: C_3  and  C_27
REMARK    3  A    between atoms: C_4  and  C_12
REMARK    4  A    between atoms: C_17  and  O_18
REMARK    5  A    between atoms: O_18  and  C_19
REMARK    6  A    between atoms: C_19  and  C_20
REMARK    7  A    between atoms: C_27  and  O_29
REMARK    8  A    between atoms: O_29  and  C_30
REMARK    9  A    between atoms: C_30  and  C_31
REMARK                            x       y       z     vdW  Elec       q    Type
REMARK                         _______ _______ _______ _____ _____    ______ ____
ROOT
ATOM      1  C   UNL     1      -0.018   1.503   0.010  0.00  0.00    +0.061 C 
ATOM      2  C   UNL     1       0.002  -0.004   0.002  0.00  0.00    +0.020 C 
ATOM      3  C   UNL     1      -1.165  -0.668   0.004  0.00  0.00    +0.082 C 
ATOM      4  C   UNL     1      -1.256  -2.171  -0.016  0.00  0.00    +0.184 C 
ATOM      5  N   UNL     1       0.061  -2.739   0.249  0.00  0.00    -0.201 N 
ATOM      6  C   UNL     1       1.210  -2.014   0.244  0.00  0.00    +0.240 A 
ATOM      7  N   UNL     1       2.186  -2.835   0.510  0.00  0.00    -0.092 NA
ATOM      8  N   UNL     1       1.730  -4.028   0.688  0.00  0.00    -0.021 NA
ATOM      9  N   UNL     1       0.444  -4.046   0.545  0.00  0.00    -0.042 NA
ATOM     10  N   UNL     1       1.213  -0.650  -0.013  0.00  0.00    -0.286 N 
ATOM     11  H   UNL     1       2.038  -0.172  -0.193  0.00  0.00    +0.155 HD
ENDROOT
BRANCH   4  12
ATOM     12  C   UNL     1      -1.737  -2.627  -1.369  0.00  0.00    +0.023 A 
ATOM     13  C   UNL     1      -1.004  -2.327  -2.501  0.00  0.00    +0.009 A 
ATOM     14  C   UNL     1      -1.446  -2.745  -3.743  0.00  0.00    +0.001 A 
ATOM     15  C   UNL     1      -2.621  -3.465  -3.855  0.00  0.00    +0.004 A 
ATOM     16  C   UNL     1      -3.357  -3.768  -2.726  0.00  0.00    +0.046 A 
ATOM     17  C   UNL     1      -2.914  -3.354  -1.478  0.00  0.00    +0.127 A 
BRANCH  17  18
ATOM     18  O   UNL     1      -3.633  -3.655  -0.366  0.00  0.00    -0.487 OA
BRANCH  18  19
ATOM     19  C   UNL     1      -4.835  -4.406  -0.554  0.00  0.00    +0.266 C 
BRANCH  19  20
ATOM     20  C   UNL     1      -5.493  -4.643   0.781  0.00  0.00    +0.008 A 
ATOM     21  C   UNL     1      -4.915  -4.147   1.935  0.00  0.00    +0.008 A 
ATOM     22  C   UNL     1      -5.519  -4.364   3.159  0.00  0.00    +0.000 A 
ATOM     23  C   UNL     1      -6.700  -5.079   3.231  0.00  0.00    +0.001 A 
ATOM     24  C   UNL     1      -7.279  -5.576   2.078  0.00  0.00    +0.020 A 
ATOM     25  C   UNL     1      -6.678  -5.353   0.852  0.00  0.00    +0.047 A 
ATOM     26 CL   UNL     1      -7.407  -5.971  -0.597  0.00  0.00    -0.083 Cl
ENDBRANCH  19  20
ENDBRANCH  18  19
ENDBRANCH  17  18
ENDBRANCH   4  12
BRANCH   3  27
ATOM     27  C   UNL     1      -2.364   0.079   0.027  0.00  0.00    +0.339 C 
ATOM     28  O   UNL     1      -2.323   1.295   0.044  0.00  0.00    -0.245 OA
BRANCH  27  29
ATOM     29  O   UNL     1      -3.554  -0.556   0.029  0.00  0.00    -0.457 OA
BRANCH  29  30
ATOM     30  C   UNL     1      -4.726   0.261   0.053  0.00  0.00    +0.259 C 
BRANCH  30  31
ATOM     31  C   UNL     1      -5.951  -0.616   0.052  0.00  0.00    +0.006 C 
ATOM     32  C   UNL     1      -6.943  -0.357   0.868  0.00  0.00    +0.007 C 
ENDBRANCH  30  31
ENDBRANCH  29  30
ENDBRANCH  27  29
ENDBRANCH   3  27
TORSDOF 8
