REMARK  Name = ZINC09457428
REMARK  8 active torsions:
REMARK  status: ('A' for Active; 'I' for Inactive)
REMARK    1  A    between atoms: C_1  and  C_2
REMARK    2  A    between atoms: C_2  and  O_3
REMARK    3  A    between atoms: O_3  and  C_4
REMARK    4  A    between atoms: C_7  and  C_10
REMARK    5  A    between atoms: C_11  and  C_21
REMARK    6  A    between atoms: N_23  and  N_24
REMARK    7  A    between atoms: C_25  and  C_26
REMARK    8  A    between atoms: C_29  and  C_32
REMARK                            x       y       z     vdW  Elec       q    Type
REMARK                         _______ _______ _______ _____ _____    ______ ____
ROOT
ATOM      1  C   UNL     1      -0.499   5.404   0.052  0.00  0.00    +0.109 A 
ATOM      2  C   UNL     1       0.792   5.923   0.055  0.00  0.00    +0.177 A 
ATOM      3  N   UNL     1       1.656   4.894   0.044  0.00  0.00    -0.124 NA
ATOM      4  N   UNL     1       1.015   3.779   0.040  0.00  0.00    -0.058 NA
ATOM      5  N   UNL     1      -0.361   4.044   0.039  0.00  0.00    -0.187 N 
ATOM      6  C   UNL     1      -1.393   3.101   0.031  0.00  0.00    +0.241 A 
ATOM      7  C   UNL     1      -1.224   1.645   0.017  0.00  0.00    +0.206 A 
ATOM      8  N   UNL     1      -2.407   1.094   0.020  0.00  0.00    -0.032 NA
ATOM      9  O   UNL     1      -3.369   2.134   0.030  0.00  0.00    -0.239 OA
ATOM     10  N   UNL     1      -2.669   3.366   0.033  0.00  0.00    -0.027 NA
ATOM     11  N   UNL     1      -0.011   0.966   0.007  0.00  0.00    -0.337 N 
ATOM     12  H   UNL     1       0.002  -0.004   0.002  0.00  0.00    +0.144 HD
ATOM     13  H   UNL     1       0.822   1.462   0.002  0.00  0.00    +0.144 HD
ENDROOT
BRANCH   1  17
ATOM     14  C   UNL     1      -4.133   7.601   0.080  0.00  0.00    +0.121 A 
ATOM     15  C   UNL     1      -3.098   7.963   0.934  0.00  0.00    +0.046 A 
ATOM     16  C   UNL     1      -1.917   7.253   0.928  0.00  0.00    +0.013 A 
ATOM     17  C   UNL     1      -1.762   6.167   0.062  0.00  0.00    +0.003 A 
ATOM     18  C   UNL     1      -2.803   5.810  -0.798  0.00  0.00    +0.013 A 
ATOM     19  C   UNL     1      -3.982   6.522  -0.782  0.00  0.00    +0.046 A 
BRANCH  14  20
ATOM     20  O   UNL     1      -5.295   8.304   0.089  0.00  0.00    -0.492 OA
BRANCH  20  22
ATOM     21  C   UNL     1      -7.541   8.784  -0.662  0.00  0.00    +0.048 C 
ATOM     22  C   UNL     1      -6.317   7.879  -0.814  0.00  0.00    +0.225 C 
ENDBRANCH  20  22
ENDBRANCH  14  20
ENDBRANCH   1  17
BRANCH   2  23
ATOM     23  C   UNL     1       1.149   7.350   0.068  0.00  0.00    +0.286 C 
ATOM     24  O   UNL     1       0.274   8.196   0.077  0.00  0.00    -0.267 OA
ATOM     25  N   UNL     1       2.445   7.721   0.070  0.00  0.00    -0.202 N 
ATOM     26  H   UNL     1       3.142   7.047   0.063  0.00  0.00    +0.178 HD
BRANCH  25  27
ATOM     27  N   UNL     1       2.784   9.080   0.082  0.00  0.00    -0.187 NA
ATOM     28  C   UNL     1       4.033   9.437   0.084  0.00  0.00    +0.138 C 
BRANCH  28  29
ATOM     29  C   UNL     1       4.390  10.867   0.096  0.00  0.00    -0.005 A 
ATOM     30  C   UNL     1       3.385  11.839   0.101  0.00  0.00    +0.010 A 
ATOM     31  C   UNL     1       3.721  13.174   0.119  0.00  0.00    +0.009 A 
ATOM     32  C   UNL     1       5.062  13.557   0.121  0.00  0.00    -0.018 A 
ATOM     33  C   UNL     1       6.066  12.588   0.110  0.00  0.00    +0.009 A 
ATOM     34  C   UNL     1       5.734  11.252   0.098  0.00  0.00    +0.010 A 
BRANCH  32  35
ATOM     35  C   UNL     1       5.422  14.995   0.135  0.00  0.00    -0.018 A 
ATOM     36  C   UNL     1       6.761  15.381   0.143  0.00  0.00    +0.008 A 
ATOM     37  C   UNL     1       7.090  16.722   0.150  0.00  0.00    +0.001 A 
ATOM     38  C   UNL     1       6.093  17.681   0.161  0.00  0.00    +0.000 A 
ATOM     39  C   UNL     1       4.763  17.303   0.158  0.00  0.00    +0.001 A 
ATOM     40  C   UNL     1       4.422  15.966   0.145  0.00  0.00    +0.008 A 
ENDBRANCH  32  35
ENDBRANCH  28  29
ENDBRANCH  25  27
ENDBRANCH   2  23
TORSDOF 7
