REMARK  Name = ZINC05237806
REMARK  7 active torsions:
REMARK  status: ('A' for Active; 'I' for Inactive)
REMARK    1  A    between atoms: C_1  and  C_2
REMARK    2  A    between atoms: C_2  and  N_3
REMARK    3  A    between atoms: N_3  and  C_4
REMARK    4  A    between atoms: C_10  and  C_12
REMARK    5  A    between atoms: C_12  and  S_13
REMARK    6  A    between atoms: S_13  and  C_14
REMARK    7  A    between atoms: C_26  and  C_30
REMARK                            x       y       z     vdW  Elec       q    Type
REMARK                         _______ _______ _______ _____ _____    ______ ____
ROOT
ATOM      1  C   UNL     1       0.521  -4.123  -3.328  0.00  0.00    +0.170 A 
ATOM      2  N   UNL     1      -0.504  -3.872  -2.467  0.00  0.00    -0.301 N 
ATOM      3  H   UNL     1      -1.202  -4.576  -2.338  0.00  0.00    +0.171 HD
ATOM      4  C   UNL     1      -0.622  -2.711  -1.780  0.00  0.00    +0.261 A 
ATOM      5  O   UNL     1      -1.548  -2.504  -1.014  0.00  0.00    -0.267 OA
ATOM      6  C   UNL     1       0.408  -1.742  -2.007  0.00  0.00    +0.075 A 
ATOM      7  C   UNL     1       0.514  -0.427  -1.397  0.00  0.00    -0.023 A 
ATOM      8  C   UNL     1       1.577   0.327  -1.760  0.00  0.00    -0.004 A 
ATOM      9  S   UNL     1       2.479  -0.669  -2.920  0.00  0.00    -0.073 S 
ATOM     10  C   UNL     1       1.433  -2.090  -2.917  0.00  0.00    +0.117 A 
ATOM     11  N   UNL     1       1.490  -3.249  -3.561  0.00  0.00    -0.216 NA
ATOM     12  C   UNL     1       1.918   1.705  -1.283  0.00  0.00    +0.046 C 
ATOM     13  C   UNL     1       1.083   2.006  -0.030  0.00  0.00    -0.009 C 
ATOM     14  C   UNL     1      -0.374   1.626  -0.311  0.00  0.00    +0.008 C 
ATOM     15  C   UNL     1      -0.507   0.105  -0.395  0.00  0.00    +0.037 C 
ATOM     16  C   UNL     1       1.170   3.498   0.298  0.00  0.00    +0.008 C 
ENDROOT
BRANCH   1  17
ATOM     17  S   UNL     1       0.561  -5.673  -4.164  0.00  0.00    -0.078 S 
BRANCH  17  18
ATOM     18  C   UNL     1       2.076  -5.468  -5.133  0.00  0.00    +0.173 C 
BRANCH  18  20
ATOM     19  N   UNL     1       3.398  -6.784  -6.758  0.00  0.00    -0.271 N 
ATOM     20  C   UNL     1       2.320  -6.709  -5.953  0.00  0.00    +0.230 C 
ATOM     21  O   UNL     1       1.546  -7.641  -5.888  0.00  0.00    -0.274 OA
BRANCH  19  22
ATOM     22  C   UNL     1       3.680  -7.972  -7.441  0.00  0.00    +0.036 A 
ATOM     23  C   UNL     1       4.074  -9.103  -6.737  0.00  0.00    +0.023 A 
ATOM     24  C   UNL     1       4.346 -10.275  -7.414  0.00  0.00    +0.002 A 
ATOM     25  C   UNL     1       4.239 -10.321  -8.792  0.00  0.00    +0.000 A 
ATOM     26  C   UNL     1       3.853  -9.195  -9.496  0.00  0.00    +0.002 A 
ATOM     27  C   UNL     1       3.573  -8.021  -8.825  0.00  0.00    +0.023 A 
ENDBRANCH  19  22
BRANCH  19  29
ATOM     28  C   UNL     1       5.380  -5.666  -5.861  0.00  0.00    +0.025 C 
ATOM     29  C   UNL     1       4.275  -5.621  -6.918  0.00  0.00    +0.110 C 
ENDBRANCH  19  29
ENDBRANCH  18  20
ENDBRANCH  17  18
ENDBRANCH   1  17
TORSDOF 5
