REMARK  Name = ZINC63704959
REMARK  10 active torsions:
REMARK  status: ('A' for Active; 'I' for Inactive)
REMARK    1  A    between atoms: C_1  and  C_2
REMARK    2  A    between atoms: C_2  and  C_3
REMARK    3  A    between atoms: C_2  and  C_4
REMARK    4  A    between atoms: C_4  and  C_5
REMARK    5  A    between atoms: C_5  and  N_6
REMARK    6  A    between atoms: C_7  and  C_9
REMARK    7  A    between atoms: C_20  and  C_25
REMARK    8  A    between atoms: N_27  and  C_28
REMARK    9  A    between atoms: C_28  and  C_29
REMARK   10  A    between atoms: C_28  and  C_30
REMARK                            x       y       z     vdW  Elec       q    Type
REMARK                         _______ _______ _______ _____ _____    ______ ____
ROOT
ATOM      1  C   UNL     1      -4.410  -4.401  -0.207  0.00  0.00    +0.039 A 
ATOM      2  C   UNL     1      -5.479  -3.507  -0.092  0.00  0.00    +0.014 A 
ATOM      3  C   UNL     1      -6.767  -3.965  -0.081  0.00  0.00    +0.016 A 
ATOM      4  C   UNL     1      -7.010  -5.334  -0.185  0.00  0.00    +0.065 A 
ATOM      5  C   UNL     1      -5.950  -6.237  -0.300  0.00  0.00    +0.062 A 
ATOM      6  C   UNL     1      -4.643  -5.769  -0.317  0.00  0.00    +0.040 A 
ATOM      7  N   UNL     1      -6.203  -7.620  -0.405  0.00  0.00    -0.284 N 
ATOM      8  C   UNL     1      -7.481  -8.044  -0.391  0.00  0.00    +0.142 A 
ATOM      9  N   UNL     1      -8.505  -7.214  -0.283  0.00  0.00    -0.193 NA
ATOM     10  C   UNL     1      -8.379  -5.887  -0.178  0.00  0.00    +0.281 A 
ATOM     11  O   UNL     1      -9.354  -5.163  -0.081  0.00  0.00    -0.265 OA
ATOM     12  C   UNL     1      -7.667  -9.564  -0.509  0.00  0.00    +0.205 C 
ATOM     13  S   UNL     1      -5.918 -10.108  -0.621  0.00  0.00    -0.079 S 
ATOM     14  C   UNL     1      -5.163  -8.501  -0.518  0.00  0.00    +0.128 C 
ATOM     15  S   UNL     1      -3.490  -8.135  -0.553  0.00  0.00    -0.025 S 
ENDROOT
BRANCH   1  17
ATOM     16  N   UNL     1      -2.790  -2.565  -0.111  0.00  0.00    -0.311 N 
ATOM     17  C   UNL     1      -3.021  -3.888  -0.217  0.00  0.00    +0.244 C 
ATOM     18  O   UNL     1      -2.089  -4.661  -0.322  0.00  0.00    -0.270 OA
ATOM     19  H   UNL     1      -3.534  -1.948  -0.027  0.00  0.00    +0.149 HD
BRANCH  16  20
ATOM     20  C   UNL     1      -1.416  -2.058  -0.121  0.00  0.00    +0.105 C 
BRANCH  20  21
ATOM     21  C   UNL     1      -1.433  -0.534   0.013  0.00  0.00    +0.022 C 
BRANCH  21  23
ATOM     22  C   UNL     1      -0.019   1.526   0.010  0.00  0.00    +0.007 C 
ATOM     23  C   UNL     1       0.002  -0.004   0.002  0.00  0.00    -0.016 C 
ATOM     24  C   UNL     1       0.742  -0.511   1.242  0.00  0.00    +0.007 C 
ENDBRANCH  21  23
ENDBRANCH  20  21
ENDBRANCH  16  20
ENDBRANCH   1  17
BRANCH  12  25
ATOM     25  C   UNL     1      -8.336 -10.128   0.718  0.00  0.00    +0.234 C 
ATOM     26  O   UNL     1      -8.175  -9.596   1.796  0.00  0.00    -0.274 OA
ATOM     27  N   UNL     1      -9.115 -11.223   0.617  0.00  0.00    -0.312 N 
ATOM     28  H   UNL     1      -9.244 -11.649  -0.245  0.00  0.00    +0.149 HD
BRANCH  27  29
ATOM     29  C   UNL     1      -9.766 -11.772   1.809  0.00  0.00    +0.067 C 
ATOM     30  C   UNL     1     -11.085 -11.037   2.053  0.00  0.00    +0.027 C 
ATOM     31  C   UNL     1     -10.043 -13.262   1.599  0.00  0.00    +0.027 C 
ENDBRANCH  27  29
ENDBRANCH  12  25
TORSDOF 6
