REMARK  Name = ZINC39227476
REMARK  8 active torsions:
REMARK  status: ('A' for Active; 'I' for Inactive)
REMARK    1  A    between atoms: C_1  and  C_2
REMARK    2  A    between atoms: C_2  and  C_3
REMARK    3  A    between atoms: C_2  and  N_4
REMARK    4  A    between atoms: C_15  and  C_20
REMARK    5  A    between atoms: C_24  and  C_26
REMARK    6  A    between atoms: N_28  and  C_29
REMARK    7  A    between atoms: C_29  and  C_30
REMARK    8  A    between atoms: C_30  and  C_31
REMARK                            x       y       z     vdW  Elec       q    Type
REMARK                         _______ _______ _______ _____ _____    ______ ____
ROOT
ATOM      1  N   UNL     1      -1.376  -0.512   0.012  0.00  0.00    +0.381 N 
ATOM      2  C   UNL     1      -1.354  -1.980   0.014  0.00  0.00    -0.075 C 
ATOM      3  C   UNL     1      -2.785  -2.515   0.107  0.00  0.00    +0.030 C 
ATOM      4  C   UNL     1      -3.591  -2.013  -1.093  0.00  0.00    +0.114 C 
ATOM      5  C   UNL     1      -3.544  -0.484  -1.129  0.00  0.00    +0.030 C 
ATOM      6  C   UNL     1      -2.085  -0.025  -1.177  0.00  0.00    -0.075 C 
ATOM      7  C   UNL     1      -5.050  -2.472  -0.954  0.00  0.00    +0.127 C 
ATOM      8  C   UNL     1      -5.795  -1.968  -2.177  0.00  0.00    +0.170 C 
ATOM      9  O   UNL     1      -6.921  -1.524  -2.100  0.00  0.00    -0.292 OA
ATOM     10  C   UNL     1      -5.078  -2.045  -3.463  0.00  0.00    +0.060 A 
ATOM     11  C   UNL     1      -5.752  -1.839  -4.666  0.00  0.00    +0.023 A 
ATOM     12  C   UNL     1      -5.053  -1.912  -5.864  0.00  0.00    -0.017 A 
ATOM     13  C   UNL     1      -3.684  -2.190  -5.856  0.00  0.00    +0.012 A 
ATOM     14  C   UNL     1      -3.017  -2.396  -4.668  0.00  0.00    +0.047 A 
ATOM     15  C   UNL     1      -3.701  -2.328  -3.461  0.00  0.00    +0.132 A 
ATOM     16  O   UNL     1      -3.040  -2.540  -2.298  0.00  0.00    -0.485 OA
ATOM     17  H   UNL     1      -1.848  -0.184   0.842  0.00  0.00    -0.081 HD
ENDROOT
BRANCH  12  18
ATOM     18  C   UNL     1      -5.759  -1.695  -7.151  0.00  0.00    -0.017 A 
ATOM     19  C   UNL     1      -7.124  -1.411  -7.159  0.00  0.00    +0.008 A 
ATOM     20  C   UNL     1      -7.784  -1.208  -8.355  0.00  0.00    +0.001 A 
ATOM     21  C   UNL     1      -7.098  -1.285  -9.550  0.00  0.00    +0.013 A 
ATOM     22  C   UNL     1      -5.731  -1.568  -9.556  0.00  0.00    +0.037 A 
ATOM     23  C   UNL     1      -5.059  -1.768  -8.351  0.00  0.00    +0.021 A 
BRANCH  22  24
ATOM     24  C   UNL     1      -4.996  -1.650 -10.836  0.00  0.00    +0.244 C 
ATOM     25  O   UNL     1      -3.805  -1.897 -10.839  0.00  0.00    -0.270 OA
ATOM     26  N   UNL     1      -5.646  -1.452 -12.000  0.00  0.00    -0.311 N 
ATOM     27  H   UNL     1      -6.595  -1.256 -11.998  0.00  0.00    +0.149 HD
BRANCH  26  28
ATOM     28  C   UNL     1      -4.917  -1.534 -13.269  0.00  0.00    +0.109 C 
BRANCH  28  29
ATOM     29  C   UNL     1      -5.881  -1.271 -14.428  0.00  0.00    +0.054 C 
BRANCH  29  30
ATOM     30  C   UNL     1      -5.132  -1.355 -15.733  0.00  0.00    -0.043 A 
ATOM     31  C   UNL     1      -4.541  -0.224 -16.264  0.00  0.00    +0.004 A 
ATOM     32  C   UNL     1      -3.854  -0.299 -17.461  0.00  0.00    +0.003 A 
ATOM     33  C   UNL     1      -3.757  -1.506 -18.128  0.00  0.00    +0.038 A 
ATOM     34  C   UNL     1      -4.348  -2.639 -17.597  0.00  0.00    +0.124 A 
ATOM     35  C   UNL     1      -5.031  -2.564 -16.394  0.00  0.00    +0.042 A 
ATOM     36  F   UNL     1      -4.254  -3.820 -18.248  0.00  0.00    -0.205 F 
ENDBRANCH  29  30
ENDBRANCH  28  29
ENDBRANCH  26  28
ENDBRANCH  22  24
ENDBRANCH  12  18
BRANCH   1  38
ATOM     37  C   UNL     1      -0.019   1.526   0.010  0.00  0.00    -0.014 C 
ATOM     38  C   UNL     1       0.002  -0.004   0.002  0.00  0.00    -0.075 C 
ATOM     39  C   UNL     1       0.742  -0.511   1.242  0.00  0.00    -0.014 C 
ENDBRANCH   1  38
TORSDOF 6
