REMARK  Name = ZINC39659689
REMARK  7 active torsions:
REMARK  status: ('A' for Active; 'I' for Inactive)
REMARK    1  A    between atoms: C_1  and  C_2
REMARK    2  A    between atoms: C_2  and  C_31
REMARK    3  A    between atoms: C_5  and  C_8
REMARK    4  A    between atoms: C_8  and  N_9
REMARK    5  A    between atoms: C_10  and  C_12
REMARK    6  A    between atoms: C_23  and  C_25
REMARK    7  A    between atoms: N_29  and  C_30
REMARK                            x       y       z     vdW  Elec       q    Type
REMARK                         _______ _______ _______ _____ _____    ______ ____
ROOT
ATOM      1  C   UNL     1       2.733  -3.687   4.631  0.00  0.00    +0.100 C 
ATOM      2  C   UNL     1       3.375  -5.011   4.159  0.00  0.00    +0.121 C 
ATOM      3  N   UNL     1       4.426  -5.296   5.163  0.00  0.00    -0.295 N 
ATOM      4  C   UNL     1       3.815  -4.907   6.457  0.00  0.00    +0.115 C 
ATOM      5  C   UNL     1       3.024  -3.623   6.139  0.00  0.00    -0.004 C 
ATOM      6  C   UNL     1       3.864  -2.392   6.464  0.00  0.00    -0.010 C 
ATOM      7  C   UNL     1       4.092  -2.319   7.976  0.00  0.00    -0.082 C 
ATOM      8  N   UNL     1       2.797  -2.249   8.665  0.00  0.00    +0.379 N 
ATOM      9  C   UNL     1       2.033  -3.478   8.423  0.00  0.00    -0.082 C 
ATOM     10  C   UNL     1       1.718  -3.600   6.929  0.00  0.00    -0.010 C 
ATOM     11  C   UNL     1       5.659  -5.796   4.949  0.00  0.00    +0.265 C 
ATOM     12  O   UNL     1       6.341  -6.159   5.890  0.00  0.00    -0.268 OA
ATOM     13  H   UNL     1       2.951  -2.140   9.656  0.00  0.00    -0.086 HD
ATOM     14  H   UNL     1       2.276  -1.457   8.319  0.00  0.00    -0.086 HD
ENDROOT
BRANCH  11  15
ATOM     15  C   UNL     1       6.180  -5.904   3.582  0.00  0.00    +0.124 A 
ATOM     16  C   UNL     1       5.704  -5.267   2.470  0.00  0.00    +0.143 A 
ATOM     17  N   UNL     1       6.457  -5.637   1.435  0.00  0.00    -0.243 NA
ATOM     18  C   UNL     1       7.380  -6.472   1.837  0.00  0.00    +0.199 A 
ATOM     19  N   UNL     1       7.254  -6.666   3.162  0.00  0.00    -0.330 N 
ATOM     20  C   UNL     1       8.094  -7.524   4.000  0.00  0.00    +0.150 C 
ENDBRANCH  11  15
BRANCH   1  22
ATOM     21  N   UNL     1       0.573  -2.550   4.231  0.00  0.00    -0.312 N 
ATOM     22  C   UNL     1       1.246  -3.708   4.383  0.00  0.00    +0.218 C 
ATOM     23  O   UNL     1       0.656  -4.766   4.321  0.00  0.00    -0.275 OA
ATOM     24  H   UNL     1       1.044  -1.704   4.282  0.00  0.00    +0.149 HD
BRANCH  21  25
ATOM     25  C   UNL     1      -0.873  -2.570   3.991  0.00  0.00    +0.138 C 
BRANCH  25  30
ATOM     26  C   UNL     1      -2.926   0.789   6.431  0.00  0.00    +0.074 C 
ATOM     27  C   UNL     1      -2.305   0.587   5.047  0.00  0.00    +0.165 C 
ATOM     28  O   UNL     1      -3.316   0.168   4.121  0.00  0.00    -0.347 OA
ATOM     29  C   UNL     1      -2.915  -1.116   3.601  0.00  0.00    +0.196 C 
ATOM     30  C   UNL     1      -1.387  -1.136   3.857  0.00  0.00    +0.164 C 
ATOM     31  O   UNL     1      -1.290  -0.429   5.117  0.00  0.00    -0.342 OA
ATOM     32  C   UNL     1      -1.684   1.900   4.566  0.00  0.00    +0.074 C 
ENDBRANCH  25  30
ENDBRANCH  21  25
ENDBRANCH   1  22
TORSDOF 4
