REMARK  Name = ZINC09592098
REMARK  6 active torsions:
REMARK  status: ('A' for Active; 'I' for Inactive)
REMARK    1  A    between atoms: C_1  and  C_2
REMARK    2  A    between atoms: C_11  and  C_13
REMARK    3  A    between atoms: C_13  and  N_55
REMARK    4  A    between atoms: C_19  and  C_21
REMARK    5  A    between atoms: C_24  and  O_27
REMARK    6  A    between atoms: O_27  and  C_28
REMARK                            x       y       z     vdW  Elec       q    Type
REMARK                         _______ _______ _______ _____ _____    ______ ____
ROOT
ATOM      1  C   UNL     1      -2.320   0.992   2.859  0.00  0.00    -0.077 C 
ATOM      2  C   UNL     1      -2.621   1.951   3.983  0.00  0.00    -0.019 C 
ATOM      3  C   UNL     1      -3.676   1.382   4.947  0.00  0.00    -0.002 C 
ATOM      4  C   UNL     1      -4.814   0.661   4.196  0.00  0.00    -0.001 C 
ATOM      5  C   UNL     1      -5.251   1.401   2.958  0.00  0.00    -0.011 C 
ATOM      6  C   UNL     1      -4.465   0.860   1.744  0.00  0.00    -0.037 C 
ATOM      7  N   UNL     1      -3.159   1.417   1.695  0.00  0.00    +0.388 N 
ATOM      8  H   UNL     1      -3.244   2.440   1.714  0.00  0.00    -0.080 HD
ENDROOT
BRANCH   6   9
ATOM      9  C   UNL     1      -5.182   1.254   0.478  0.00  0.00    -0.061 A 
ATOM     10  C   UNL     1      -5.000   2.518  -0.053  0.00  0.00    +0.005 A 
ATOM     11  C   UNL     1      -5.653   2.880  -1.216  0.00  0.00    +0.046 A 
ATOM     12  C   UNL     1      -6.499   1.979  -1.844  0.00  0.00    +0.120 A 
ATOM     13  C   UNL     1      -6.684   0.714  -1.306  0.00  0.00    +0.046 A 
ATOM     14  C   UNL     1      -6.026   0.354  -0.146  0.00  0.00    +0.005 A 
BRANCH  12  15
ATOM     15  O   UNL     1      -7.146   2.334  -2.985  0.00  0.00    -0.495 OA
ATOM     16  C   UNL     1      -6.908   3.653  -3.482  0.00  0.00    +0.277 C 
ENDBRANCH  12  15
ENDBRANCH   6   9
BRANCH   7  17
ATOM     17  C   UNL     1      -2.501   1.015   0.439  0.00  0.00    -0.021 C 
BRANCH  17  28
ATOM     18  C   UNL     1       3.608   3.159  -0.015  0.00  0.00    +0.064 C 
ATOM     19  C   UNL     1       2.282   3.874   0.001  0.00  0.00    +0.025 A 
ATOM     20  C   UNL     1       2.249   5.223  -0.095  0.00  0.00    +0.021 A 
ATOM     21  C   UNL     1       1.022   5.900  -0.080  0.00  0.00    +0.005 A 
ATOM     22  C   UNL     1      -0.136   5.190   0.031  0.00  0.00    +0.047 A 
ATOM     23  C   UNL     1      -0.082   3.788   0.129  0.00  0.00    +0.141 A 
ATOM     24  N   UNL     1       1.131   3.156   0.112  0.00  0.00    -0.265 N 
ATOM     25  C   UNL     1       1.189   1.810   0.205  0.00  0.00    +0.259 A 
ATOM     26  O   UNL     1       2.266   1.234   0.192  0.00  0.00    -0.267 OA
ATOM     27  C   UNL     1      -0.003   1.086   0.318  0.00  0.00    +0.092 A 
ATOM     28  C   UNL     1      -1.203   1.771   0.325  0.00  0.00    +0.032 A 
ATOM     29  N   UNL     1      -1.212   3.092   0.237  0.00  0.00    -0.236 NA
ENDBRANCH  17  28
ENDBRANCH   7  17
TORSDOF 4
