REMARK  Name = ZINC04598706
REMARK  7 active torsions:
REMARK  status: ('A' for Active; 'I' for Inactive)
REMARK    1  A    between atoms: C_1  and  N_2
REMARK    2  A    between atoms: N_9  and  C_12
REMARK    3  A    between atoms: N_13  and  C_22
REMARK    4  A    between atoms: N_15  and  C_16
REMARK    5  A    between atoms: C_16  and  C_17
REMARK    6  A    between atoms: C_22  and  C_23
REMARK    7  A    between atoms: C_23  and  C_24
REMARK                            x       y       z     vdW  Elec       q    Type
REMARK                         _______ _______ _______ _____ _____    ______ ____
ROOT
ATOM      1  C   UNL     1      -4.110   2.743   2.102  0.00  0.00    +0.136 C 
ATOM      2  N   UNL     1      -2.655   2.575   2.077  0.00  0.00    -0.266 N 
ATOM      3  C   UNL     1      -1.787   3.256   2.999  0.00  0.00    +0.203 C 
ATOM      4  C   UNL     1      -0.776   2.193   3.537  0.00  0.00    +0.203 C 
ATOM      5  C   UNL     1       0.026   1.784   2.347  0.00  0.00    +0.247 C 
ATOM      6  O   UNL     1       1.232   1.662   2.385  0.00  0.00    -0.273 OA
ATOM      7  N   UNL     1      -0.698   1.558   1.213  0.00  0.00    -0.227 N 
ATOM      8  C   UNL     1      -2.030   1.765   1.175  0.00  0.00    +0.312 C 
ATOM      9  O   UNL     1      -2.692   1.213   0.319  0.00  0.00    -0.252 OA
ATOM     10  C   UNL     1      -0.013   1.086   0.008  0.00  0.00    +0.143 C 
ATOM     11  N   UNL     1      -0.163   3.026   4.569  0.00  0.00    -0.290 N 
ATOM     12  C   UNL     1      -1.256   3.709   5.110  0.00  0.00    +0.159 C 
ATOM     13  N   UNL     1      -1.301   4.186   6.399  0.00  0.00    -0.311 N 
ATOM     14  H   UNL     1      -0.545   4.056   6.992  0.00  0.00    +0.149 HD
ATOM     15  N   UNL     1      -2.225   3.836   4.235  0.00  0.00    -0.341 N 
ATOM     16  H   UNL     1      -3.138   4.274   4.405  0.00  0.00    +0.164 HD
ENDROOT
BRANCH  13  17
ATOM     17  C   UNL     1      -2.493   4.892   6.877  0.00  0.00    +0.178 C 
BRANCH  17  18
ATOM     18  C   UNL     1      -2.289   5.308   8.311  0.00  0.00    +0.122 A 
ATOM     19  C   UNL     1      -1.756   6.472   8.724  0.00  0.00    +0.046 A 
ATOM     20  C   UNL     1      -1.754   6.443  10.137  0.00  0.00    +0.041 A 
ATOM     21  C   UNL     1      -2.286   5.263  10.504  0.00  0.00    +0.195 A 
ATOM     22  O   UNL     1      -2.613   4.582   9.393  0.00  0.00    -0.466 OA
ENDBRANCH  17  18
ENDBRANCH  13  17
BRANCH  11  23
ATOM     23  C   UNL     1       1.250   3.122   4.944  0.00  0.00    +0.113 C 
BRANCH  23  24
ATOM     24  C   UNL     1       1.926   4.213   4.112  0.00  0.00    +0.054 C 
BRANCH  24  25
ATOM     25  C   UNL     1       3.380   4.311   4.498  0.00  0.00    -0.046 A 
ATOM     26  C   UNL     1       3.770   5.171   5.508  0.00  0.00    +0.004 A 
ATOM     27  C   UNL     1       5.103   5.258   5.865  0.00  0.00    +0.000 A 
ATOM     28  C   UNL     1       6.046   4.492   5.206  0.00  0.00    +0.000 A 
ATOM     29  C   UNL     1       5.656   3.637   4.192  0.00  0.00    +0.000 A 
ATOM     30  C   UNL     1       4.323   3.546   3.838  0.00  0.00    +0.004 A 
ENDBRANCH  24  25
ENDBRANCH  23  24
ENDBRANCH  11  23
TORSDOF 5
