REMARK  Name = ZINC39354486
REMARK  6 active torsions:
REMARK  status: ('A' for Active; 'I' for Inactive)
REMARK    1  A    between atoms: C_4  and  C_7
REMARK    2  A    between atoms: C_7  and  O_8
REMARK    3  A    between atoms: O_8  and  C_9
REMARK    4  A    between atoms: C_10  and  C_17
REMARK    5  A    between atoms: N_18  and  N_19
REMARK    6  A    between atoms: N_19  and  C_20
REMARK                            x       y       z     vdW  Elec       q    Type
REMARK                         _______ _______ _______ _____ _____    ______ ____
ROOT
ATOM      1  C   UNL     1       5.186  -1.753   1.670  0.00  0.00    +0.144 A 
ATOM      2  C   UNL     1       5.123  -3.152   1.621  0.00  0.00    +0.038 A 
ATOM      3  C   UNL     1       6.301  -3.899   1.678  0.00  0.00    +0.028 A 
ATOM      4  C   UNL     1       7.519  -3.256   1.782  0.00  0.00    +0.020 A 
ATOM      5  C   UNL     1       7.576  -1.874   1.830  0.00  0.00    +0.034 A 
ATOM      6  C   UNL     1       6.415  -1.123   1.769  0.00  0.00    +0.061 A 
ATOM      7 BR   UNL     1       6.508   0.765   1.829  0.00  0.00    -0.046 Br
ATOM      8 BR   UNL     1       9.114  -4.269   1.859  0.00  0.00    -0.050 Br
ENDROOT
BRANCH   2   9
ATOM      9  C   UNL     1       3.819  -3.832   1.510  0.00  0.00    +0.141 C 
ATOM     10  N   UNL     1       2.732  -3.134   1.391  0.00  0.00    -0.191 NA
BRANCH  10  11
ATOM     11  N   UNL     1       1.496  -3.780   1.258  0.00  0.00    -0.229 N 
ATOM     12  H   UNL     1       1.444  -4.746   1.329  0.00  0.00    +0.172 HD
BRANCH  11  13
ATOM     13  C   UNL     1       0.282  -2.997   1.011  0.00  0.00    +0.283 C 
ATOM     14  N   UNL     1      -0.073  -3.053  -0.412  0.00  0.00    -0.347 N 
ATOM     15  C   UNL     1      -1.254  -3.594  -0.499  0.00  0.00    +0.061 A 
ATOM     16  C   UNL     1      -2.126  -3.912  -1.638  0.00  0.00    +0.027 A 
ATOM     17  C   UNL     1      -3.326  -4.485  -1.417  0.00  0.00    +0.002 A 
ATOM     18  C   UNL     1      -3.791  -4.799  -0.127  0.00  0.00    +0.002 A 
ATOM     19  C   UNL     1      -3.071  -4.550   0.985  0.00  0.00    +0.027 A 
ATOM     20  C   UNL     1      -1.746  -3.926   0.866  0.00  0.00    +0.061 A 
ATOM     21  N   UNL     1      -0.850  -3.578   1.744  0.00  0.00    -0.347 N 
ATOM     22  H   UNL     1       0.472  -2.744  -1.152  0.00  0.00    +0.163 HD
ATOM     23  H   UNL     1      -0.917  -3.683   2.706  0.00  0.00    +0.163 HD
ENDBRANCH  11  13
ENDBRANCH  10  11
ENDBRANCH   2   9
BRANCH   1  24
ATOM     24  O   UNL     1       4.045  -1.017   1.615  0.00  0.00    -0.486 OA
BRANCH  24  25
ATOM     25  C   UNL     1       3.544  -0.503   2.851  0.00  0.00    +0.264 C 
BRANCH  25  29
ATOM     26  C   UNL     1       0.184   2.022   2.088  0.00  0.00    +0.000 A 
ATOM     27  C   UNL     1      -0.011   0.730   2.540  0.00  0.00    +0.000 A 
ATOM     28  C   UNL     1       1.077  -0.087   2.786  0.00  0.00    +0.007 A 
ATOM     29  C   UNL     1       2.358   0.388   2.581  0.00  0.00    -0.010 A 
ATOM     30  C   UNL     1       2.553   1.679   2.128  0.00  0.00    +0.007 A 
ATOM     31  C   UNL     1       1.466   2.497   1.883  0.00  0.00    +0.000 A 
ENDBRANCH  25  29
ENDBRANCH  24  25
ENDBRANCH   1  24
TORSDOF 6
