REMARK  Name = ZINC14992264
REMARK  11 active torsions:
REMARK  status: ('A' for Active; 'I' for Inactive)
REMARK    1  A    between atoms: C_1  and  C_2
REMARK    2  A    between atoms: C_2  and  C_3
REMARK    3  A    between atoms: C_3  and  C_4
REMARK    4  A    between atoms: C_4  and  C_19
REMARK    5  A    between atoms: N_7  and  C_11
REMARK    6  A    between atoms: C_11  and  C_12
REMARK    7  A    between atoms: C_12  and  C_13
REMARK    8  A    between atoms: C_24  and  C_25
REMARK    9  A    between atoms: C_24  and  N_74
REMARK   10  A    between atoms: C_33  and  C_34
REMARK   11  A    between atoms: C_33  and  C_35
REMARK                            x       y       z     vdW  Elec       q    Type
REMARK                         _______ _______ _______ _____ _____    ______ ____
ROOT
ATOM      1  C   UNL     1       1.396   3.585   0.008  0.00  0.00    +0.115 C 
ATOM      2  C   UNL     1       0.738   4.103   1.272  0.00  0.00    +0.247 C 
ATOM      3  O   UNL     1       1.107   3.928   2.413  0.00  0.00    -0.273 OA
ATOM      4  N   UNL     1      -0.341   4.799   0.863  0.00  0.00    -0.224 N 
ATOM      5  C   UNL     1      -0.455   4.793  -0.470  0.00  0.00    +0.309 C 
ATOM      6  O   UNL     1      -1.349   5.353  -1.074  0.00  0.00    -0.252 OA
ATOM      7  N   UNL     1       0.533   4.098  -1.070  0.00  0.00    -0.285 N 
ATOM      8  H   UNL     1       0.653   3.961  -2.023  0.00  0.00    +0.151 HD
ENDROOT
BRANCH   1   9
ATOM      9  C   UNL     1       2.815   4.142  -0.128  0.00  0.00    +0.018 C 
ATOM     10  C   UNL     1       3.701   3.558   0.976  0.00  0.00    -0.013 C 
ATOM     11  C   UNL     1       5.102   4.165   0.873  0.00  0.00    -0.078 C 
ATOM     12  C   UNL     1       4.209   6.212  -0.067  0.00  0.00    -0.078 C 
ATOM     13  C   UNL     1       2.781   5.667   0.009  0.00  0.00    -0.013 C 
ATOM     14  N   UNL     1       5.003   5.631   1.036  0.00  0.00    +0.382 N 
ATOM     15  H   UNL     1       4.536   5.836   1.927  0.00  0.00    -0.081 HD
BRANCH  14  16
ATOM     16  C   UNL     1       6.355   6.229   1.054  0.00  0.00    -0.047 C 
BRANCH  16  17
ATOM     17  C   UNL     1       7.064   5.787   2.308  0.00  0.00    -0.086 C 
ATOM     18  C   UNL     1       7.875   4.754   2.305  0.00  0.00    -0.029 C 
ATOM     19  C   UNL     1       8.596   4.352   3.588  0.00  0.00    +0.031 C 
ATOM     20  C   UNL     1       8.103   5.245   4.734  0.00  0.00    -0.000 C 
ATOM     21  C   UNL     1       8.204   6.736   4.351  0.00  0.00    +0.012 C 
ATOM     22  C   UNL     1       6.863   6.514   3.626  0.00  0.00    +0.019 C 
ATOM     23  C   UNL     1       6.581   5.467   4.731  0.00  0.00    -0.025 C 
ATOM     24  C   UNL     1       6.040   6.068   6.030  0.00  0.00    +0.012 C 
ATOM     25  C   UNL     1       5.779   4.257   4.248  0.00  0.00    +0.012 C 
ENDBRANCH  16  17
ENDBRANCH  14  16
ENDBRANCH   1   9
BRANCH   1  26
ATOM     26  C   UNL     1       1.417   2.055  -0.000  0.00  0.00    +0.035 C 
BRANCH  26  28
ATOM     27  C   UNL     1       0.002  -0.004   0.002  0.00  0.00    +0.004 C 
ATOM     28  C   UNL     1      -0.019   1.526   0.010  0.00  0.00    -0.001 C 
ENDBRANCH  26  28
ENDBRANCH   1  26
BRANCH   4  29
ATOM     29  C   UNL     1      -1.273   5.478   1.766  0.00  0.00    +0.124 C 
BRANCH  29  30
ATOM     30  C   UNL     1      -0.797   6.912   2.005  0.00  0.00    +0.075 C 
BRANCH  30  31
ATOM     31  C   UNL     1      -1.756   7.612   2.934  0.00  0.00    +0.043 A 
ATOM     32  C   UNL     1      -1.280   8.196   4.093  0.00  0.00    +0.023 A 
ATOM     33  C   UNL     1      -2.171   8.837   4.940  0.00  0.00    +0.003 A 
ATOM     34  C   UNL     1      -3.512   8.866   4.589  0.00  0.00    +0.020 A 
ATOM     35  C   UNL     1      -3.913   8.260   3.414  0.00  0.00    +0.111 A 
ATOM     36  N   UNL     1      -3.037   7.663   2.629  0.00  0.00    -0.260 NA
ENDBRANCH  30  31
ENDBRANCH  29  30
ENDBRANCH   4  29
TORSDOF 8
