REMARK  Name = ZINC16431289
REMARK  15 active torsions:
REMARK  status: ('A' for Active; 'I' for Inactive)
REMARK    1  A    between atoms: C_1  and  C_2
REMARK    2  A    between atoms: C_2  and  C_4
REMARK    3  A    between atoms: C_2  and  N_19
REMARK    4  A    between atoms: N_14  and  C_15
REMARK    5  A    between atoms: C_15  and  C_16
REMARK    6  A    between atoms: C_16  and  O_17
REMARK    7  A    between atoms: O_17  and  C_18
REMARK    8  A    between atoms: N_19  and  C_20
REMARK    9  A    between atoms: N_19  and  S_25
REMARK   10  A    between atoms: C_20  and  C_21
REMARK   11  A    between atoms: C_21  and  C_22
REMARK   12  A    between atoms: C_22  and  O_23
REMARK   13  A    between atoms: O_23  and  C_24
REMARK   14  A    between atoms: S_25  and  C_28
REMARK   15  A    between atoms: C_31  and  N_34
REMARK                            x       y       z     vdW  Elec       q    Type
REMARK                         _______ _______ _______ _____ _____    ______ ____
ROOT
ATOM      1  N   UNL     1      -0.348  -0.439   0.278  0.00  0.00    -0.166 NA
ENDROOT
BRANCH   1   2
ATOM      2  S   UNL     1      -0.241   1.211   0.198  0.00  0.00    +0.061 S 
ATOM      3  O   UNL     1      -0.908   1.604  -0.995  0.00  0.00    -0.153 OA
ATOM      4  O   UNL     1      -0.614   1.705   1.477  0.00  0.00    -0.153 OA
BRANCH   2   5
ATOM      5  C   UNL     1       1.460   1.612  -0.022  0.00  0.00    +0.106 A 
ATOM      6  C   UNL     1       2.268   1.824   1.080  0.00  0.00    +0.031 A 
ATOM      7  C   UNL     1       3.604   2.135   0.908  0.00  0.00    +0.034 A 
ATOM      8  C   UNL     1       4.130   2.243  -0.365  0.00  0.00    +0.126 A 
ATOM      9  C   UNL     1       3.322   2.036  -1.467  0.00  0.00    +0.034 A 
ATOM     10  C   UNL     1       1.987   1.721  -1.295  0.00  0.00    +0.031 A 
BRANCH   8  11
ATOM     11  N   UNL     1       5.560   2.580  -0.549  0.00  0.00    +0.056 N 
ATOM     12  O   UNL     1       6.024   2.675  -1.672  0.00  0.00    -0.126 OA
ATOM     13  O   UNL     1       6.272   2.762   0.421  0.00  0.00    -0.126 OA
ENDBRANCH   8  11
ENDBRANCH   2   5
ENDBRANCH   1   2
BRANCH   1  15
ATOM     14  C   UNL     1      -1.593  -1.753   1.923  0.00  0.00    +0.034 C 
ATOM     15  C   UNL     1      -0.246  -1.118   1.573  0.00  0.00    +0.143 C 
BRANCH  15  16
ATOM     16  C   UNL     1       0.810  -2.190   1.496  0.00  0.00    +0.132 A 
ATOM     17  N   UNL     1       0.592  -3.215   0.729  0.00  0.00    -0.232 NA
ATOM     18  C   UNL     1       1.500  -4.216   0.606  0.00  0.00    +0.078 A 
ATOM     19  C   UNL     1       1.269  -5.316  -0.223  0.00  0.00    +0.028 A 
ATOM     20  C   UNL     1       2.215  -6.311  -0.314  0.00  0.00    +0.002 A 
ATOM     21  C   UNL     1       3.399  -6.236   0.408  0.00  0.00    +0.001 A 
ATOM     22  C   UNL     1       3.650  -5.161   1.232  0.00  0.00    +0.015 A 
ATOM     23  C   UNL     1       2.705  -4.143   1.339  0.00  0.00    +0.065 A 
ATOM     24  C   UNL     1       2.917  -2.971   2.202  0.00  0.00    +0.262 A 
ATOM     25  O   UNL     1       3.934  -2.847   2.860  0.00  0.00    -0.267 OA
ATOM     26  N   UNL     1       1.939  -2.037   2.236  0.00  0.00    -0.293 N 
BRANCH  26  27
ATOM     27  C   UNL     1       2.098  -0.850   3.079  0.00  0.00    +0.154 C 
BRANCH  27  28
ATOM     28  C   UNL     1       1.398  -1.078   4.420  0.00  0.00    +0.181 C 
BRANCH  28  29
ATOM     29  O   UNL     1       2.033  -2.155   5.112  0.00  0.00    -0.381 OA
ATOM     30  C   UNL     1       1.452  -2.452   6.383  0.00  0.00    +0.194 C 
ENDBRANCH  28  29
ENDBRANCH  27  28
ENDBRANCH  26  27
ENDBRANCH  15  16
ENDBRANCH   1  15
BRANCH   1  31
ATOM     31  C   UNL     1      -0.546  -1.221  -0.945  0.00  0.00    +0.112 C 
BRANCH  31  32
ATOM     32  C   UNL     1       0.815  -1.604  -1.531  0.00  0.00    +0.045 C 
BRANCH  32  33
ATOM     33  C   UNL     1       0.610  -2.354  -2.848  0.00  0.00    +0.161 C 
BRANCH  33  34
ATOM     34  O   UNL     1       1.881  -2.711  -3.396  0.00  0.00    -0.383 OA
ATOM     35  C   UNL     1       1.802  -3.421  -4.634  0.00  0.00    +0.193 C 
ENDBRANCH  33  34
ENDBRANCH  32  33
ENDBRANCH  31  32
ENDBRANCH   1  31
TORSDOF 12
