REMARK  Name = ZINC05195808
REMARK  10 active torsions:
REMARK  status: ('A' for Active; 'I' for Inactive)
REMARK    1  A    between atoms: C_1  and  C_2
REMARK    2  A    between atoms: C_2  and  C_31
REMARK    3  A    between atoms: C_3  and  C_4
REMARK    4  A    between atoms: C_4  and  C_5
REMARK    5  A    between atoms: C_9  and  O_30
REMARK    6  A    between atoms: C_15  and  C_16
REMARK    7  A    between atoms: C_19  and  O_23
REMARK    8  A    between atoms: C_21  and  O_22
REMARK    9  A    between atoms: C_26  and  C_28
REMARK   10  A    between atoms: C_26  and  C_29
REMARK                            x       y       z     vdW  Elec       q    Type
REMARK                         _______ _______ _______ _____ _____    ______ ____
ROOT
ATOM      1  C   UNL     1      -0.847  -0.513   3.435  0.00  0.00    +0.047 A 
ATOM      2  C   UNL     1      -2.191  -0.079   3.460  0.00  0.00    +0.200 A 
ATOM      3  O   UNL     1      -2.567   0.859   2.774  0.00  0.00    -0.287 OA
ATOM      4  C   UNL     1      -3.122  -0.800   4.345  0.00  0.00    +0.106 A 
ATOM      5  C   UNL     1      -4.473  -0.435   4.431  0.00  0.00    +0.135 A 
ATOM      6  C   UNL     1      -5.326  -1.130   5.272  0.00  0.00    +0.092 A 
ATOM      7  C   UNL     1      -4.848  -2.188   6.028  0.00  0.00    +0.136 A 
ATOM      8  C   UNL     1      -3.498  -2.562   5.949  0.00  0.00    +0.060 A 
ATOM      9  C   UNL     1      -2.627  -1.870   5.107  0.00  0.00    +0.153 A 
ATOM     10  O   UNL     1      -1.326  -2.212   5.017  0.00  0.00    -0.453 OA
ATOM     11  C   UNL     1      -0.468  -1.567   4.211  0.00  0.00    +0.146 A 
ATOM     12  C   UNL     1      -3.033  -3.697   6.773  0.00  0.00    +0.015 C 
ATOM     13  C   UNL     1      -3.949  -4.516   7.287  0.00  0.00    +0.020 C 
ATOM     14  C   UNL     1      -5.410  -4.277   7.012  0.00  0.00    +0.124 C 
ATOM     15  O   UNL     1      -5.669  -2.881   6.857  0.00  0.00    -0.481 OA
ATOM     16  C   UNL     1      -5.809  -5.009   5.729  0.00  0.00    +0.060 C 
ATOM     17  C   UNL     1      -6.239  -4.818   8.179  0.00  0.00    +0.060 C 
ENDROOT
BRANCH  11  18
ATOM     18  C   UNL     1       0.936  -2.010   4.168  0.00  0.00    +0.059 A 
ATOM     19  C   UNL     1       1.260  -3.265   3.644  0.00  0.00    +0.019 A 
ATOM     20  C   UNL     1       2.573  -3.675   3.606  0.00  0.00    +0.046 A 
ATOM     21  C   UNL     1       3.581  -2.846   4.088  0.00  0.00    +0.120 A 
ATOM     22  C   UNL     1       3.270  -1.599   4.610  0.00  0.00    +0.091 A 
ATOM     23  C   UNL     1       1.954  -1.172   4.648  0.00  0.00    +0.131 A 
BRANCH  23  24
ATOM     24  O   UNL     1       1.649   0.050   5.154  0.00  0.00    -0.506 OA
ATOM     25  H   UNL     1       1.548   0.064   6.115  0.00  0.00    +0.292 HD
ENDBRANCH  23  24
BRANCH  21  26
ATOM     26  O   UNL     1       4.873  -3.258   4.046  0.00  0.00    -0.507 OA
ATOM     27  H   UNL     1       5.337  -3.020   3.232  0.00  0.00    +0.292 HD
ENDBRANCH  21  26
ENDBRANCH  11  18
BRANCH   5  28
ATOM     28  O   UNL     1      -4.944   0.600   3.691  0.00  0.00    -0.506 OA
ATOM     29  H   UNL     1      -5.274   0.342   2.819  0.00  0.00    +0.292 HD
ENDBRANCH   5  28
BRANCH   1  30
ATOM     30  C   UNL     1       0.159   0.181   2.554  0.00  0.00    +0.070 C 
BRANCH  30  33
ATOM     31  C   UNL     1      -0.114   1.872   0.313  0.00  0.00    +0.038 C 
ATOM     32  C   UNL     1      -0.085   0.376   0.132  0.00  0.00    -0.079 C 
ATOM     33  C   UNL     1       0.101  -0.406   1.167  0.00  0.00    -0.023 C 
ATOM     34  C   UNL     1      -0.269  -0.220  -1.240  0.00  0.00    +0.038 C 
ENDBRANCH  30  33
ENDBRANCH   1  30
TORSDOF 6
