REMARK  Name = ZINC15817365
REMARK  9 active torsions:
REMARK  status: ('A' for Active; 'I' for Inactive)
REMARK    1  A    between atoms: C_1  and  C_2
REMARK    2  A    between atoms: C_6  and  N_9
REMARK    3  A    between atoms: C_7  and  C_8
REMARK    4  A    between atoms: C_19  and  S_20
REMARK    5  A    between atoms: S_20  and  C_21
REMARK    6  A    between atoms: C_21  and  C_23
REMARK    7  A    between atoms: C_21  and  C_24
REMARK    8  A    between atoms: N_26  and  C_27
REMARK    9  A    between atoms: C_28  and  C_32
REMARK                            x       y       z     vdW  Elec       q    Type
REMARK                         _______ _______ _______ _____ _____    ______ ____
ROOT
ATOM      1  N   UNL     1       2.404   1.105  -0.015  0.00  0.00    -0.255 N 
ATOM      2  C   UNL     1       3.004   0.777   1.153  0.00  0.00    +0.267 A 
ATOM      3  O   UNL     1       2.500   1.063   2.223  0.00  0.00    -0.267 OA
ATOM      4  C   UNL     1       4.283   0.059   1.081  0.00  0.00    +0.065 A 
ATOM      5  C   UNL     1       4.977  -0.327   2.227  0.00  0.00    +0.015 A 
ATOM      6  C   UNL     1       6.167  -0.989   2.103  0.00  0.00    +0.001 A 
ATOM      7  C   UNL     1       6.690  -1.281   0.850  0.00  0.00    +0.002 A 
ATOM      8  C   UNL     1       6.031  -0.915  -0.290  0.00  0.00    +0.028 A 
ATOM      9  C   UNL     1       4.812  -0.236  -0.196  0.00  0.00    +0.079 A 
ATOM     10  N   UNL     1       4.127   0.145  -1.299  0.00  0.00    -0.223 NA
ATOM     11  C   UNL     1       2.985   0.781  -1.210  0.00  0.00    +0.177 A 
ENDROOT
BRANCH   1  17
ATOM     12  C   UNL     1      -0.077   5.351   0.030  0.00  0.00    +0.044 C 
ATOM     13  C   UNL     1      -0.051   3.845   0.022  0.00  0.00    -0.046 A 
ATOM     14  C   UNL     1      -1.237   3.133   0.030  0.00  0.00    +0.004 A 
ATOM     15  C   UNL     1      -1.218   1.751   0.017  0.00  0.00    +0.002 A 
ATOM     16  C   UNL     1      -0.013   1.076   0.008  0.00  0.00    +0.026 A 
ATOM     17  C   UNL     1       1.180   1.787   0.000  0.00  0.00    +0.055 A 
ATOM     18  C   UNL     1       1.157   3.175   0.008  0.00  0.00    -0.024 A 
ATOM     19  C   UNL     1       2.449   3.951  -0.000  0.00  0.00    +0.046 C 
ENDBRANCH   1  17
BRANCH  11  20
ATOM     20  S   UNL     1       2.160   1.240  -2.697  0.00  0.00    -0.075 S 
BRANCH  20  21
ATOM     21  C   UNL     1       3.328   0.590  -3.918  0.00  0.00    +0.137 C 
ATOM     22  C   UNL     1       4.652   1.350  -3.812  0.00  0.00    +0.029 C 
BRANCH  21  23
ATOM     23  C   UNL     1       2.758   0.766  -5.302  0.00  0.00    +0.231 C 
ATOM     24  O   UNL     1       1.942   1.637  -5.516  0.00  0.00    -0.274 OA
ATOM     25  N   UNL     1       3.154  -0.046  -6.302  0.00  0.00    -0.278 N 
ATOM     26  H   UNL     1       3.807  -0.743  -6.131  0.00  0.00    +0.155 HD
BRANCH  25  27
ATOM     27  C   UNL     1       2.630   0.115  -7.575  0.00  0.00    +0.084 A 
ATOM     28  C   UNL     1       2.916  -0.611  -8.725  0.00  0.00    +0.065 A 
ATOM     29  C   UNL     1       2.214  -0.227  -9.927  0.00  0.00    +0.022 A 
ATOM     30  C   UNL     1       1.354   0.803  -9.834  0.00  0.00    +0.048 A 
ATOM     31  S   UNL     1       1.466   1.276  -8.120  0.00  0.00    -0.081 S 
BRANCH  28  32
ATOM     32  C   UNL     1       3.880  -1.716  -8.717  0.00  0.00    +0.244 C 
ATOM     33  O   UNL     1       4.452  -2.016  -7.686  0.00  0.00    -0.270 OA
ATOM     34  N   UNL     1       4.132  -2.398  -9.852  0.00  0.00    -0.325 N 
ATOM     35  H   UNL     1       3.676  -2.159 -10.674  0.00  0.00    +0.145 HD
ATOM     36  H   UNL     1       4.770  -3.129  -9.847  0.00  0.00    +0.145 HD
ENDBRANCH  28  32
ENDBRANCH  25  27
ENDBRANCH  21  23
ENDBRANCH  20  21
ENDBRANCH  11  20
TORSDOF 6
