REMARK  Name = ZINC63847254
REMARK  9 active torsions:
REMARK  status: ('A' for Active; 'I' for Inactive)
REMARK    1  A    between atoms: C_1  and  N_2
REMARK    2  A    between atoms: N_2  and  C_3
REMARK    3  A    between atoms: N_2  and  C_15
REMARK    4  A    between atoms: C_3  and  C_4
REMARK    5  A    between atoms: C_15  and  C_16
REMARK    6  A    between atoms: C_19  and  S_29
REMARK    7  A    between atoms: N_21  and  C_22
REMARK    8  A    between atoms: C_22  and  C_23
REMARK    9  A    between atoms: S_29  and  C_32
REMARK                            x       y       z     vdW  Elec       q    Type
REMARK                         _______ _______ _______ _____ _____    ______ ____
ROOT
ATOM      1  C   UNL     1       0.285  -0.081  -2.102  0.00  0.00    +0.109 C 
ENDROOT
BRANCH   1   2
ATOM      2  C   UNL     1      -0.763   0.190  -3.183  0.00  0.00    +0.115 C 
ATOM      3  C   UNL     1      -0.518  -0.690  -4.388  0.00  0.00    +0.101 C 
ATOM      4  N   UNL     1      -1.343  -1.665  -4.383  0.00  0.00    -0.254 NA
ATOM      5  C   UNL     1      -2.230  -1.591  -3.217  0.00  0.00    +0.318 C 
ATOM      6  N   UNL     1      -2.112  -0.205  -2.706  0.00  0.00    -0.252 NA
BRANCH   5   7
ATOM      7  S   UNL     1      -3.942  -1.935  -3.711  0.00  0.00    +0.003 S 
ATOM      8  O   UNL     1      -3.982  -3.211  -4.335  0.00  0.00    -0.171 OA
ATOM      9  O   UNL     1      -4.790  -1.682  -2.599  0.00  0.00    -0.171 OA
ATOM     10  C   UNL     1      -4.257  -0.670  -4.972  0.00  0.00    +0.198 C 
ENDBRANCH   5   7
BRANCH   6  11
ATOM     11  C   UNL     1      -2.182  -0.177  -1.239  0.00  0.00    +0.120 C 
BRANCH  11  12
ATOM     12  C   UNL     1      -2.147   1.274  -0.754  0.00  0.00    +0.132 C 
ATOM     13  C   UNL     1      -2.328   1.319   0.778  0.00  0.00    +0.035 C 
ATOM     14  C   UNL     1      -3.238   2.563   0.967  0.00  0.00    +0.031 C 
ATOM     15  C   UNL     1      -4.111   2.485  -0.311  0.00  0.00    +0.160 C 
ATOM     16  O   UNL     1      -3.228   2.008  -1.341  0.00  0.00    -0.375 OA
ENDBRANCH  11  12
ENDBRANCH   6  11
ENDBRANCH   1   2
BRANCH   1  18
ATOM     17  C   UNL     1       2.220  -0.377  -3.527  0.00  0.00    +0.105 C 
ATOM     18  N   UNL     1       1.577   0.479  -2.522  0.00  0.00    -0.300 NA
BRANCH  18  19
ATOM     19  C   UNL     1       2.461   0.689  -1.367  0.00  0.00    +0.130 C 
BRANCH  19  20
ATOM     20  C   UNL     1       3.537   1.714  -1.728  0.00  0.00    +0.188 C 
ATOM     21  N   UNL     1       2.916   2.920  -2.290  0.00  0.00    -0.362 N 
ATOM     22  C   UNL     1       3.372   3.065  -3.501  0.00  0.00    +0.060 A 
ATOM     23  C   UNL     1       3.124   4.067  -4.547  0.00  0.00    +0.029 A 
ATOM     24  C   UNL     1       3.753   3.959  -5.734  0.00  0.00    +0.022 A 
ATOM     25  C   UNL     1       4.652   2.915  -6.023  0.00  0.00    +0.043 A 
ATOM     26  C   UNL     1       4.949   1.944  -5.134  0.00  0.00    +0.047 A 
ATOM     27  C   UNL     1       4.322   1.961  -3.807  0.00  0.00    +0.062 A 
ATOM     28  N   UNL     1       4.417   1.174  -2.772  0.00  0.00    -0.362 N 
ATOM     29 CL   UNL     1       5.407   2.874  -7.586  0.00  0.00    -0.083 Cl
ATOM     30  H   UNL     1       2.283   3.501  -1.842  0.00  0.00    +0.162 HD
ATOM     31  H   UNL     1       4.969   0.379  -2.703  0.00  0.00    +0.162 HD
ENDBRANCH  19  20
ENDBRANCH  18  19
ENDBRANCH   1  18
TORSDOF 7
