REMARK  Name = ZINC63171183
REMARK  7 active torsions:
REMARK  status: ('A' for Active; 'I' for Inactive)
REMARK    1  A    between atoms: C_1  and  C_2
REMARK    2  A    between atoms: C_2  and  C_4
REMARK    3  A    between atoms: C_2  and  N_19
REMARK    4  A    between atoms: C_4  and  C_5
REMARK    5  A    between atoms: C_5  and  N_6
REMARK    6  A    between atoms: N_6  and  S_7
REMARK    7  A    between atoms: S_7  and  C_10
REMARK                            x       y       z     vdW  Elec       q    Type
REMARK                         _______ _______ _______ _____ _____    ______ ____
ROOT
ATOM      1  S   UNL     1      -3.105  -4.113  -0.607  0.00  0.00    +0.062 S 
ATOM      2  O   UNL     1      -4.504  -4.311  -0.456  0.00  0.00    -0.153 OA
ATOM      3  O   UNL     1      -2.441  -4.284  -1.851  0.00  0.00    -0.153 OA
ENDROOT
BRANCH   1   4
ATOM      4  C   UNL     1      -2.318  -5.197   0.538  0.00  0.00    +0.154 A 
ATOM      5  C   UNL     1      -1.013  -5.605   0.319  0.00  0.00    +0.153 A 
ATOM      6  C   UNL     1      -0.394  -6.457   1.217  0.00  0.00    +0.078 A 
ATOM      7  C   UNL     1      -1.081  -6.900   2.335  0.00  0.00    +0.127 A 
ATOM      8  C   UNL     1      -2.385  -6.490   2.553  0.00  0.00    +0.055 A 
ATOM      9  C   UNL     1      -3.001  -5.635   1.657  0.00  0.00    +0.050 A 
ATOM     10 BR   UNL     1      -4.780  -5.071   1.960  0.00  0.00    -0.048 Br
ATOM     11  F   UNL     1      -0.478  -7.731   3.213  0.00  0.00    -0.205 F 
ATOM     12  F   UNL     1      -0.344  -5.173  -0.773  0.00  0.00    -0.203 F 
ENDBRANCH   1   4
BRANCH   1  13
ATOM     13  N   UNL     1      -2.790  -2.565  -0.111  0.00  0.00    -0.190 NA
ATOM     14  H   UNL     1      -3.515  -1.994   0.186  0.00  0.00    +0.148 HD
BRANCH  13  15
ATOM     15  C   UNL     1      -1.416  -2.058  -0.121  0.00  0.00    +0.104 C 
BRANCH  15  16
ATOM     16  C   UNL     1      -1.433  -0.534   0.013  0.00  0.00    +0.000 C 
BRANCH  16  18
ATOM     17  C   UNL     1      -0.019   1.526   0.010  0.00  0.00    -0.014 C 
ATOM     18  C   UNL     1       0.002  -0.004   0.002  0.00  0.00    -0.077 C 
BRANCH  18  19
ATOM     19  N   UNL     1       0.713  -0.491   1.192  0.00  0.00    +0.380 N 
ATOM     20  H   UNL     1       0.240  -0.165   2.022  0.00  0.00    -0.090 HD
ATOM     21  H   UNL     1       0.726  -1.500   1.187  0.00  0.00    -0.090 HD
ATOM     22  H   UNL     1       1.659  -0.141   1.185  0.00  0.00    -0.090 HD
ENDBRANCH  18  19
ENDBRANCH  16  18
ENDBRANCH  15  16
ENDBRANCH  13  15
ENDBRANCH   1  13
TORSDOF 6
