REMARK  Name = ZINC39673934
REMARK  8 active torsions:
REMARK  status: ('A' for Active; 'I' for Inactive)
REMARK    1  A    between atoms: C_1  and  C_2
REMARK    2  A    between atoms: C_4  and  C_12
REMARK    3  A    between atoms: C_12  and  C_13
REMARK    4  A    between atoms: C_13  and  N_14
REMARK    5  A    between atoms: C_15  and  C_17
REMARK    6  A    between atoms: C_28  and  C_30
REMARK    7  A    between atoms: C_30  and  C_31
REMARK    8  A    between atoms: C_30  and  C_32
REMARK                            x       y       z     vdW  Elec       q    Type
REMARK                         _______ _______ _______ _____ _____    ______ ____
ROOT
ATOM      1  N   UNL     1      -2.951   2.530   4.185  0.00  0.00    -0.315 N 
ATOM      2  C   UNL     1      -4.052   3.200   3.792  0.00  0.00    +0.218 C 
ATOM      3  O   UNL     1      -4.005   3.928   2.822  0.00  0.00    -0.275 OA
ATOM      4  H   UNL     1      -2.989   1.948   4.960  0.00  0.00    +0.149 HD
ENDROOT
BRANCH   2   5
ATOM      5  C   UNL     1      -5.341   3.047   4.556  0.00  0.00    +0.100 C 
ATOM      6  C   UNL     1      -6.551   3.292   3.627  0.00  0.00    +0.121 C 
ATOM      7  N   UNL     1      -7.535   4.007   4.473  0.00  0.00    -0.300 N 
ATOM      8  C   UNL     1      -6.715   4.939   5.284  0.00  0.00    +0.115 C 
ATOM      9  C   UNL     1      -5.452   4.131   5.642  0.00  0.00    -0.004 C 
ATOM     10  C   UNL     1      -4.223   5.034   5.615  0.00  0.00    -0.010 C 
ATOM     11  C   UNL     1      -4.328   6.066   6.740  0.00  0.00    -0.082 C 
ATOM     12  N   UNL     1      -4.425   5.377   8.032  0.00  0.00    +0.379 N 
ATOM     13  C   UNL     1      -5.658   4.583   8.085  0.00  0.00    -0.082 C 
ATOM     14  C   UNL     1      -5.609   3.487   7.017  0.00  0.00    -0.010 C 
ATOM     15  C   UNL     1      -8.873   3.847   4.500  0.00  0.00    +0.218 C 
ATOM     16  O   UNL     1      -9.393   2.982   3.827  0.00  0.00    -0.275 OA
ATOM     17  H   UNL     1      -3.629   4.767   8.147  0.00  0.00    -0.086 HD
ATOM     18  H   UNL     1      -4.433   6.058   8.776  0.00  0.00    -0.086 HD
BRANCH  15  19
ATOM     19  C   UNL     1      -9.722   4.742   5.365  0.00  0.00    +0.069 C 
ATOM     20  C   UNL     1     -10.065   6.019   4.595  0.00  0.00    +0.017 C 
ATOM     21  C   UNL     1     -11.012   4.012   5.743  0.00  0.00    +0.017 C 
ENDBRANCH  15  19
ENDBRANCH   2   5
BRANCH   1  22
ATOM     22  C   UNL     1      -1.698   2.679   3.441  0.00  0.00    +0.109 C 
BRANCH  22  23
ATOM     23  C   UNL     1      -0.613   1.817   4.091  0.00  0.00    +0.056 C 
BRANCH  23  27
ATOM     24  C   UNL     1       1.596   3.927   4.637  0.00  0.00    +0.063 C 
ATOM     25  C   UNL     1       1.637   2.879   3.555  0.00  0.00    +0.017 A 
ATOM     26  H   UNL     1       3.460   3.259   2.622  0.00  0.00    +0.166 HD
ATOM     27  C   UNL     1       0.676   1.971   3.326  0.00  0.00    -0.018 A 
ATOM     28  C   UNL     1       1.119   1.156   2.192  0.00  0.00    +0.003 A 
ATOM     29  C   UNL     1       0.568   0.076   1.499  0.00  0.00    +0.010 A 
ATOM     30  C   UNL     1       1.251  -0.479   0.454  0.00  0.00    +0.001 A 
ATOM     31  C   UNL     1       2.489   0.022   0.075  0.00  0.00    +0.002 A 
ATOM     32  C   UNL     1       3.051   1.086   0.746  0.00  0.00    +0.026 A 
ATOM     33  C   UNL     1       2.373   1.667   1.812  0.00  0.00    +0.047 A 
ATOM     34  N   UNL     1       2.656   2.717   2.657  0.00  0.00    -0.358 N 
ENDBRANCH  23  27
ENDBRANCH  22  23
ENDBRANCH   1  22
TORSDOF 5
