REMARK  Name = ZINC63375994
REMARK  8 active torsions:
REMARK  status: ('A' for Active; 'I' for Inactive)
REMARK    1  A    between atoms: C_1  and  C_2
REMARK    2  A    between atoms: C_2  and  C_3
REMARK    3  A    between atoms: C_12  and  O_14
REMARK    4  A    between atoms: O_14  and  C_15
REMARK    5  A    between atoms: C_15  and  C_16
REMARK    6  A    between atoms: N_18  and  C_19
REMARK    7  A    between atoms: C_19  and  C_20
REMARK    8  A    between atoms: C_20  and  C_21
REMARK                            x       y       z     vdW  Elec       q    Type
REMARK                         _______ _______ _______ _____ _____    ______ ____
ROOT
ATOM      1  C   UNL     1       6.889  -1.495   2.504  0.00  0.00    +0.324 C 
ENDROOT
BRANCH   1   2
ATOM      2  C   UNL     1       8.385  -1.565   2.336  0.00  0.00    +0.251 C 
ATOM      3  O   UNL     1       8.893  -1.233   1.286  0.00  0.00    -0.272 OA
ATOM      4  N   UNL     1       9.158  -1.996   3.353  0.00  0.00    -0.312 N 
ATOM      5  H   UNL     1       8.751  -2.261   4.193  0.00  0.00    +0.149 HD
BRANCH   4   6
ATOM      6  C   UNL     1      10.612  -2.064   3.189  0.00  0.00    +0.108 C 
BRANCH   6   7
ATOM      7  C   UNL     1      11.247  -2.581   4.482  0.00  0.00    +0.052 C 
BRANCH   7   8
ATOM      8  C   UNL     1      12.743  -2.651   4.314  0.00  0.00    -0.040 C 
ATOM      9  C   UNL     1      13.646  -1.713   4.678  0.00  0.00    -0.001 A 
ATOM     10  C   UNL     1      13.512  -0.397   5.314  0.00  0.00    +0.010 A 
ATOM     11  C   UNL     1      14.626   0.330   5.558  0.00  0.00    +0.001 A 
ATOM     12  C   UNL     1      15.902  -0.141   5.219  0.00  0.00    +0.002 A 
ATOM     13  C   UNL     1      16.106  -1.339   4.633  0.00  0.00    +0.026 A 
ATOM     14  C   UNL     1      15.005  -2.188   4.331  0.00  0.00    +0.043 A 
ATOM     15  N   UNL     1      14.944  -3.373   3.774  0.00  0.00    -0.380 N 
ATOM     16  C   UNL     1      13.538  -3.787   3.710  0.00  0.00    +0.144 C 
ATOM     17  H   UNL     1      15.701  -3.891   3.460  0.00  0.00    +0.160 HD
ENDBRANCH   7   8
ENDBRANCH   6   7
ENDBRANCH   4   6
ENDBRANCH   1   2
BRANCH   1  18
ATOM     18  O   UNL     1       6.296  -1.011   1.297  0.00  0.00    -0.481 OA
BRANCH  18  28
ATOM     19  C   UNL     1       0.731  -0.503   1.223  0.00  0.00    -0.030 A 
ATOM     20  C   UNL     1       0.052  -0.852   2.347  0.00  0.00    +0.096 A 
ATOM     21  C   UNL     1       0.757  -1.317   3.476  0.00  0.00    +0.337 A 
ATOM     22  O   UNL     1       0.136  -1.627   4.477  0.00  0.00    -0.245 OA
ATOM     23  O   UNL     1       2.094  -1.428   3.476  0.00  0.00    -0.422 OA
ATOM     24  C   UNL     1       2.829  -1.097   2.392  0.00  0.00    +0.143 A 
ATOM     25  C   UNL     1       2.190  -0.631   1.228  0.00  0.00    +0.022 A 
ATOM     26  C   UNL     1       2.947  -0.293   0.101  0.00  0.00    +0.035 A 
ATOM     27  C   UNL     1       4.306  -0.421   0.133  0.00  0.00    +0.083 A 
ATOM     28  C   UNL     1       4.944  -0.888   1.281  0.00  0.00    +0.143 A 
ATOM     29  C   UNL     1       4.210  -1.217   2.409  0.00  0.00    +0.094 A 
ATOM     30 CL   UNL     1       5.245  -0.002  -1.266  0.00  0.00    -0.080 Cl
BRANCH  19  32
ATOM     31  C   UNL     1      -0.019   1.526   0.010  0.00  0.00    +0.009 C 
ATOM     32  C   UNL     1       0.002  -0.004   0.002  0.00  0.00    +0.033 C 
ENDBRANCH  19  32
ENDBRANCH  18  28
ENDBRANCH   1  18
TORSDOF 7
