REMARK  Name = ZINC39470049
REMARK  10 active torsions:
REMARK  status: ('A' for Active; 'I' for Inactive)
REMARK    1  A    between atoms: C_1  and  C_2
REMARK    2  A    between atoms: C_2  and  C_3
REMARK    3  A    between atoms: C_2  and  S_4
REMARK    4  A    between atoms: S_4  and  C_7
REMARK    5  A    between atoms: P_16  and  S_27
REMARK    6  A    between atoms: C_24  and  O_25
REMARK    7  A    between atoms: O_25  and  C_26
REMARK    8  A    between atoms: S_27  and  C_30
REMARK    9  A    between atoms: C_30  and  C_31
REMARK   10  A    between atoms: C_30  and  C_32
REMARK                            x       y       z     vdW  Elec       q    Type
REMARK                         _______ _______ _______ _____ _____    ______ ____
ROOT
ATOM      1  C   UNL     1       2.363  -0.017  -1.239  0.00  0.00    +0.126 C 
ATOM      2  C   UNL     1       3.433  -0.804  -1.212  0.00  0.00    +0.008 C 
ATOM      3  C   UNL     1       4.801  -0.199  -1.001  0.00  0.00    +0.023 C 
ATOM      4  C   UNL     1       5.004   0.044   0.495  0.00  0.00    +0.031 C 
ATOM      5  C   UNL     1       6.333   0.763   0.749  0.00  0.00    +0.100 C 
ATOM      6  C   UNL     1       6.447   0.981   2.263  0.00  0.00    +0.191 C 
ATOM      7  O   UNL     1       7.696   1.627   2.567  0.00  0.00    -0.299 OA
ATOM      8  P   UNL     1       8.071   2.976   1.739  0.00  0.00    +0.419 P 
ATOM      9  O   UNL     1       9.533   3.207   1.769  0.00  0.00    -0.246 OA
ATOM     10  N   UNL     1       7.570   2.689   0.193  0.00  0.00    -0.161 NA
ATOM     11  N   UNL     1       6.364   2.037   0.024  0.00  0.00    -0.228 NA
ATOM     12  C   UNL     1       6.180   1.841  -1.424  0.00  0.00    +0.111 C 
ATOM     13  C   UNL     1       4.866   1.140  -1.742  0.00  0.00    +0.038 C 
ATOM     14  C   UNL     1       3.710   2.006  -1.318  0.00  0.00    +0.026 C 
ATOM     15  C   UNL     1       2.518   1.439  -1.058  0.00  0.00    +0.141 C 
ATOM     16  H   UNL     1       8.102   2.971  -0.568  0.00  0.00    +0.152 HD
ENDROOT
BRANCH   1  17
ATOM     17  S   UNL     1       0.763  -0.710  -1.498  0.00  0.00    +0.002 S 
ATOM     18  O   UNL     1      -0.033  -0.185  -0.445  0.00  0.00    -0.169 OA
ATOM     19  O   UNL     1       0.988  -2.108  -1.610  0.00  0.00    -0.169 OA
BRANCH  17  21
ATOM     20  C   UNL     1       1.187  -0.471  -4.190  0.00  0.00    +0.032 C 
ATOM     21  C   UNL     1       0.216  -0.035  -3.091  0.00  0.00    +0.130 C 
ATOM     22  C   UNL     1      -1.186  -0.558  -3.411  0.00  0.00    +0.032 C 
ENDBRANCH  17  21
ENDBRANCH   1  17
BRANCH   8  23
ATOM     23  S   UNL     1       7.048   4.646   2.550  0.00  0.00    +0.058 S 
ATOM     24  O   UNL     1       7.527   5.760   1.810  0.00  0.00    -0.164 OA
ATOM     25  O   UNL     1       5.674   4.285   2.507  0.00  0.00    -0.164 OA
BRANCH  23  26
ATOM     26  C   UNL     1       7.613   4.749   4.271  0.00  0.00    +0.136 C 
ATOM     27  C   UNL     1       6.841   5.852   4.997  0.00  0.00    +0.032 C 
ATOM     28  C   UNL     1       7.367   3.410   4.969  0.00  0.00    +0.032 C 
ENDBRANCH  23  26
ENDBRANCH   8  23
BRANCH  15  29
ATOM     29  O   UNL     1       1.465   2.197  -0.656  0.00  0.00    -0.494 OA
ATOM     30  C   UNL     1       1.694   3.599  -0.503  0.00  0.00    +0.277 C 
ENDBRANCH  15  29
TORSDOF 5
