REMARK  Name = ZINC12195137
REMARK  8 active torsions:
REMARK  status: ('A' for Active; 'I' for Inactive)
REMARK    1  A    between atoms: C_1  and  C_2
REMARK    2  A    between atoms: C_2  and  C_3
REMARK    3  A    between atoms: C_3  and  C_4
REMARK    4  A    between atoms: C_4  and  C_5
REMARK    5  A    between atoms: C_9  and  C_11
REMARK    6  A    between atoms: C_11  and  N_59
REMARK    7  A    between atoms: C_24  and  C_26
REMARK    8  A    between atoms: C_30  and  C_32
REMARK                            x       y       z     vdW  Elec       q    Type
REMARK                         _______ _______ _______ _____ _____    ______ ____
ROOT
ATOM      1  C   UNL     1      -3.505   3.022   0.451  0.00  0.00    -0.072 C 
ATOM      2  C   UNL     1      -2.032   3.161   0.043  0.00  0.00    +0.019 C 
ATOM      3  C   UNL     1      -1.424   1.782   0.031  0.00  0.00    -0.022 A 
ATOM      4  C   UNL     1      -0.017   1.405   0.010  0.00  0.00    +0.003 A 
ATOM      5  C   UNL     1       1.186   2.115   0.002  0.00  0.00    +0.010 A 
ATOM      6  C   UNL     1       2.374   1.440  -0.012  0.00  0.00    +0.001 A 
ATOM      7  C   UNL     1       2.397   0.052  -0.019  0.00  0.00    +0.002 A 
ATOM      8  C   UNL     1       1.224  -0.669  -0.012  0.00  0.00    +0.026 A 
ATOM      9  C   UNL     1       0.002  -0.004   0.002  0.00  0.00    +0.047 A 
ATOM     10  N   UNL     1      -1.309  -0.432   0.011  0.00  0.00    -0.359 N 
ATOM     11  H   UNL     1      -1.592  -1.359   0.008  0.00  0.00    +0.166 HD
ATOM     12  C   UNL     1      -2.148   0.644   0.025  0.00  0.00    +0.012 A 
ATOM     13  C   UNL     1      -3.659   0.631   0.036  0.00  0.00    +0.030 C 
ATOM     14  N   UNL     1      -4.131   1.972  -0.385  0.00  0.00    +0.393 N 
ATOM     15  H   UNL     1      -3.866   2.126  -1.365  0.00  0.00    -0.080 HD
ENDROOT
BRANCH  13  16
ATOM     16  C   UNL     1      -4.165  -0.395  -0.944  0.00  0.00    +0.034 A 
ATOM     17  C   UNL     1      -4.278  -1.716  -0.553  0.00  0.00    +0.022 A 
ATOM     18  C   UNL     1      -4.750  -2.652  -1.461  0.00  0.00    +0.003 A 
ATOM     19  C   UNL     1      -5.083  -2.223  -2.737  0.00  0.00    +0.023 A 
ATOM     20  C   UNL     1      -4.938  -0.887  -3.058  0.00  0.00    +0.038 A 
ATOM     21  N   UNL     1      -4.491  -0.024  -2.167  0.00  0.00    -0.258 NA
ATOM     22  C   UNL     1      -5.297  -0.410  -4.442  0.00  0.00    +0.065 C 
ENDBRANCH  13  16
BRANCH  14  23
ATOM     23  C   UNL     1      -5.602   2.047  -0.269  0.00  0.00    -0.019 C 
BRANCH  23  28
ATOM     24  C   UNL     1      -6.597   5.410  -1.148  0.00  0.00    +0.107 A 
ATOM     25  N   UNL     1      -6.825   4.798  -2.330  0.00  0.00    -0.348 N 
ATOM     26  H   UNL     1      -7.173   5.227  -3.163  0.00  0.00    +0.166 HD
ATOM     27  C   UNL     1      -6.492   3.479  -2.174  0.00  0.00    +0.105 A 
ATOM     28  C   UNL     1      -6.073   3.331  -0.903  0.00  0.00    +0.043 A 
ATOM     29  N   UNL     1      -6.152   4.526  -0.298  0.00  0.00    -0.239 NA
BRANCH  24  30
ATOM     30  C   UNL     1      -6.825   6.871  -0.857  0.00  0.00    +0.074 C 
BRANCH  30  31
ATOM     31  C   UNL     1      -7.747   7.013   0.355  0.00  0.00    +0.007 C 
BRANCH  31  33
ATOM     32  C   UNL     1      -8.900   8.637   1.863  0.00  0.00    +0.004 C 
ATOM     33  C   UNL     1      -7.978   8.496   0.650  0.00  0.00    -0.003 C 
ENDBRANCH  31  33
ENDBRANCH  30  31
ENDBRANCH  24  30
ENDBRANCH  23  28
ENDBRANCH  14  23
TORSDOF 6
