REMARK  Name = ZINC32944381
REMARK  13 active torsions:
REMARK  status: ('A' for Active; 'I' for Inactive)
REMARK    1  A    between atoms: C_1  and  C_2
REMARK    2  A    between atoms: C_5  and  C_8
REMARK    3  A    between atoms: C_8  and  C_10
REMARK    4  A    between atoms: C_10  and  S_11
REMARK    5  A    between atoms: S_11  and  C_12
REMARK    6  A    between atoms: C_16  and  C_31
REMARK    7  A    between atoms: N_22  and  C_23
REMARK    8  A    between atoms: C_25  and  C_30
REMARK    9  A    between atoms: C_27  and  C_29
REMARK   10  A    between atoms: N_33  and  C_34
REMARK   11  A    between atoms: C_34  and  C_35
REMARK   12  A    between atoms: C_35  and  C_36
REMARK   13  A    between atoms: C_35  and  C_37
REMARK                            x       y       z     vdW  Elec       q    Type
REMARK                         _______ _______ _______ _____ _____    ______ ____
ROOT
ATOM      1  C   UNL     1      -7.141   0.683  -0.461  0.00  0.00    +0.177 A 
ATOM      2  N   UNL     1      -6.015   1.351  -0.493  0.00  0.00    -0.223 NA
ATOM      3  C   UNL     1      -4.859   0.816  -0.034  0.00  0.00    +0.080 A 
ATOM      4  C   UNL     1      -3.659   1.530  -0.071  0.00  0.00    +0.041 A 
ATOM      5  C   UNL     1      -2.498   0.940   0.411  0.00  0.00    +0.039 A 
ATOM      6  C   UNL     1      -2.523  -0.362   0.925  0.00  0.00    +0.014 A 
ATOM      7  C   UNL     1      -3.691  -1.069   0.971  0.00  0.00    +0.016 A 
ATOM      8  C   UNL     1      -4.869  -0.496   0.493  0.00  0.00    +0.065 A 
ATOM      9  C   UNL     1      -6.147  -1.224   0.518  0.00  0.00    +0.267 A 
ATOM     10  O   UNL     1      -6.220  -2.355   0.960  0.00  0.00    -0.267 OA
ATOM     11  N   UNL     1      -7.239  -0.589   0.032  0.00  0.00    -0.255 N 
ENDROOT
BRANCH  11  12
ATOM     12  C   UNL     1      -8.479  -1.240   0.034  0.00  0.00    +0.052 A 
ATOM     13  C   UNL     1      -9.324  -1.124   1.130  0.00  0.00    +0.029 A 
ATOM     14  C   UNL     1     -10.548  -1.763   1.127  0.00  0.00    -0.048 A 
ATOM     15  C   UNL     1     -10.929  -2.526   0.038  0.00  0.00    +0.006 A 
ATOM     16  C   UNL     1     -10.087  -2.648  -1.053  0.00  0.00    -0.048 A 
ATOM     17  C   UNL     1      -8.864  -2.007  -1.058  0.00  0.00    +0.029 A 
ATOM     18  C   UNL     1     -10.506  -3.480  -2.237  0.00  0.00    +0.044 C 
ATOM     19  C   UNL     1     -11.469  -1.633   2.313  0.00  0.00    +0.044 C 
ENDBRANCH  11  12
BRANCH   5  20
ATOM     20  C   UNL     1      -1.222   1.691   0.376  0.00  0.00    +0.244 C 
ATOM     21  O   UNL     1      -1.194   2.820  -0.074  0.00  0.00    -0.270 OA
ATOM     22  N   UNL     1      -0.092   1.123   0.842  0.00  0.00    -0.311 N 
ATOM     23  H   UNL     1      -0.119   0.103   1.253  0.00  0.00    +0.149 HD
BRANCH  22  24
ATOM     24  C   UNL     1       1.171   1.864   0.801  0.00  0.00    +0.107 C 
BRANCH  24  25
ATOM     25  C   UNL     1       2.290   0.996   1.380  0.00  0.00    -0.000 C 
ATOM     26  C   UNL     1       2.507  -0.223   0.481  0.00  0.00    +0.009 C 
ATOM     27  C   UNL     1       3.582   1.812   1.453  0.00  0.00    +0.009 C 
ENDBRANCH  24  25
ENDBRANCH  22  24
ENDBRANCH   5  20
BRANCH   1  28
ATOM     28  S   UNL     1      -8.597   1.459  -1.080  0.00  0.00    -0.079 S 
BRANCH  28  29
ATOM     29  C   UNL     1      -7.912   3.057  -1.581  0.00  0.00    +0.157 C 
BRANCH  29  30
ATOM     30  C   UNL     1      -9.009   3.915  -2.158  0.00  0.00    +0.173 C 
ATOM     31  O   UNL     1     -10.142   3.487  -2.223  0.00  0.00    -0.291 OA
BRANCH  30  36
ATOM     32  C   UNL     1      -7.822   9.213  -4.048  0.00  0.00    +0.044 C 
ATOM     33  C   UNL     1      -8.133   7.824  -3.552  0.00  0.00    -0.050 A 
ATOM     34  C   UNL     1      -9.427   7.340  -3.629  0.00  0.00    +0.004 A 
ATOM     35  C   UNL     1      -9.720   6.070  -3.178  0.00  0.00    +0.011 A 
ATOM     36  C   UNL     1      -8.705   5.271  -2.642  0.00  0.00    +0.018 A 
ATOM     37  C   UNL     1      -7.401   5.770  -2.563  0.00  0.00    +0.011 A 
ATOM     38  C   UNL     1      -7.123   7.040  -3.023  0.00  0.00    +0.004 A 
ENDBRANCH  30  36
ENDBRANCH  29  30
ENDBRANCH  28  29
ENDBRANCH   1  28
TORSDOF 8
