REMARK  Name = ZINC35926746
REMARK  5 active torsions:
REMARK  status: ('A' for Active; 'I' for Inactive)
REMARK    1  A    between atoms: C_1  and  C_2
REMARK    2  A    between atoms: C_5  and  N_8
REMARK    3  A    between atoms: N_11  and  C_14
REMARK    4  A    between atoms: C_14  and  C_15
REMARK    5  A    between atoms: C_29  and  C_31
REMARK                            x       y       z     vdW  Elec       q    Type
REMARK                         _______ _______ _______ _____ _____    ______ ____
ROOT
ATOM      1  C   UNL     1      -0.867  -8.282   1.975  0.00  0.00    +0.034 A 
ATOM      2  C   UNL     1      -1.661  -8.397   3.078  0.00  0.00    +0.091 A 
ATOM      3  C   UNL     1      -1.364  -9.390   4.029  0.00  0.00    +0.253 A 
ATOM      4  O   UNL     1      -2.054  -9.521   5.027  0.00  0.00    -0.268 OA
ATOM      5  N   UNL     1      -0.302 -10.195   3.816  0.00  0.00    -0.295 N 
ATOM      6  H   UNL     1      -0.079 -10.887   4.458  0.00  0.00    +0.172 HD
ATOM      7  C   UNL     1       0.454 -10.034   2.697  0.00  0.00    +0.198 A 
ATOM      8  N   UNL     1       0.167  -9.104   1.808  0.00  0.00    -0.223 NA
ATOM      9  N   UNL     1       1.530 -10.855   2.487  0.00  0.00    -0.298 N 
ATOM     10  C   UNL     1       1.799 -11.980   3.394  0.00  0.00    +0.127 C 
ATOM     11  C   UNL     1       1.880 -13.268   2.565  0.00  0.00    +0.127 C 
ATOM     12  N   UNL     1       2.786 -13.040   1.430  0.00  0.00    -0.298 N 
ATOM     13  C   UNL     1       2.516 -11.915   0.524  0.00  0.00    +0.127 C 
ATOM     14  C   UNL     1       2.432 -10.630   1.349  0.00  0.00    +0.127 C 
ATOM     15  C   UNL     1       3.844 -13.848   1.224  0.00  0.00    +0.219 C 
ATOM     16  O   UNL     1       3.999 -14.833   1.915  0.00  0.00    -0.275 OA
ENDROOT
BRANCH  15  17
ATOM     17  C   UNL     1       4.836 -13.528   0.135  0.00  0.00    +0.075 C 
ATOM     18  C   UNL     1       4.218 -13.849  -1.227  0.00  0.00    +0.013 C 
ATOM     19  C   UNL     1       5.225 -13.524  -2.333  0.00  0.00    +0.001 C 
ATOM     20  C   UNL     1       6.488 -14.364  -2.135  0.00  0.00    +0.000 C 
ATOM     21  C   UNL     1       7.106 -14.044  -0.772  0.00  0.00    +0.001 C 
ATOM     22  C   UNL     1       6.099 -14.369   0.333  0.00  0.00    +0.013 C 
ENDBRANCH  15  17
BRANCH   1  23
ATOM     23  C   UNL     1      -1.164  -7.227   0.941  0.00  0.00    -0.022 C 
BRANCH  23  27
ATOM     24  N   UNL     1       1.149  -3.740   1.007  0.00  0.00    -0.333 N 
ATOM     25  C   UNL     1       0.910  -4.359  -0.306  0.00  0.00    +0.086 C 
ATOM     26  C   UNL     1      -0.293  -5.300  -0.188  0.00  0.00    -0.059 C 
ATOM     27  N   UNL     1      -0.061  -6.258   0.900  0.00  0.00    +0.385 N 
ATOM     28  C   UNL     1       0.013  -5.548   2.183  0.00  0.00    -0.059 C 
ATOM     29  C   UNL     1       1.238  -4.620   2.183  0.00  0.00    +0.086 C 
ATOM     30  H   UNL     1       0.807  -6.746   0.736  0.00  0.00    -0.081 HD
BRANCH  24  35
ATOM     31  C   UNL     1       1.731   1.877   1.521  0.00  0.00    +0.044 C 
ATOM     32  C   UNL     1       1.576   0.384   1.385  0.00  0.00    -0.050 A 
ATOM     33  C   UNL     1       1.545  -0.412   2.515  0.00  0.00    +0.005 A 
ATOM     34  C   UNL     1       1.403  -1.780   2.393  0.00  0.00    +0.023 A 
ATOM     35  C   UNL     1       1.292  -2.357   1.134  0.00  0.00    +0.030 A 
ATOM     36  C   UNL     1       1.323  -1.553   0.001  0.00  0.00    +0.023 A 
ATOM     37  C   UNL     1       1.460  -0.185   0.130  0.00  0.00    +0.005 A 
ENDBRANCH  24  35
ENDBRANCH  23  27
ENDBRANCH   1  23
TORSDOF 4
