REMARK  Name = ZINC28815070
REMARK  12 active torsions:
REMARK  status: ('A' for Active; 'I' for Inactive)
REMARK    1  A    between atoms: C_1  and  C_2
REMARK    2  A    between atoms: C_3  and  C_4
REMARK    3  A    between atoms: C_5  and  C_6
REMARK    4  A    between atoms: C_7  and  C_8
REMARK    5  A    between atoms: C_8  and  N_9
REMARK    6  A    between atoms: N_9  and  C_10
REMARK    7  A    between atoms: N_9  and  S_30
REMARK    8  A    between atoms: C_15  and  C_28
REMARK    9  A    between atoms: N_19  and  C_21
REMARK   10  A    between atoms: C_21  and  C_22
REMARK   11  A    between atoms: N_26  and  C_27
REMARK   12  A    between atoms: S_30  and  C_33
REMARK                            x       y       z     vdW  Elec       q    Type
REMARK                         _______ _______ _______ _____ _____    ______ ____
ROOT
ATOM      1  C   UNL     1      -4.495   0.498   3.110  0.00  0.00    +0.102 C 
ATOM      2  C   UNL     1      -5.017   1.897   3.449  0.00  0.00    +0.059 C 
ATOM      3  C   UNL     1      -4.078   2.937   2.891  0.00  0.00    -0.024 A 
ATOM      4  C   UNL     1      -4.195   4.233   3.357  0.00  0.00    +0.024 A 
ATOM      5  C   UNL     1      -3.362   5.238   2.864  0.00  0.00    +0.052 A 
ATOM      6  C   UNL     1      -2.404   4.926   1.894  0.00  0.00    +0.021 A 
ATOM      7  C   UNL     1      -2.290   3.636   1.438  0.00  0.00    +0.024 A 
ATOM      8  C   UNL     1      -3.124   2.628   1.933  0.00  0.00    +0.033 A 
ATOM      9  N   UNL     1      -2.948   1.345   1.430  0.00  0.00    -0.322 N 
ATOM     10  C   UNL     1      -4.117   0.484   1.624  0.00  0.00    +0.126 C 
ENDROOT
BRANCH   5  11
ATOM     11  C   UNL     1      -3.487   6.580   3.349  0.00  0.00    +0.099 C 
ATOM     12  N   UNL     1      -3.586   7.644   3.733  0.00  0.00    -0.191 NA
ENDBRANCH   5  11
BRANCH   1  13
ATOM     13  N   UNL     1      -5.540  -0.496   3.366  0.00  0.00    -0.167 NA
BRANCH  13  14
ATOM     14  S   UNL     1      -5.278  -1.709   4.462  0.00  0.00    +0.079 S 
ATOM     15  O   UNL     1      -6.149  -2.774   4.105  0.00  0.00    -0.151 OA
ATOM     16  O   UNL     1      -3.870  -1.876   4.555  0.00  0.00    -0.151 OA
BRANCH  14  17
ATOM     17  C   UNL     1      -5.820  -1.120   6.031  0.00  0.00    +0.194 A 
ATOM     18  C   UNL     1      -4.929  -0.463   6.859  0.00  0.00    +0.049 A 
ATOM     19  C   UNL     1      -5.368   0.003   8.089  0.00  0.00    +0.005 A 
ATOM     20  C   UNL     1      -6.688  -0.221   8.447  0.00  0.00    +0.020 A 
ATOM     21  C   UNL     1      -7.520  -0.891   7.570  0.00  0.00    +0.113 A 
ATOM     22  N   UNL     1      -7.070  -1.315   6.405  0.00  0.00    -0.236 NA
ENDBRANCH  14  17
ENDBRANCH  13  14
BRANCH  13  23
ATOM     23  C   UNL     1      -6.817  -0.417   2.652  0.00  0.00    +0.137 C 
BRANCH  23  25
ATOM     24  C   UNL     1      -7.537  -2.080   0.988  0.00  0.00    -0.003 C 
ATOM     25  C   UNL     1      -6.690  -1.106   1.318  0.00  0.00    -0.010 C 
BRANCH  24  27
ATOM     26  C   UNL     1      -8.271  -3.737  -0.643  0.00  0.00    -0.000 C 
ATOM     27  C   UNL     1      -7.414  -2.750  -0.309  0.00  0.00    -0.000 C 
BRANCH  26  30
ATOM     28  C   UNL     1     -11.257  -5.527   0.922  0.00  0.00    +0.035 C 
ATOM     29  C   UNL     1     -10.172  -5.113  -0.039  0.00  0.00    -0.030 C 
ATOM     30  C   UNL     1      -9.325  -4.138   0.291  0.00  0.00    -0.005 C 
ENDBRANCH  26  30
ENDBRANCH  24  27
ENDBRANCH  23  25
ENDBRANCH  13  23
ENDBRANCH   1  13
BRANCH   9  31
ATOM     31  C   UNL     1      -2.552   1.384   0.016  0.00  0.00    +0.160 C 
BRANCH  31  32
ATOM     32  C   UNL     1      -2.269  -0.016  -0.465  0.00  0.00    +0.053 A 
ATOM     33  C   UNL     1      -3.127  -0.833  -1.106  0.00  0.00    +0.106 A 
ATOM     34  N   UNL     1      -2.489  -1.984  -1.366  0.00  0.00    -0.352 N 
ATOM     35  C   UNL     1      -1.270  -1.913  -0.906  0.00  0.00    +0.173 A 
ATOM     36  N   UNL     1      -1.093  -0.703  -0.333  0.00  0.00    -0.337 N 
ATOM     37  C   UNL     1       0.132  -0.214   0.305  0.00  0.00    +0.150 C 
ATOM     38  H   UNL     1      -3.011  -2.796  -1.893  0.00  0.00    +0.166 HD
ENDBRANCH  31  32
ENDBRANCH   9  31
TORSDOF 10
