REMARK  Name = ZINC35679294
REMARK  6 active torsions:
REMARK  status: ('A' for Active; 'I' for Inactive)
REMARK    1  A    between atoms: C_6  and  N_7
REMARK    2  A    between atoms: N_7  and  S_8
REMARK    3  A    between atoms: S_8  and  C_11
REMARK    4  A    between atoms: C_14  and  C_16
REMARK    5  A    between atoms: C_16  and  C_17
REMARK    6  A    between atoms: C_17  and  N_18
REMARK                            x       y       z     vdW  Elec       q    Type
REMARK                         _______ _______ _______ _____ _____    ______ ____
ROOT
ATOM      1  S   UNL     1      -1.173  -2.376   0.001  0.00  0.00    +0.098 S 
ATOM      2  O   UNL     1      -0.629  -2.768  -1.252  0.00  0.00    -0.148 OA
ATOM      3  O   UNL     1      -0.604  -2.781   1.239  0.00  0.00    -0.148 OA
ENDROOT
BRANCH   1   4
ATOM      4  C   UNL     1      -2.849  -2.922   0.015  0.00  0.00    +0.148 A 
ATOM      5  C   UNL     1      -3.669  -3.186  -1.032  0.00  0.00    +0.037 A 
ATOM      6  C   UNL     1      -4.961  -3.608  -0.780  0.00  0.00    +0.013 A 
ATOM      7  C   UNL     1      -5.369  -3.746   0.505  0.00  0.00    -0.010 A 
ATOM      8  S   UNL     1      -3.904  -3.278   1.410  0.00  0.00    -0.073 S 
BRANCH   7   9
ATOM      9  C   UNL     1      -6.711  -4.186   1.032  0.00  0.00    +0.023 C 
BRANCH   9  10
ATOM     10  C   UNL     1      -6.717  -5.706   1.206  0.00  0.00    -0.081 C 
BRANCH  10  11
ATOM     11  N   UNL     1      -8.025  -6.134   1.720  0.00  0.00    +0.378 N 
ATOM     12  H   UNL     1      -8.197  -5.693   2.611  0.00  0.00    -0.090 HD
ATOM     13  H   UNL     1      -8.747  -5.867   1.068  0.00  0.00    -0.090 HD
ATOM     14  H   UNL     1      -8.029  -7.136   1.835  0.00  0.00    -0.090 HD
ENDBRANCH  10  11
ENDBRANCH   9  10
ENDBRANCH   7   9
ENDBRANCH   1   4
BRANCH   1  15
ATOM     15  N   UNL     1      -1.198  -0.720   0.010  0.00  0.00    -0.097 NA
BRANCH  15  21
ATOM     16  C   UNL     1      -0.017   1.385   0.010  0.00  0.00    +0.028 A 
ATOM     17  C   UNL     1       1.171   2.090   0.002  0.00  0.00    +0.017 A 
ATOM     18  C   UNL     1       2.378   1.415  -0.013  0.00  0.00    +0.018 A 
ATOM     19  C   UNL     1       2.400   0.031  -0.021  0.00  0.00    +0.017 A 
ATOM     20  C   UNL     1       1.216  -0.679  -0.014  0.00  0.00    +0.028 A 
ATOM     21  C   UNL     1       0.002  -0.004   0.002  0.00  0.00    +0.074 A 
ATOM     22 BR   UNL     1       4.002   2.384  -0.025  0.00  0.00    -0.050 Br
ENDBRANCH  15  21
ENDBRANCH   1  15
TORSDOF 6
