REMARK  Name = ZINC36346408
REMARK  15 active torsions:
REMARK  status: ('A' for Active; 'I' for Inactive)
REMARK    1  A    between atoms: C_1  and  C_2
REMARK    2  A    between atoms: C_3  and  C_21
REMARK    3  A    between atoms: C_4  and  O_13
REMARK    4  A    between atoms: N_5  and  C_7
REMARK    5  A    between atoms: O_13  and  C_14
REMARK    6  A    between atoms: C_21  and  N_22
REMARK    7  A    between atoms: N_22  and  C_23
REMARK    8  A    between atoms: N_22  and  C_30
REMARK    9  A    between atoms: C_23  and  C_24
REMARK   10  A    between atoms: C_30  and  C_31
REMARK   11  A    between atoms: C_31  and  C_33
REMARK   12  A    between atoms: C_31  and  O_38
REMARK   13  A    between atoms: C_33  and  O_34
REMARK   14  A    between atoms: O_34  and  C_35
REMARK   15  A    between atoms: C_35  and  C_36
REMARK                            x       y       z     vdW  Elec       q    Type
REMARK                         _______ _______ _______ _____ _____    ______ ____
ROOT
ATOM      1  C   UNL     1      -0.414  -3.310  -1.227  0.00  0.00    +0.068 C 
ATOM      2  C   UNL     1      -1.282  -2.559  -2.205  0.00  0.00    +0.065 A 
ATOM      3  C   UNL     1      -1.164  -1.204  -2.529  0.00  0.00    +0.021 A 
ATOM      4  C   UNL     1      -2.125  -0.909  -3.444  0.00  0.00    +0.225 A 
ATOM      5  N   UNL     1      -2.825  -2.050  -3.685  0.00  0.00    -0.200 N 
ATOM      6  N   UNL     1      -2.269  -3.067  -2.898  0.00  0.00    -0.168 NA
ENDROOT
BRANCH   5   7
ATOM      7  C   UNL     1      -3.905  -2.186  -4.567  0.00  0.00    +0.069 A 
ATOM      8  C   UNL     1      -4.897  -1.215  -4.607  0.00  0.00    +0.028 A 
ATOM      9  C   UNL     1      -5.961  -1.351  -5.477  0.00  0.00    +0.002 A 
ATOM     10  C   UNL     1      -6.038  -2.453  -6.309  0.00  0.00    +0.000 A 
ATOM     11  C   UNL     1      -5.052  -3.422  -6.272  0.00  0.00    +0.002 A 
ATOM     12  C   UNL     1      -3.983  -3.288  -5.407  0.00  0.00    +0.028 A 
ENDBRANCH   5   7
BRANCH   4  13
ATOM     13  O   UNL     1      -2.346   0.304  -4.013  0.00  0.00    -0.438 OA
BRANCH  13  14
ATOM     14  C   UNL     1      -3.150   1.180  -3.355  0.00  0.00    +0.133 A 
ATOM     15  C   UNL     1      -3.621   0.873  -2.086  0.00  0.00    +0.046 A 
ATOM     16  C   UNL     1      -4.438   1.764  -1.419  0.00  0.00    +0.006 A 
ATOM     17  C   UNL     1      -4.787   2.963  -2.012  0.00  0.00    +0.038 A 
ATOM     18  C   UNL     1      -4.319   3.273  -3.278  0.00  0.00    +0.127 A 
ATOM     19  C   UNL     1      -3.495   2.385  -3.948  0.00  0.00    +0.084 A 
ATOM     20  F   UNL     1      -4.661   4.444  -3.857  0.00  0.00    -0.205 F 
ENDBRANCH  13  14
ENDBRANCH   4  13
BRANCH   3  21
ATOM     21  C   UNL     1      -0.151  -0.242  -1.964  0.00  0.00    -0.036 C 
BRANCH  21  22
ATOM     22  N   UNL     1       1.097  -0.337  -2.733  0.00  0.00    +0.386 N 
ATOM     23  H   UNL     1       1.413  -1.295  -2.744  0.00  0.00    -0.081 HD
BRANCH  22  24
ATOM     24  C   UNL     1       2.122   0.510  -2.109  0.00  0.00    -0.046 C 
BRANCH  24  25
ATOM     25  C   UNL     1       1.570   1.925  -1.922  0.00  0.00    +0.102 C 
ATOM     26  C   UNL     1       2.579   2.796  -1.131  0.00  0.00    +0.032 C 
ATOM     27  C   UNL     1       2.177   4.218  -1.607  0.00  0.00    +0.030 C 
ATOM     28  C   UNL     1       1.753   3.966  -3.070  0.00  0.00    +0.160 C 
ATOM     29  O   UNL     1       1.426   2.576  -3.194  0.00  0.00    -0.378 OA
ENDBRANCH  24  25
ENDBRANCH  22  24
BRANCH  22  30
ATOM     30  C   UNL     1       0.859   0.116  -4.110  0.00  0.00    -0.044 C 
BRANCH  30  31
ATOM     31  C   UNL     1       2.096  -0.173  -4.962  0.00  0.00    +0.124 C 
BRANCH  31  32
ATOM     32  O   UNL     1       3.153   0.711  -4.584  0.00  0.00    -0.391 OA
ATOM     33  H   UNL     1       2.942   1.647  -4.697  0.00  0.00    +0.210 HD
ENDBRANCH  31  32
BRANCH  31  34
ATOM     34  C   UNL     1       1.759   0.038  -6.439  0.00  0.00    +0.189 C 
BRANCH  34  35
ATOM     35  O   UNL     1       2.877  -0.343  -7.243  0.00  0.00    -0.373 OA
BRANCH  35  36
ATOM     36  C   UNL     1       2.665  -0.183  -8.648  0.00  0.00    +0.186 C 
BRANCH  36  37
ATOM     37  C   UNL     1       3.901  -0.613  -9.394  0.00  0.00    -0.007 C 
ATOM     38  C   UNL     1       3.794  -1.372 -10.457  0.00  0.00    +0.006 C 
ENDBRANCH  36  37
ENDBRANCH  35  36
ENDBRANCH  34  35
ENDBRANCH  31  34
ENDBRANCH  30  31
ENDBRANCH  22  30
ENDBRANCH  21  22
ENDBRANCH   3  21
TORSDOF 14
