REMARK  Name = ZINC15067578
REMARK  8 active torsions:
REMARK  status: ('A' for Active; 'I' for Inactive)
REMARK    1  A    between atoms: C_4  and  C_7
REMARK    2  A    between atoms: C_7  and  C_13
REMARK    3  A    between atoms: C_13  and  N_14
REMARK    4  A    between atoms: C_15  and  C_21
REMARK    5  A    between atoms: C_21  and  C_22
REMARK    6  A    between atoms: C_22  and  N_63
REMARK    7  A    between atoms: C_23  and  C_24
REMARK    8  A    between atoms: C_23  and  N_63
REMARK                            x       y       z     vdW  Elec       q    Type
REMARK                         _______ _______ _______ _____ _____    ______ ____
ROOT
ATOM      1  N   UNL     1       1.560  -1.074   1.456  0.00  0.00    -0.298 N 
ATOM      2  C   UNL     1       2.316   0.155   1.725  0.00  0.00    +0.075 C 
ATOM      3  C   UNL     1       3.449  -0.260   2.690  0.00  0.00    +0.031 C 
ATOM      4  C   UNL     1       3.613  -1.761   2.356  0.00  0.00    +0.098 C 
ATOM      5  C   UNL     1       2.267  -2.166   1.795  0.00  0.00    +0.216 C 
ATOM      6  O   UNL     1       1.881  -3.309   1.671  0.00  0.00    -0.276 OA
ENDROOT
BRANCH   1   7
ATOM      7  C   UNL     1       0.209  -1.107   0.890  0.00  0.00    +0.119 C 
BRANCH   7   8
ATOM      8  C   UNL     1      -0.815  -1.220   2.020  0.00  0.00    +0.016 C 
ATOM      9  C   UNL     1      -0.675  -2.585   2.703  0.00  0.00    +0.041 C 
ATOM     10  C   UNL     1      -0.996  -3.688   1.688  0.00  0.00    +0.160 C 
ATOM     11  O   UNL     1      -2.313  -3.489   1.170  0.00  0.00    -0.380 OA
ATOM     12  C   UNL     1      -2.488  -2.250   0.481  0.00  0.00    +0.160 C 
ATOM     13  C   UNL     1      -2.229  -1.090   1.446  0.00  0.00    +0.041 C 
BRANCH   8  17
ATOM     14  C   UNL     1      -0.141   1.883   4.877  0.00  0.00    +0.000 A 
ATOM     15  C   UNL     1      -0.137   0.560   5.279  0.00  0.00    +0.000 A 
ATOM     16  C   UNL     1      -0.354  -0.444   4.355  0.00  0.00    +0.004 A 
ATOM     17  C   UNL     1      -0.577  -0.126   3.028  0.00  0.00    -0.040 A 
ATOM     18  C   UNL     1      -0.576   1.197   2.625  0.00  0.00    +0.004 A 
ATOM     19  C   UNL     1      -0.363   2.201   3.550  0.00  0.00    +0.000 A 
ENDBRANCH   8  17
ENDBRANCH   7   8
ENDBRANCH   1   7
BRANCH   2  20
ATOM     20  C   UNL     1       2.904   0.711   0.426  0.00  0.00    +0.003 C 
BRANCH  20  21
ATOM     21  C   UNL     1       1.768   1.155  -0.498  0.00  0.00    -0.080 C 
BRANCH  21  22
ATOM     22  N   UNL     1       2.342   1.817  -1.685  0.00  0.00    +0.382 N 
ATOM     23  H   UNL     1       2.895   1.136  -2.219  0.00  0.00    -0.085 HD
ATOM     24  H   UNL     1       2.949   2.588  -1.382  0.00  0.00    -0.085 HD
BRANCH  22  25
ATOM     25  C   UNL     1       1.268   2.351  -2.543  0.00  0.00    -0.045 C 
BRANCH  25  26
ATOM     26  C   UNL     1       1.875   2.906  -3.806  0.00  0.00    -0.042 A 
ATOM     27  C   UNL     1       1.765   2.203  -4.991  0.00  0.00    +0.052 A 
ATOM     28  C   UNL     1       2.318   2.713  -6.154  0.00  0.00    +0.167 A 
ATOM     29  C   UNL     1       2.993   3.931  -6.125  0.00  0.00    +0.168 A 
ATOM     30  C   UNL     1       3.104   4.629  -4.934  0.00  0.00    +0.069 A 
ATOM     31  C   UNL     1       2.545   4.116  -3.776  0.00  0.00    +0.046 A 
ATOM     32 CL   UNL     1       2.685   4.992  -2.284  0.00  0.00    -0.083 Cl
ATOM     33  O   UNL     1       3.445   4.210  -7.382  0.00  0.00    -0.453 OA
ATOM     34  C   UNL     1       2.690   3.354  -8.261  0.00  0.00    +0.466 C 
ATOM     35  O   UNL     1       2.347   2.229  -7.431  0.00  0.00    -0.453 OA
ENDBRANCH  25  26
ENDBRANCH  22  25
ENDBRANCH  21  22
ENDBRANCH  20  21
ENDBRANCH   2  20
TORSDOF 8
