REMARK  Name = ZINC01131695
REMARK  8 active torsions:
REMARK  status: ('A' for Active; 'I' for Inactive)
REMARK    1  A    between atoms: C_1  and  C_2
REMARK    2  A    between atoms: C_2  and  C_3
REMARK    3  A    between atoms: C_3  and  C_4
REMARK    4  A    between atoms: C_9  and  O_10
REMARK    5  A    between atoms: O_10  and  C_11
REMARK    6  A    between atoms: C_11  and  C_12
REMARK    7  A    between atoms: C_16  and  C_31
REMARK    8  A    between atoms: C_17  and  C_20
REMARK                            x       y       z     vdW  Elec       q    Type
REMARK                         _______ _______ _______ _____ _____    ______ ____
ROOT
ATOM      1  C   UNL     1       0.210   7.955  -1.936  0.00  0.00    -0.005 A 
ATOM      2  C   UNL     1       0.163   6.596  -2.058  0.00  0.00    +0.022 A 
ATOM      3  C   UNL     1       0.659   5.791  -1.032  0.00  0.00    +0.065 A 
ATOM      4  C   UNL     1       1.207   6.371   0.125  0.00  0.00    +0.142 A 
ATOM      5  C   UNL     1       1.247   7.755   0.233  0.00  0.00    +0.093 A 
ATOM      6  C   UNL     1       0.751   8.540  -0.793  0.00  0.00    +0.128 A 
ATOM      7  O   UNL     1       1.687   5.592   1.115  0.00  0.00    -0.459 OA
ATOM      8  C   UNL     1       1.676   4.257   1.068  0.00  0.00    +0.114 A 
ATOM      9  C   UNL     1       1.176   3.567   0.010  0.00  0.00    +0.067 A 
ATOM     10  C   UNL     1       0.631   4.321  -1.132  0.00  0.00    +0.200 A 
ATOM     11  O   UNL     1       0.173   3.755  -2.111  0.00  0.00    -0.286 OA
ATOM     12  C   UNL     1       2.240   3.487   2.233  0.00  0.00    +0.087 C 
ENDROOT
BRANCH   9  13
ATOM     13  C   UNL     1       1.186   2.084   0.002  0.00  0.00    -0.007 A 
ATOM     14  C   UNL     1       2.397   1.395  -0.014  0.00  0.00    +0.012 A 
ATOM     15  C   UNL     1       2.408   0.014  -0.022  0.00  0.00    +0.050 A 
ATOM     16  C   UNL     1       1.212  -0.686  -0.014  0.00  0.00    +0.162 A 
ATOM     17  C   UNL     1       0.002  -0.004   0.002  0.00  0.00    +0.162 A 
ATOM     18  C   UNL     1      -0.017   1.379   0.010  0.00  0.00    +0.058 A 
ATOM     19  O   UNL     1      -1.168  -0.707   0.011  0.00  0.00    -0.488 OA
ATOM     20  C   UNL     1      -1.472  -1.430  -1.183  0.00  0.00    +0.232 C 
ATOM     21  C   UNL     1      -0.787  -2.788  -1.181  0.00  0.00    +0.082 C 
ATOM     22  C   UNL     1       0.729  -2.671  -1.214  0.00  0.00    +0.232 C 
ATOM     23  O   UNL     1       1.215  -2.051  -0.021  0.00  0.00    -0.488 OA
ENDBRANCH   9  13
BRANCH   1  24
ATOM     24  C   UNL     1      -0.326   8.827  -3.043  0.00  0.00    +0.038 C 
BRANCH  24  26
ATOM     25  C   UNL     1       0.277  10.120  -5.094  0.00  0.00    +0.004 C 
ATOM     26  C   UNL     1       0.821   9.235  -3.971  0.00  0.00    +0.001 C 
ENDBRANCH  24  26
ENDBRANCH   1  24
BRANCH   6  27
ATOM     27  O   UNL     1       0.791   9.893  -0.685  0.00  0.00    -0.482 OA
BRANCH  27  28
ATOM     28  C   UNL     1       1.357  10.431   0.512  0.00  0.00    +0.324 C 
BRANCH  28  29
ATOM     29  C   UNL     1       1.317  11.937   0.453  0.00  0.00    +0.248 C 
ATOM     30  O   UNL     1       0.849  12.494  -0.517  0.00  0.00    -0.272 OA
ATOM     31  N   UNL     1       1.800  12.664   1.480  0.00  0.00    -0.327 N 
ATOM     32  H   UNL     1       2.174  12.219   2.256  0.00  0.00    +0.145 HD
ATOM     33  H   UNL     1       1.774  13.633   1.442  0.00  0.00    +0.145 HD
ENDBRANCH  28  29
ENDBRANCH  27  28
ENDBRANCH   6  27
TORSDOF 6
