REMARK  Name = ZINC06118793
REMARK  7 active torsions:
REMARK  status: ('A' for Active; 'I' for Inactive)
REMARK    1  A    between atoms: C_6  and  O_11
REMARK    2  A    between atoms: O_11  and  C_12
REMARK    3  A    between atoms: C_14  and  O_27
REMARK    4  A    between atoms: C_16  and  O_26
REMARK    5  A    between atoms: C_18  and  O_25
REMARK    6  A    between atoms: C_20  and  C_23
REMARK    7  A    between atoms: C_23  and  O_24
REMARK                            x       y       z     vdW  Elec       q    Type
REMARK                         _______ _______ _______ _____ _____    ______ ____
ROOT
ATOM      1  C   UNL     1       0.785  -0.489  -1.221  0.00  0.00    +0.339 C 
ATOM      2  C   UNL     1       0.002  -0.004   0.002  0.00  0.00    +0.214 C 
ATOM      3  C   UNL     1      -0.019   1.528   0.010  0.00  0.00    +0.180 C 
ATOM      4  C   UNL     1       1.422   2.047  -0.001  0.00  0.00    +0.177 C 
ATOM      5  C   UNL     1       2.151   1.482  -1.223  0.00  0.00    +0.179 C 
ATOM      6  O   UNL     1       2.106   0.054  -1.185  0.00  0.00    -0.331 OA
ENDROOT
BRANCH   4   7
ATOM      7  O   UNL     1       1.415   3.474  -0.066  0.00  0.00    -0.386 OA
ATOM      8  H   UNL     1       0.965   3.900   0.676  0.00  0.00    +0.210 HD
ENDBRANCH   4   7
BRANCH   3   9
ATOM      9  O   UNL     1      -0.685   1.990   1.187  0.00  0.00    -0.386 OA
ATOM     10  H   UNL     1      -1.601   1.693   1.263  0.00  0.00    +0.210 HD
ENDBRANCH   3   9
BRANCH   2  11
ATOM     11  O   UNL     1      -1.337  -0.499  -0.061  0.00  0.00    -0.383 OA
ATOM     12  H   UNL     1      -1.399  -1.464  -0.070  0.00  0.00    +0.210 HD
ENDBRANCH   2  11
BRANCH   1  13
ATOM     13  O   UNL     1       0.124  -0.058  -2.412  0.00  0.00    -0.461 OA
BRANCH  13  19
ATOM     14  C   UNL     1       1.369  -1.825  -8.346  0.00  0.00    +0.001 A 
ATOM     15  C   UNL     1       0.313  -0.916  -8.354  0.00  0.00    +0.001 A 
ATOM     16  C   UNL     1      -0.156  -0.376  -7.196  0.00  0.00    +0.008 A 
ATOM     17  C   UNL     1       0.431  -0.738  -5.972  0.00  0.00    -0.014 A 
ATOM     18  C   UNL     1      -0.030  -0.206  -4.757  0.00  0.00    +0.054 A 
ATOM     19  C   UNL     1       0.568  -0.578  -3.586  0.00  0.00    +0.125 A 
ATOM     20  C   UNL     1       1.628  -1.490  -3.580  0.00  0.00    +0.046 A 
ATOM     21  C   UNL     1       2.094  -2.028  -4.739  0.00  0.00    +0.012 A 
ATOM     22  C   UNL     1       1.505  -1.663  -5.963  0.00  0.00    -0.018 A 
ATOM     23  C   UNL     1       1.962  -2.200  -7.179  0.00  0.00    +0.008 A 
ENDBRANCH  13  19
ENDBRANCH   1  13
BRANCH   5  24
ATOM     24  C   UNL     1       3.608   1.948  -1.209  0.00  0.00    +0.190 C 
BRANCH  24  25
ATOM     25  O   UNL     1       4.257   1.518  -2.407  0.00  0.00    -0.392 OA
ATOM     26  H   UNL     1       5.186   1.779  -2.467  0.00  0.00    +0.210 HD
ENDBRANCH  24  25
ENDBRANCH   5  24
TORSDOF 7
