REMARK  Name = ZINC39662474
REMARK  5 active torsions:
REMARK  status: ('A' for Active; 'I' for Inactive)
REMARK    1  A    between atoms: C_4  and  C_7
REMARK    2  A    between atoms: C_7  and  C_9
REMARK    3  A    between atoms: C_7  and  N_11
REMARK    4  A    between atoms: C_12  and  C_14
REMARK    5  A    between atoms: C_25  and  C_27
REMARK                            x       y       z     vdW  Elec       q    Type
REMARK                         _______ _______ _______ _____ _____    ______ ____
ROOT
ATOM      1  C   UNL     1       4.517  -3.597  -3.017  0.00  0.00    +0.100 C 
ATOM      2  C   UNL     1       4.109  -4.723  -2.041  0.00  0.00    +0.121 C 
ATOM      3  N   UNL     1       4.934  -5.886  -2.444  0.00  0.00    -0.296 N 
ATOM      4  C   UNL     1       6.257  -5.302  -2.772  0.00  0.00    +0.115 C 
ATOM      5  C   UNL     1       5.928  -3.980  -3.494  0.00  0.00    -0.004 C 
ATOM      6  C   UNL     1       6.931  -2.900  -3.099  0.00  0.00    -0.010 C 
ATOM      7  C   UNL     1       8.315  -3.275  -3.635  0.00  0.00    -0.082 C 
ATOM      8  N   UNL     1       8.258  -3.407  -5.095  0.00  0.00    +0.379 N 
ATOM      9  C   UNL     1       7.362  -4.510  -5.463  0.00  0.00    -0.082 C 
ATOM     10  C   UNL     1       5.937  -4.188  -5.005  0.00  0.00    -0.010 C 
ATOM     11  C   UNL     1       4.566  -7.181  -2.500  0.00  0.00    +0.249 C 
ATOM     12  O   UNL     1       5.389  -8.036  -2.762  0.00  0.00    -0.270 OA
ATOM     13  H   UNL     1       7.913  -2.548  -5.496  0.00  0.00    -0.086 HD
ATOM     14  H   UNL     1       9.183  -3.594  -5.452  0.00  0.00    -0.086 HD
ENDROOT
BRANCH  11  15
ATOM     15  C   UNL     1       3.163  -7.562  -2.243  0.00  0.00    +0.073 A 
ATOM     16  C   UNL     1       2.407  -6.861  -1.300  0.00  0.00    +0.036 A 
ATOM     17  C   UNL     1       1.096  -7.221  -1.065  0.00  0.00    +0.042 A 
ATOM     18  C   UNL     1       0.528  -8.276  -1.762  0.00  0.00    +0.023 A 
ATOM     19  C   UNL     1       1.268  -8.974  -2.696  0.00  0.00    +0.040 A 
ATOM     20  C   UNL     1       2.582  -8.621  -2.946  0.00  0.00    +0.136 A 
ATOM     21  F   UNL     1       3.303  -9.301  -3.865  0.00  0.00    -0.205 F 
ATOM     22 CL   UNL     1       0.157  -6.352   0.108  0.00  0.00    -0.084 Cl
ENDBRANCH  11  15
BRANCH   1  24
ATOM     23  N   UNL     1       4.299  -1.133  -2.985  0.00  0.00    -0.296 N 
ATOM     24  C   UNL     1       4.546  -2.270  -2.304  0.00  0.00    +0.219 C 
ATOM     25  O   UNL     1       4.793  -2.224  -1.117  0.00  0.00    -0.275 OA
ATOM     26  H   UNL     1       4.102  -1.170  -3.934  0.00  0.00    +0.150 HD
BRANCH  23  27
ATOM     27  C   UNL     1       4.327   0.157  -2.291  0.00  0.00    +0.207 C 
BRANCH  27  31
ATOM     28  C   UNL     1       5.200   3.259  -5.095  0.00  0.00    +0.000 A 
ATOM     29  C   UNL     1       5.763   3.289  -3.833  0.00  0.00    +0.000 A 
ATOM     30  C   UNL     1       5.481   2.286  -2.926  0.00  0.00    +0.006 A 
ATOM     31  C   UNL     1       4.635   1.252  -3.280  0.00  0.00    -0.013 A 
ATOM     32  C   UNL     1       4.071   1.222  -4.542  0.00  0.00    +0.006 A 
ATOM     33  C   UNL     1       4.354   2.225  -5.450  0.00  0.00    +0.000 A 
ENDBRANCH  27  31
BRANCH  27  34
ATOM     34  C   UNL     1       3.017   0.410  -1.671  0.00  0.00    +0.090 C 
ATOM     35  N   UNL     1       2.005   0.605  -1.192  0.00  0.00    -0.194 NA
ENDBRANCH  27  34
ENDBRANCH  23  27
ENDBRANCH   1  24
TORSDOF 5
