REMARK  Name = ZINC43216974
REMARK  9 active torsions:
REMARK  status: ('A' for Active; 'I' for Inactive)
REMARK    1  A    between atoms: C_1  and  C_2
REMARK    2  A    between atoms: C_2  and  C_3
REMARK    3  A    between atoms: C_3  and  C_4
REMARK    4  A    between atoms: C_4  and  C_6
REMARK    5  A    between atoms: C_4  and  N_32
REMARK    6  A    between atoms: C_8  and  C_11
REMARK    7  A    between atoms: N_16  and  C_19
REMARK    8  A    between atoms: C_19  and  C_20
REMARK    9  A    between atoms: C_19  and  C_26
REMARK                            x       y       z     vdW  Elec       q    Type
REMARK                         _______ _______ _______ _____ _____    ______ ____
ROOT
ATOM      1  C   UNL     1      -5.563  -4.081   1.899  0.00  0.00    +0.268 C 
ATOM      2  O   UNL     1      -6.726  -4.237   1.581  0.00  0.00    -0.268 OA
ATOM      3  N   UNL     1      -5.146  -4.444   3.129  0.00  0.00    -0.294 N 
ATOM      4  C   UNL     1      -3.787  -4.125   3.590  0.00  0.00    +0.123 C 
ATOM      5  C   UNL     1      -3.885  -3.440   4.957  0.00  0.00    +0.104 C 
ATOM      6  N   UNL     1      -4.668  -4.284   5.869  0.00  0.00    -0.289 NA
ATOM      7  C   UNL     1      -6.049  -4.444   5.393  0.00  0.00    +0.104 C 
ATOM      8  C   UNL     1      -6.041  -5.165   4.046  0.00  0.00    +0.123 C 
ENDROOT
BRANCH   1  11
ATOM      9  C   UNL     1      -2.764  -2.817   0.049  0.00  0.00    +0.182 A 
ATOM     10  N   UNL     1      -3.262  -3.386   1.105  0.00  0.00    -0.210 NA
ATOM     11  C   UNL     1      -4.609  -3.494   0.941  0.00  0.00    +0.164 A 
ATOM     12  C   UNL     1      -4.908  -2.960  -0.274  0.00  0.00    +0.230 A 
ATOM     13  O   UNL     1      -3.753  -2.539  -0.812  0.00  0.00    -0.449 OA
BRANCH   9  14
ATOM     14  C   UNL     1      -1.304  -2.510  -0.170  0.00  0.00    +0.013 C 
BRANCH  14  15
ATOM     15  N   UNL     1      -0.922  -2.897  -1.535  0.00  0.00    +0.386 N 
ATOM     16  H   UNL     1      -1.478  -2.380  -2.199  0.00  0.00    -0.089 HD
ATOM     17  H   UNL     1       0.055  -2.692  -1.681  0.00  0.00    -0.089 HD
ATOM     18  H   UNL     1      -1.081  -3.886  -1.660  0.00  0.00    -0.089 HD
ENDBRANCH  14  15
BRANCH  14  19
ATOM     19  C   UNL     1      -1.064  -1.011   0.021  0.00  0.00    -0.007 C 
BRANCH  19  21
ATOM     20  C   UNL     1       0.675   0.780   0.112  0.00  0.00    +0.004 C 
ATOM     21  C   UNL     1       0.435  -0.718  -0.079  0.00  0.00    -0.005 C 
ENDBRANCH  19  21
ENDBRANCH  14  19
ENDBRANCH   9  14
ENDBRANCH   1  11
BRANCH   6  22
ATOM     22  C   UNL     1      -4.642  -3.747   7.236  0.00  0.00    +0.117 C 
BRANCH  22  23
ATOM     23  C   UNL     1      -5.454  -4.637   8.141  0.00  0.00    -0.026 A 
ATOM     24  C   UNL     1      -5.387  -6.011   8.002  0.00  0.00    +0.005 A 
ATOM     25  C   UNL     1      -6.132  -6.827   8.832  0.00  0.00    +0.000 A 
ATOM     26  C   UNL     1      -6.944  -6.270   9.802  0.00  0.00    +0.000 A 
ATOM     27  C   UNL     1      -7.010  -4.896   9.942  0.00  0.00    +0.000 A 
ATOM     28  C   UNL     1      -6.262  -4.080   9.115  0.00  0.00    +0.005 A 
ENDBRANCH  22  23
BRANCH  22  29
ATOM     29  C   UNL     1      -3.218  -3.696   7.728  0.00  0.00    -0.026 A 
ATOM     30  C   UNL     1      -2.346  -4.726   7.431  0.00  0.00    +0.005 A 
ATOM     31  C   UNL     1      -1.041  -4.679   7.882  0.00  0.00    +0.000 A 
ATOM     32  C   UNL     1      -0.607  -3.601   8.630  0.00  0.00    +0.000 A 
ATOM     33  C   UNL     1      -1.478  -2.570   8.927  0.00  0.00    +0.000 A 
ATOM     34  C   UNL     1      -2.783  -2.615   8.472  0.00  0.00    +0.005 A 
ENDBRANCH  22  29
ENDBRANCH   6  22
TORSDOF 8
