REMARK  Name = ZINC20206289
REMARK  6 active torsions:
REMARK  status: ('A' for Active; 'I' for Inactive)
REMARK    1  A    between atoms: C_1  and  S_2
REMARK    2  A    between atoms: S_2  and  C_5
REMARK    3  A    between atoms: C_13  and  C_14
REMARK    4  A    between atoms: C_17  and  O_21
REMARK    5  A    between atoms: O_21  and  C_22
REMARK    6  A    between atoms: C_22  and  C_23
REMARK                            x       y       z     vdW  Elec       q    Type
REMARK                         _______ _______ _______ _____ _____    ______ ____
ROOT
ATOM      1  C   UNL     1      -4.787   1.500  -0.012  0.00  0.00    +0.257 C 
ATOM      2  N   UNL     1      -5.659   2.212   0.633  0.00  0.00    -0.174 NA
ATOM      3  S   UNL     1      -5.798   3.615  -0.274  0.00  0.00    +0.049 S 
ATOM      4  C   UNL     1      -4.755   3.237  -1.518  0.00  0.00    +0.183 C 
ATOM      5  N   UNL     1      -4.452   3.912  -2.605  0.00  0.00    -0.152 NA
ATOM      6  C   UNL     1      -3.619   3.368  -3.512  0.00  0.00    +0.273 C 
ATOM      7  O   UNL     1      -3.217   4.021  -4.461  0.00  0.00    -0.268 OA
ATOM      8  C   UNL     1      -3.202   1.956  -3.329  0.00  0.00    +0.078 C 
ATOM      9  C   UNL     1      -2.811   1.170  -4.389  0.00  0.00    +0.024 C 
ATOM     10  C   UNL     1      -3.231   1.435  -1.931  0.00  0.00    +0.117 C 
ATOM     11  N   UNL     1      -2.396   0.538  -1.482  0.00  0.00    -0.386 N 
ATOM     12  N   UNL     1      -4.246   2.012  -1.142  0.00  0.00    -0.203 N 
ATOM     13  H   UNL     1      -1.775   0.106  -2.089  0.00  0.00    +0.157 HD
ATOM     14  H   UNL     1      -2.397   0.303  -0.541  0.00  0.00    +0.157 HD
ENDROOT
BRANCH   9  15
ATOM     15  C   UNL     1      -2.978   1.655  -5.761  0.00  0.00    -0.023 A 
ATOM     16  C   UNL     1      -1.992   1.397  -6.724  0.00  0.00    +0.011 A 
ATOM     17  C   UNL     1      -2.151   1.850  -8.003  0.00  0.00    +0.048 A 
ATOM     18  C   UNL     1      -3.289   2.568  -8.356  0.00  0.00    +0.139 A 
ATOM     19  C   UNL     1      -4.275   2.830  -7.409  0.00  0.00    +0.083 A 
ATOM     20  C   UNL     1      -4.128   2.373  -6.118  0.00  0.00    +0.031 A 
ATOM     21 CL   UNL     1      -5.692   3.727  -7.857  0.00  0.00    -0.080 Cl
BRANCH  18  22
ATOM     22  O   UNL     1      -3.438   3.014  -9.629  0.00  0.00    -0.486 OA
BRANCH  22  23
ATOM     23  C   UNL     1      -2.389   2.711 -10.550  0.00  0.00    +0.266 C 
BRANCH  23  24
ATOM     24  C   UNL     1      -2.727   3.282 -11.903  0.00  0.00    +0.008 A 
ATOM     25  C   UNL     1      -3.907   3.980 -12.083  0.00  0.00    +0.008 A 
ATOM     26  C   UNL     1      -4.217   4.504 -13.324  0.00  0.00    +0.000 A 
ATOM     27  C   UNL     1      -3.348   4.332 -14.385  0.00  0.00    +0.001 A 
ATOM     28  C   UNL     1      -2.168   3.635 -14.206  0.00  0.00    +0.020 A 
ATOM     29  C   UNL     1      -1.854   3.114 -12.963  0.00  0.00    +0.047 A 
ATOM     30 CL   UNL     1      -0.369   2.244 -12.736  0.00  0.00    -0.083 Cl
ENDBRANCH  23  24
ENDBRANCH  22  23
ENDBRANCH  18  22
ENDBRANCH   9  15
BRANCH   1  32
ATOM     31  C   UNL     1      -2.825   0.200   1.568  0.00  0.00    +0.203 C 
ATOM     32  S   UNL     1      -4.314  -0.092   0.574  0.00  0.00    +0.026 S 
ATOM     33  O   UNL     1      -3.984  -0.826  -0.597  0.00  0.00    -0.167 OA
ATOM     34  O   UNL     1      -5.386  -0.505   1.409  0.00  0.00    -0.167 OA
ENDBRANCH   1  32
TORSDOF 5
