REMARK  Name = ZINC39668030
REMARK  10 active torsions:
REMARK  status: ('A' for Active; 'I' for Inactive)
REMARK    1  A    between atoms: C_1  and  C_2
REMARK    2  A    between atoms: C_5  and  C_8
REMARK    3  A    between atoms: C_11  and  C_14
REMARK    4  A    between atoms: C_14  and  S_15
REMARK    5  A    between atoms: S_15  and  C_16
REMARK    6  A    between atoms: C_20  and  C_24
REMARK    7  A    between atoms: C_21  and  C_23
REMARK    8  A    between atoms: C_24  and  C_25
REMARK    9  A    between atoms: C_25  and  C_26
REMARK   10  A    between atoms: C_26  and  O_28
REMARK                            x       y       z     vdW  Elec       q    Type
REMARK                         _______ _______ _______ _____ _____    ______ ____
ROOT
ATOM      1  S   UNL     1      -2.642  -6.311   0.581  0.00  0.00    -0.082 S 
ENDROOT
BRANCH   1   2
ATOM      2  C   UNL     1      -3.973  -7.274   1.220  0.00  0.00    +0.169 A 
ATOM      3  N   UNL     1      -5.256  -6.895   0.965  0.00  0.00    -0.302 N 
ATOM      4  C   UNL     1      -6.280  -7.628   1.451  0.00  0.00    +0.256 A 
ATOM      5  O   UNL     1      -7.436  -7.304   1.231  0.00  0.00    -0.267 OA
ATOM      6  C   UNL     1      -5.990  -8.772   2.215  0.00  0.00    +0.038 A 
ATOM      7  C   UNL     1      -4.684  -9.103   2.439  0.00  0.00    +0.049 A 
ATOM      8  N   UNL     1      -3.709  -8.351   1.934  0.00  0.00    -0.228 NA
ATOM      9  C   UNL     1      -4.347 -10.324   3.255  0.00  0.00    +0.066 C 
ATOM     10  H   UNL     1      -5.433  -6.102   0.435  0.00  0.00    +0.171 HD
BRANCH   6  11
ATOM     11  C   UNL     1      -7.101  -9.620   2.778  0.00  0.00    +0.053 C 
BRANCH  11  12
ATOM     12  C   UNL     1      -7.565  -9.032   4.112  0.00  0.00    +0.125 C 
BRANCH  12  13
ATOM     13  C   UNL     1      -8.677  -9.879   4.675  0.00  0.00    +0.305 C 
ATOM     14  O   UNL     1      -9.059 -10.853   4.071  0.00  0.00    -0.251 OA
BRANCH  13  15
ATOM     15  O   UNL     1      -9.242  -9.551   5.848  0.00  0.00    -0.481 OA
ATOM     16  H   UNL     1      -9.946 -10.153   6.127  0.00  0.00    +0.295 HD
ENDBRANCH  13  15
ENDBRANCH  12  13
ENDBRANCH  11  12
ENDBRANCH   6  11
ENDBRANCH   1   2
BRANCH   1  17
ATOM     17  C   UNL     1      -1.157  -7.180   1.155  0.00  0.00    +0.145 C 
BRANCH  17  21
ATOM     18  C   UNL     1       0.059  -4.253  -0.021  0.00  0.00    +0.168 C 
ATOM     19  N   UNL     1       0.069  -4.977  -1.092  0.00  0.00    -0.067 NA
ATOM     20  O   UNL     1       0.088  -6.355  -0.770  0.00  0.00    -0.369 OA
ATOM     21  C   UNL     1       0.089  -6.440   0.663  0.00  0.00    +0.302 C 
ATOM     22  N   UNL     1       0.075  -5.040   1.115  0.00  0.00    -0.289 N 
ATOM     23  H   UNL     1       0.075  -4.730   2.034  0.00  0.00    +0.151 HD
BRANCH  18  28
ATOM     24  C   UNL     1      -0.018   1.503   0.010  0.00  0.00    +0.044 C 
ATOM     25  C   UNL     1       0.002  -0.004   0.002  0.00  0.00    -0.050 A 
ATOM     26  C   UNL     1       0.006  -0.686  -1.201  0.00  0.00    +0.004 A 
ATOM     27  C   UNL     1       0.024  -2.066  -1.216  0.00  0.00    +0.011 A 
ATOM     28  C   UNL     1       0.040  -2.773  -0.013  0.00  0.00    +0.018 A 
ATOM     29  C   UNL     1       0.036  -2.079   1.197  0.00  0.00    +0.011 A 
ATOM     30  C   UNL     1       0.023  -0.699   1.198  0.00  0.00    +0.004 A 
ENDBRANCH  18  28
ENDBRANCH  17  21
ENDBRANCH   1  17
TORSDOF 8
