REMARK  Name = ZINC38743502
REMARK  10 active torsions:
REMARK  status: ('A' for Active; 'I' for Inactive)
REMARK    1  A    between atoms: C_1  and  O_2
REMARK    2  A    between atoms: O_2  and  C_3
REMARK    3  A    between atoms: C_6  and  C_9
REMARK    4  A    between atoms: C_11  and  C_15
REMARK    5  A    between atoms: C_23  and  C_25
REMARK    6  A    between atoms: C_25  and  O_26
REMARK    7  A    between atoms: O_26  and  C_27
REMARK    8  A    between atoms: C_31  and  O_33
REMARK    9  A    between atoms: O_33  and  C_34
REMARK   10  A    between atoms: C_34  and  C_35
REMARK                            x       y       z     vdW  Elec       q    Type
REMARK                         _______ _______ _______ _____ _____    ______ ____
ROOT
ATOM      1  C   UNL     1       4.670  -4.702  -5.639  0.00  0.00    +0.206 C 
ATOM      2  N   UNL     1       4.424  -6.079  -5.147  0.00  0.00    -0.231 NA
ATOM      3  N   UNL     1       5.087  -6.989  -6.097  0.00  0.00    -0.224 NA
ATOM      4  C   UNL     1       6.135  -6.136  -6.693  0.00  0.00    +0.240 C 
ATOM      5  N   UNL     1       5.378  -4.862  -6.930  0.00  0.00    -0.206 N 
ATOM      6  N   UNL     1       5.518  -4.364  -8.206  0.00  0.00    -0.175 NA
ATOM      7  C   UNL     1       6.010  -5.049  -9.185  0.00  0.00    +0.132 C 
ATOM      8  S   UNL     1       6.502  -6.625  -8.419  0.00  0.00    -0.064 S 
ATOM      9  H   UNL     1       4.790  -6.200  -4.215  0.00  0.00    +0.143 HD
ATOM     10  H   UNL     1       5.492  -7.779  -5.618  0.00  0.00    +0.144 HD
ENDROOT
BRANCH   1  13
ATOM     11  C   UNL     1       2.496  -2.494  -4.366  0.00  0.00    +0.091 C 
ATOM     12  C   UNL     1       2.595  -3.827  -4.537  0.00  0.00    +0.034 C 
ATOM     13  C   UNL     1       3.343  -3.970  -5.850  0.00  0.00    +0.190 C 
ATOM     14  N   UNL     1       3.575  -2.575  -6.259  0.00  0.00    -0.176 NA
ATOM     15  N   UNL     1       3.080  -1.838  -5.403  0.00  0.00    -0.154 NA
BRANCH  11  19
ATOM     16  C   UNL     1       0.606  -0.607  -1.056  0.00  0.00    +0.120 A 
ATOM     17  C   UNL     1       1.173   0.164  -2.062  0.00  0.00    +0.046 A 
ATOM     18  C   UNL     1       1.786  -0.445  -3.136  0.00  0.00    +0.013 A 
ATOM     19  C   UNL     1       1.837  -1.836  -3.211  0.00  0.00    +0.002 A 
ATOM     20  C   UNL     1       1.267  -2.607  -2.199  0.00  0.00    +0.013 A 
ATOM     21  C   UNL     1       0.659  -1.993  -1.125  0.00  0.00    +0.046 A 
BRANCH  16  23
ATOM     22  C   UNL     1      -0.017   1.425   0.010  0.00  0.00    +0.277 C 
ATOM     23  O   UNL     1       0.002  -0.004   0.002  0.00  0.00    -0.495 OA
ENDBRANCH  16  23
ENDBRANCH  11  19
ENDBRANCH   1  13
BRANCH   7  24
ATOM     24  C   UNL     1       6.153  -4.636 -10.628  0.00  0.00    +0.293 C 
BRANCH  24  25
ATOM     25  O   UNL     1       5.647  -3.311 -10.796  0.00  0.00    -0.485 OA
BRANCH  25  26
ATOM     26  C   UNL     1       5.702  -2.784 -12.048  0.00  0.00    +0.125 A 
ATOM     27  C   UNL     1       6.227  -3.531 -13.093  0.00  0.00    +0.046 A 
ATOM     28  C   UNL     1       6.283  -2.996 -14.366  0.00  0.00    +0.007 A 
ATOM     29  C   UNL     1       5.818  -1.716 -14.601  0.00  0.00    +0.046 A 
ATOM     30  C   UNL     1       5.292  -0.966 -13.560  0.00  0.00    +0.124 A 
ATOM     31  C   UNL     1       5.229  -1.502 -12.283  0.00  0.00    +0.091 A 
BRANCH  30  32
ATOM     32  O   UNL     1       4.835   0.293 -13.792  0.00  0.00    -0.487 OA
BRANCH  32  33
ATOM     33  C   UNL     1       4.926   0.779 -15.132  0.00  0.00    +0.264 C 
BRANCH  33  34
ATOM     34  C   UNL     1       4.375   2.180 -15.197  0.00  0.00    -0.010 A 
ATOM     35  C   UNL     1       3.032   2.384 -15.454  0.00  0.00    +0.007 A 
ATOM     36  C   UNL     1       2.526   3.669 -15.513  0.00  0.00    +0.000 A 
ATOM     37  C   UNL     1       3.364   4.751 -15.314  0.00  0.00    +0.000 A 
ATOM     38  C   UNL     1       4.707   4.548 -15.056  0.00  0.00    +0.000 A 
ATOM     39  C   UNL     1       5.211   3.262 -14.993  0.00  0.00    +0.007 A 
ENDBRANCH  33  34
ENDBRANCH  32  33
ENDBRANCH  30  32
ENDBRANCH  25  26
ENDBRANCH  24  25
ENDBRANCH   7  24
TORSDOF 9
