REMARK  Name = ZINC17307973
REMARK  14 active torsions:
REMARK  status: ('A' for Active; 'I' for Inactive)
REMARK    1  A    between atoms: C_1  and  C_2
REMARK    2  A    between atoms: C_2  and  O_3
REMARK    3  A    between atoms: O_3  and  C_4
REMARK    4  A    between atoms: C_4  and  C_6
REMARK    5  A    between atoms: C_7  and  C_32
REMARK    6  A    between atoms: C_8  and  C_28
REMARK    7  A    between atoms: C_10  and  N_11
REMARK    8  A    between atoms: C_12  and  C_14
REMARK    9  A    between atoms: C_14  and  N_61
REMARK   10  A    between atoms: C_15  and  C_16
REMARK   11  A    between atoms: C_15  and  N_61
REMARK   12  A    between atoms: C_21  and  C_22
REMARK   13  A    between atoms: C_21  and  N_61
REMARK   14  A    between atoms: N_30  and  C_31
REMARK                            x       y       z     vdW  Elec       q    Type
REMARK                         _______ _______ _______ _____ _____    ______ ____
ROOT
ATOM      1  N   UNL     1       0.120   1.261   0.161  0.00  0.00    -0.281 N 
ATOM      2  C   UNL     1      -1.077   1.877   0.098  0.00  0.00    +0.201 C 
ATOM      3  O   UNL     1      -1.133   3.084  -0.013  0.00  0.00    -0.278 OA
ATOM      4  H   UNL     1       0.165   0.296   0.250  0.00  0.00    +0.155 HD
ENDROOT
BRANCH   1   9
ATOM      5  C   UNL     1       2.607   1.554   0.142  0.00  0.00    +0.091 A 
ATOM      6  C   UNL     1       3.614   2.504   0.049  0.00  0.00    -0.015 A 
ATOM      7  C   UNL     1       3.242   3.815  -0.072  0.00  0.00    +0.079 A 
ATOM      8  S   UNL     1       1.462   3.720  -0.064  0.00  0.00    -0.068 S 
ATOM      9  C   UNL     1       1.283   2.003   0.094  0.00  0.00    +0.087 A 
ATOM     10  C   UNL     1       5.067   2.106   0.087  0.00  0.00    +0.046 C 
BRANCH   7  11
ATOM     11  C   UNL     1       4.094   5.001  -0.180  0.00  0.00    +0.251 C 
ATOM     12  O   UNL     1       5.305   4.883  -0.170  0.00  0.00    -0.270 OA
ATOM     13  N   UNL     1       3.537   6.223  -0.293  0.00  0.00    -0.314 N 
ATOM     14  C   UNL     1       4.389   7.409  -0.401  0.00  0.00    +0.128 C 
ATOM     15  H   UNL     1       2.571   6.317  -0.301  0.00  0.00    +0.149 HD
ENDBRANCH   7  11
BRANCH   5  16
ATOM     16  C   UNL     1       2.920   0.128   0.281  0.00  0.00    +0.342 C 
ATOM     17  O   UNL     1       3.054  -0.565  -0.710  0.00  0.00    -0.245 OA
BRANCH  16  18
ATOM     18  O   UNL     1       3.059  -0.416   1.507  0.00  0.00    -0.461 OA
BRANCH  18  20
ATOM     19  C   UNL     1       3.488  -2.266   3.032  0.00  0.00    +0.048 C 
ATOM     20  C   UNL     1       3.369  -1.833   1.569  0.00  0.00    +0.229 C 
ENDBRANCH  18  20
ENDBRANCH  16  18
ENDBRANCH   5  16
ENDBRANCH   1   9
BRANCH   2  21
ATOM     21  C   UNL     1      -2.346   1.067   0.165  0.00  0.00    +0.019 C 
BRANCH  21  22
ATOM     22  N   UNL     1      -3.502   1.986   0.096  0.00  0.00    +0.390 N 
ATOM     23  H   UNL     1      -3.386   2.723   0.802  0.00  0.00    -0.081 HD
BRANCH  22  24
ATOM     24  C   UNL     1      -3.572   2.610  -1.242  0.00  0.00    -0.035 C 
BRANCH  24  25
ATOM     25  C   UNL     1      -4.503   3.793  -1.176  0.00  0.00    -0.027 A 
ATOM     26  C   UNL     1      -4.229   5.076  -0.836  0.00  0.00    +0.009 A 
ATOM     27  C   UNL     1      -5.253   6.005  -0.847  0.00  0.00    +0.008 A 
ATOM     28  C   UNL     1      -6.500   5.605  -1.197  0.00  0.00    +0.045 A 
ATOM     29  S   UNL     1      -6.250   3.870  -1.534  0.00  0.00    -0.103 S 
ENDBRANCH  24  25
ENDBRANCH  22  24
BRANCH  22  30
ATOM     30  C   UNL     1      -4.752   1.247   0.374  0.00  0.00    -0.046 C 
BRANCH  30  31
ATOM     31  C   UNL     1      -4.857   1.014   1.883  0.00  0.00    +0.102 C 
ATOM     32  C   UNL     1      -6.139   0.219   2.216  0.00  0.00    +0.032 C 
ATOM     33  C   UNL     1      -6.629   0.837   3.545  0.00  0.00    +0.030 C 
ATOM     34  C   UNL     1      -5.585   1.931   3.858  0.00  0.00    +0.160 C 
ATOM     35  O   UNL     1      -5.011   2.271   2.577  0.00  0.00    -0.378 OA
ENDBRANCH  30  31
ENDBRANCH  22  30
ENDBRANCH  21  22
ENDBRANCH   2  21
TORSDOF 11
