REMARK  Name = ZINC61594297
REMARK  9 active torsions:
REMARK  status: ('A' for Active; 'I' for Inactive)
REMARK    1  A    between atoms: C_1  and  C_2
REMARK    2  A    between atoms: C_2  and  C_3
REMARK    3  A    between atoms: C_3  and  C_5
REMARK    4  A    between atoms: C_3  and  N_23
REMARK    5  A    between atoms: C_5  and  C_7
REMARK    6  A    between atoms: C_5  and  S_13
REMARK    7  A    between atoms: S_13  and  C_14
REMARK    8  A    between atoms: N_20  and  C_21
REMARK    9  A    between atoms: C_21  and  C_22
REMARK                            x       y       z     vdW  Elec       q    Type
REMARK                         _______ _______ _______ _____ _____    ______ ____
ROOT
ATOM      1  C   UNL     1      -1.505  -1.845   0.107  0.00  0.00    +0.076 C 
ENDROOT
BRANCH   1   2
ATOM      2  C   UNL     1      -0.773  -2.267   1.355  0.00  0.00    +0.003 A 
ATOM      3  C   UNL     1       0.347  -3.021   1.474  0.00  0.00    +0.027 A 
ATOM      4  C   UNL     1       0.848  -3.285   2.736  0.00  0.00    +0.025 A 
ATOM      5  C   UNL     1       0.203  -2.781   3.817  0.00  0.00    +0.060 A 
ATOM      6  S   UNL     1      -1.151  -1.897   3.060  0.00  0.00    -0.099 S 
ATOM      7 BR   UNL     1       2.407  -4.333   2.950  0.00  0.00    -0.050 Br
ENDBRANCH   1   2
BRANCH   1   8
ATOM      8  C   UNL     1      -1.528  -0.317   0.022  0.00  0.00    -0.057 C 
BRANCH   8   9
ATOM      9  N   UNL     1      -0.156   0.199   0.121  0.00  0.00    +0.381 N 
ATOM     10  H   UNL     1       0.259  -0.113   0.986  0.00  0.00    -0.090 HD
ATOM     11  H   UNL     1       0.389  -0.143  -0.657  0.00  0.00    -0.090 HD
ATOM     12  H   UNL     1      -0.174   1.208   0.101  0.00  0.00    -0.090 HD
ENDBRANCH   8   9
BRANCH   8  14
ATOM     13  C   UNL     1      -2.495   1.762   1.013  0.00  0.00    +0.002 C 
ATOM     14  C   UNL     1      -2.368   0.245   1.169  0.00  0.00    -0.018 C 
ENDBRANCH   8  14
ENDBRANCH   1   8
BRANCH   1  15
ATOM     15  S   UNL     1      -3.206  -2.473   0.163  0.00  0.00    -0.079 S 
BRANCH  15  16
ATOM     16  C   UNL     1      -3.854  -2.088  -1.430  0.00  0.00    +0.193 A 
ATOM     17  N   UNL     1      -3.234  -1.423  -2.362  0.00  0.00    -0.145 NA
ATOM     18  N   UNL     1      -4.087  -1.332  -3.470  0.00  0.00    -0.226 N 
ATOM     19  H   UNL     1      -3.889  -0.891  -4.312  0.00  0.00    +0.194 HD
ATOM     20  C   UNL     1      -5.231  -1.970  -3.153  0.00  0.00    +0.345 A 
ATOM     21  O   UNL     1      -6.207  -2.099  -3.871  0.00  0.00    -0.245 OA
ATOM     22  N   UNL     1      -5.098  -2.446  -1.899  0.00  0.00    -0.271 N 
BRANCH  22  23
ATOM     23  C   UNL     1      -6.105  -3.211  -1.159  0.00  0.00    +0.125 C 
ATOM     24  C   UNL     1      -7.006  -2.249  -0.382  0.00  0.00    +0.027 C 
ENDBRANCH  22  23
ENDBRANCH  15  16
ENDBRANCH   1  15
TORSDOF 7
