REMARK  Name = ZINC15729688
REMARK  10 active torsions:
REMARK  status: ('A' for Active; 'I' for Inactive)
REMARK    1  A    between atoms: C_1  and  C_2
REMARK    2  A    between atoms: C_5  and  C_35
REMARK    3  A    between atoms: C_6  and  C_8
REMARK    4  A    between atoms: C_8  and  N_68
REMARK    5  A    between atoms: C_11  and  C_14
REMARK    6  A    between atoms: C_14  and  N_15
REMARK    7  A    between atoms: C_16  and  C_18
REMARK    8  A    between atoms: C_20  and  C_23
REMARK    9  A    between atoms: N_25  and  C_29
REMARK   10  A    between atoms: C_27  and  C_28
REMARK                            x       y       z     vdW  Elec       q    Type
REMARK                         _______ _______ _______ _____ _____    ______ ____
ROOT
ATOM      1  N   UNL     1      -0.301   1.752  -0.081  0.00  0.00    -0.307 N 
ATOM      2  C   UNL     1       0.807   2.519  -0.102  0.00  0.00    +0.302 C 
ATOM      3  O   UNL     1       1.905   1.999  -0.096  0.00  0.00    -0.265 OA
ATOM      4  H   UNL     1      -1.178   2.166  -0.089  0.00  0.00    +0.149 HD
ENDROOT
BRANCH   2   5
ATOM      5  C   UNL     1       0.686   3.996  -0.132  0.00  0.00    +0.314 A 
ATOM      6  N   UNL     1       1.676   4.863  -0.155  0.00  0.00    -0.183 NA
ATOM      7  C   UNL     1       1.093   6.079  -0.179  0.00  0.00    +0.206 A 
ATOM      8  N   UNL     1      -0.203   5.890  -0.169  0.00  0.00    -0.055 NA
ATOM      9  O   UNL     1      -0.454   4.704  -0.148  0.00  0.00    -0.328 OA
BRANCH   7  10
ATOM     10  C   UNL     1       1.790   7.388  -0.210  0.00  0.00    +0.063 A 
ATOM     11  C   UNL     1       3.141   7.583  -0.214  0.00  0.00    +0.126 A 
ATOM     12  N   UNL     1       3.361   8.914  -0.249  0.00  0.00    -0.239 N 
ATOM     13  N   UNL     1       2.120   9.562  -0.258  0.00  0.00    -0.171 NA
ATOM     14  C   UNL     1       1.178   8.658  -0.235  0.00  0.00    +0.071 A 
ATOM     15  C   UNL     1      -0.305   8.925  -0.234  0.00  0.00    +0.068 C 
BRANCH  12  16
ATOM     16  C   UNL     1       4.615   9.539  -0.267  0.00  0.00    +0.065 A 
ATOM     17  C   UNL     1       5.774   8.775  -0.249  0.00  0.00    +0.028 A 
ATOM     18  C   UNL     1       7.009   9.394  -0.273  0.00  0.00    +0.002 A 
ATOM     19  C   UNL     1       7.091  10.774  -0.302  0.00  0.00    +0.000 A 
ATOM     20  C   UNL     1       5.939  11.538  -0.314  0.00  0.00    +0.002 A 
ATOM     21  C   UNL     1       4.702  10.925  -0.297  0.00  0.00    +0.028 A 
ENDBRANCH  12  16
ENDBRANCH   7  10
ENDBRANCH   2   5
BRANCH   1  22
ATOM     22  C   UNL     1      -0.181   0.292  -0.051  0.00  0.00    +0.108 C 
BRANCH  22  25
ATOM     23  C   UNL     1      -2.852  -2.481  -0.044  0.00  0.00    -0.078 C 
ATOM     24  C   UNL     1      -1.456  -1.857  -0.126  0.00  0.00    -0.014 C 
ATOM     25  C   UNL     1      -1.577  -0.334  -0.031  0.00  0.00    +0.003 C 
ATOM     26  C   UNL     1      -2.285   0.034   1.276  0.00  0.00    -0.014 C 
ATOM     27  C   UNL     1      -3.656  -0.644   1.317  0.00  0.00    -0.078 C 
ATOM     28  N   UNL     1      -3.469  -2.109   1.246  0.00  0.00    +0.382 N 
ATOM     29  H   UNL     1      -2.847  -2.403   2.009  0.00  0.00    -0.081 HD
BRANCH  28  30
ATOM     30  C   UNL     1      -4.770  -2.792   1.399  0.00  0.00    -0.043 C 
BRANCH  30  36
ATOM     31  C   UNL     1      -7.752  -0.814   4.898  0.00  0.00    +0.044 C 
ATOM     32  C   UNL     1      -6.630  -1.744   4.512  0.00  0.00    -0.050 A 
ATOM     33  C   UNL     1      -5.999  -2.505   5.480  0.00  0.00    +0.003 A 
ATOM     34  C   UNL     1      -4.971  -3.357   5.126  0.00  0.00    +0.004 A 
ATOM     35  C   UNL     1      -4.576  -3.454   3.805  0.00  0.00    -0.049 A 
ATOM     36  C   UNL     1      -5.204  -2.690   2.838  0.00  0.00    -0.061 A 
ATOM     37  C   UNL     1      -6.232  -1.837   3.192  0.00  0.00    +0.005 A 
ATOM     38  C   UNL     1      -3.459  -4.389   3.418  0.00  0.00    +0.044 C 
ENDBRANCH  30  36
ENDBRANCH  28  30
ENDBRANCH  22  25
ENDBRANCH   1  22
TORSDOF 7
