REMARK  Name = ZINC38790954
REMARK  8 active torsions:
REMARK  status: ('A' for Active; 'I' for Inactive)
REMARK    1  A    between atoms: C_1  and  C_2
REMARK    2  A    between atoms: C_2  and  O_3
REMARK    3  A    between atoms: O_3  and  C_4
REMARK    4  A    between atoms: C_4  and  C_6
REMARK    5  A    between atoms: C_10  and  N_11
REMARK    6  A    between atoms: C_12  and  C_14
REMARK    7  A    between atoms: C_14  and  N_15
REMARK    8  A    between atoms: C_20  and  C_22
REMARK                            x       y       z     vdW  Elec       q    Type
REMARK                         _______ _______ _______ _____ _____    ______ ____
ROOT
ATOM      1  N   UNL     1      -0.604  -2.455  -3.925  0.00  0.00    -0.278 N 
ATOM      2  C   UNL     1      -1.119  -2.783  -5.126  0.00  0.00    +0.239 C 
ATOM      3  O   UNL     1      -0.397  -3.225  -5.995  0.00  0.00    -0.273 OA
ATOM      4  H   UNL     1      -1.181  -2.102  -3.230  0.00  0.00    +0.155 HD
ENDROOT
BRANCH   1   9
ATOM      5  C   UNL     1       1.449  -2.344  -2.516  0.00  0.00    +0.091 A 
ATOM      6  C   UNL     1       2.876  -2.619  -2.515  0.00  0.00    -0.021 A 
ATOM      7  C   UNL     1       3.343  -3.117  -3.680  0.00  0.00    -0.004 A 
ATOM      8  S   UNL     1       1.922  -3.212  -4.730  0.00  0.00    -0.077 S 
ATOM      9  C   UNL     1       0.750  -2.624  -3.681  0.00  0.00    +0.086 A 
ATOM     10  C   UNL     1       4.757  -3.498  -3.993  0.00  0.00    +0.043 C 
ATOM     11  C   UNL     1       5.669  -2.887  -2.920  0.00  0.00    +0.005 C 
ATOM     12  C   UNL     1       5.082  -3.191  -1.538  0.00  0.00    +0.005 C 
ATOM     13  C   UNL     1       3.799  -2.383  -1.329  0.00  0.00    +0.037 C 
BRANCH   5  14
ATOM     14  C   UNL     1       0.776  -1.800  -1.335  0.00  0.00    +0.342 C 
ATOM     15  O   UNL     1       0.312  -2.552  -0.499  0.00  0.00    -0.245 OA
BRANCH  14  16
ATOM     16  O   UNL     1       0.671  -0.465  -1.174  0.00  0.00    -0.461 OA
BRANCH  16  18
ATOM     17  C   UNL     1      -0.019   1.526   0.010  0.00  0.00    +0.048 C 
ATOM     18  C   UNL     1       0.002  -0.004   0.002  0.00  0.00    +0.229 C 
ENDBRANCH  16  18
ENDBRANCH  14  16
ENDBRANCH   5  14
ENDBRANCH   1   9
BRANCH   2  19
ATOM     19  C   UNL     1      -2.591  -2.599  -5.391  0.00  0.00    +0.243 C 
BRANCH  19  20
ATOM     20  N   UNL     1      -2.898  -3.024  -6.759  0.00  0.00    -0.220 N 
ATOM     21  C   UNL     1      -3.246  -4.305  -6.984  0.00  0.00    +0.268 A 
ATOM     22  O   UNL     1      -3.303  -5.098  -6.058  0.00  0.00    -0.266 OA
ATOM     23  C   UNL     1      -3.544  -4.724  -8.300  0.00  0.00    +0.074 A 
ATOM     24  C   UNL     1      -3.465  -3.798  -9.298  0.00  0.00    +0.035 A 
ATOM     25  C   UNL     1      -3.090  -2.478  -8.957  0.00  0.00    +0.092 A 
ATOM     26  N   UNL     1      -2.833  -2.164  -7.710  0.00  0.00    -0.168 NA
BRANCH  25  27
ATOM     27  C   UNL     1      -2.993  -1.442 -10.015  0.00  0.00    +0.002 A 
ATOM     28  C   UNL     1      -3.275  -1.766 -11.340  0.00  0.00    +0.011 A 
ATOM     29  C   UNL     1      -3.183  -0.799 -12.320  0.00  0.00    +0.016 A 
ATOM     30  C   UNL     1      -2.811   0.492 -11.988  0.00  0.00    +0.018 A 
ATOM     31  C   UNL     1      -2.529   0.820 -10.673  0.00  0.00    +0.016 A 
ATOM     32  C   UNL     1      -2.624  -0.139  -9.685  0.00  0.00    +0.011 A 
ATOM     33 BR   UNL     1      -2.687   1.813 -13.336  0.00  0.00    -0.050 Br
ENDBRANCH  25  27
ENDBRANCH  19  20
ENDBRANCH   2  19
TORSDOF 7
