REMARK  Name = ZINC00902725
REMARK  7 active torsions:
REMARK  status: ('A' for Active; 'I' for Inactive)
REMARK    1  A    between atoms: C_1  and  C_2
REMARK    2  A    between atoms: C_2  and  C_3
REMARK    3  A    between atoms: C_3  and  C_5
REMARK    4  A    between atoms: C_3  and  N_6
REMARK    5  A    between atoms: N_11  and  C_12
REMARK    6  A    between atoms: C_12  and  C_13
REMARK    7  A    between atoms: N_26  and  C_27
REMARK                            x       y       z     vdW  Elec       q    Type
REMARK                         _______ _______ _______ _____ _____    ______ ____
ROOT
ATOM      1  N   UNL     1       0.215  -0.725  -3.320  0.00  0.00    -0.312 N 
ATOM      2  C   UNL     1       0.585  -0.578  -4.636  0.00  0.00    +0.199 A 
ATOM      3  N   UNL     1      -0.245  -0.485  -5.655  0.00  0.00    -0.196 NA
ATOM      4  C   UNL     1       0.441  -0.351  -6.791  0.00  0.00    +0.170 A 
ATOM      5  C   UNL     1       1.793  -0.359  -6.468  0.00  0.00    +0.153 A 
ATOM      6  N   UNL     1       1.865  -0.500  -5.089  0.00  0.00    -0.302 N 
ATOM      7  C   UNL     1       2.745  -0.230  -7.495  0.00  0.00    +0.280 A 
ATOM      8  O   UNL     1       3.936  -0.234  -7.235  0.00  0.00    -0.265 OA
ATOM      9  N   UNL     1       2.327  -0.102  -8.771  0.00  0.00    -0.273 N 
ATOM     10  H   UNL     1       3.001  -0.011  -9.504  0.00  0.00    +0.173 HD
ATOM     11  C   UNL     1       1.017  -0.096  -9.073  0.00  0.00    +0.331 A 
ATOM     12  O   UNL     1       0.676   0.021 -10.234  0.00  0.00    -0.246 OA
ATOM     13  N   UNL     1       0.073  -0.216  -8.120  0.00  0.00    -0.280 N 
ATOM     14  C   UNL     1      -1.345  -0.204  -8.490  0.00  0.00    +0.155 C 
ATOM     15  H   UNL     1       0.893  -0.806  -2.631  0.00  0.00    +0.149 HD
ENDROOT
BRANCH   1  16
ATOM     16  C   UNL     1      -1.204  -0.761  -2.957  0.00  0.00    +0.070 C 
ATOM     17  C   UNL     1      -1.614   0.589  -2.366  0.00  0.00    +0.028 C 
BRANCH  16  19
ATOM     18  C   UNL     1      -1.178  -3.228  -2.563  0.00  0.00    +0.005 C 
ATOM     19  C   UNL     1      -1.439  -1.863  -1.922  0.00  0.00    +0.018 C 
ENDBRANCH  16  19
ENDBRANCH   1  16
BRANCH   6  20
ATOM     20  C   UNL     1       3.083  -0.556  -4.278  0.00  0.00    +0.162 C 
BRANCH  20  21
ATOM     21  C   UNL     1       3.541  -1.986  -4.157  0.00  0.00    -0.009 A 
ATOM     22  C   UNL     1       3.723  -2.752  -5.293  0.00  0.00    +0.007 A 
ATOM     23  C   UNL     1       4.142  -4.065  -5.182  0.00  0.00    +0.000 A 
ATOM     24  C   UNL     1       4.380  -4.612  -3.935  0.00  0.00    +0.001 A 
ATOM     25  C   UNL     1       4.199  -3.847  -2.798  0.00  0.00    +0.020 A 
ATOM     26  C   UNL     1       3.784  -2.532  -2.909  0.00  0.00    +0.046 A 
ATOM     27 CL   UNL     1       3.563  -1.568  -1.482  0.00  0.00    -0.083 Cl
ENDBRANCH  20  21
ENDBRANCH   6  20
TORSDOF 4
