REMARK  Name = ZINC10263085
REMARK  11 active torsions:
REMARK  status: ('A' for Active; 'I' for Inactive)
REMARK    1  A    between atoms: C_1  and  C_2
REMARK    2  A    between atoms: C_2  and  C_4
REMARK    3  A    between atoms: C_2  and  O_20
REMARK    4  A    between atoms: N_6  and  C_7
REMARK    5  A    between atoms: C_7  and  C_8
REMARK    6  A    between atoms: N_10  and  C_11
REMARK    7  A    between atoms: O_20  and  C_21
REMARK    8  A    between atoms: C_21  and  C_23
REMARK    9  A    between atoms: C_25  and  N_31
REMARK   10  A    between atoms: C_28  and  N_29
REMARK   11  A    between atoms: N_29  and  C_30
REMARK                            x       y       z     vdW  Elec       q    Type
REMARK                         _______ _______ _______ _____ _____    ______ ____
ROOT
ATOM      1  C   UNL     1      -5.790  -2.135   0.438  0.00  0.00    +0.254 C 
ATOM      2  O   UNL     1      -4.683  -2.481   0.792  0.00  0.00    -0.272 OA
ATOM      3  N   UNL     1      -6.832  -2.981   0.563  0.00  0.00    -0.304 N 
ATOM      4  H   UNL     1      -7.718  -2.704   0.280  0.00  0.00    +0.149 HD
ENDROOT
BRANCH   1   6
ATOM      5  C   UNL     1      -6.549  -0.884  -1.564  0.00  0.00    +0.062 C 
ATOM      6  C   UNL     1      -6.001  -0.760  -0.141  0.00  0.00    +0.259 C 
BRANCH   6   7
ATOM      7  O   UNL     1      -4.736  -0.048  -0.170  0.00  0.00    -0.449 OA
BRANCH   7   8
ATOM      8  C   UNL     1      -4.787   1.294  -0.049  0.00  0.00    +0.342 C 
ATOM      9  O   UNL     1      -5.858   1.853   0.078  0.00  0.00    -0.245 OA
BRANCH   8  10
ATOM     10  C   UNL     1      -3.543   2.082  -0.069  0.00  0.00    +0.082 A 
ATOM     11  C   UNL     1      -2.302   1.438  -0.105  0.00  0.00    +0.049 A 
ATOM     12  C   UNL     1      -1.143   2.182  -0.124  0.00  0.00    +0.127 A 
ATOM     13  C   UNL     1      -1.198   3.567  -0.103  0.00  0.00    +0.034 A 
ATOM     14  C   UNL     1      -2.414   4.217  -0.073  0.00  0.00    +0.026 A 
ATOM     15  C   UNL     1      -3.595   3.485  -0.053  0.00  0.00    +0.041 A 
BRANCH  15  16
ATOM     16  N   UNL     1      -4.820   4.137  -0.018  0.00  0.00    -0.346 N 
ATOM     17  C   UNL     1      -4.875   5.598  -0.115  0.00  0.00    +0.125 C 
ATOM     18  H   UNL     1      -5.639   3.626   0.071  0.00  0.00    +0.146 HD
ENDBRANCH  15  16
BRANCH  12  19
ATOM     19  N   UNL     1       0.169   1.498  -0.163  0.00  0.00    +0.056 N 
ATOM     20  O   UNL     1       0.222   0.281  -0.176  0.00  0.00    -0.126 OA
ATOM     21  O   UNL     1       1.197   2.152  -0.185  0.00  0.00    -0.126 OA
ENDBRANCH  12  19
ENDBRANCH   8  10
ENDBRANCH   7   8
ENDBRANCH   6   7
ENDBRANCH   1   6
BRANCH   3  22
ATOM     22  C   UNL     1      -6.627  -4.318   1.126  0.00  0.00    +0.200 C 
BRANCH  22  23
ATOM     23  C   UNL     1      -7.940  -5.057   1.156  0.00  0.00    +0.234 C 
ATOM     24  O   UNL     1      -8.948  -4.520   0.747  0.00  0.00    -0.274 OA
ATOM     25  N   UNL     1      -7.994  -6.315   1.637  0.00  0.00    -0.282 N 
ATOM     26  H   UNL     1      -7.207  -6.715   2.038  0.00  0.00    +0.155 HD
BRANCH  25  27
ATOM     27  C   UNL     1      -9.188  -7.044   1.558  0.00  0.00    +0.072 A 
ATOM     28  C   UNL     1     -10.127  -6.737   0.583  0.00  0.00    +0.029 A 
ATOM     29  C   UNL     1     -11.302  -7.459   0.502  0.00  0.00    +0.043 A 
ATOM     30  C   UNL     1     -11.550  -8.484   1.399  0.00  0.00    +0.161 A 
ATOM     31  C   UNL     1     -10.617  -8.792   2.378  0.00  0.00    +0.195 A 
ATOM     32  C   UNL     1      -9.436  -8.073   2.459  0.00  0.00    +0.182 A 
ATOM     33  F   UNL     1      -8.526  -8.372   3.412  0.00  0.00    -0.200 F 
ATOM     34  F   UNL     1     -10.861  -9.792   3.253  0.00  0.00    -0.199 F 
ATOM     35  F   UNL     1     -12.701  -9.186   1.321  0.00  0.00    -0.202 F 
ENDBRANCH  25  27
ENDBRANCH  22  23
ENDBRANCH   3  22
TORSDOF 9
