REMARK  Name = ZINC39533967
REMARK  8 active torsions:
REMARK  status: ('A' for Active; 'I' for Inactive)
REMARK    1  A    between atoms: C_4  and  O_32
REMARK    2  A    between atoms: C_5  and  C_7
REMARK    3  A    between atoms: C_10  and  C_13
REMARK    4  A    between atoms: C_13  and  C_15
REMARK    5  A    between atoms: C_13  and  N_18
REMARK    6  A    between atoms: C_15  and  N_16
REMARK    7  A    between atoms: C_22  and  C_25
REMARK    8  A    between atoms: C_30  and  O_31
REMARK                            x       y       z     vdW  Elec       q    Type
REMARK                         _______ _______ _______ _____ _____    ______ ____
ROOT
ATOM      1  C   UNL     1       1.370  -6.449  -0.082  0.00  0.00    +0.103 C 
ENDROOT
BRANCH   1   2
ATOM      2  N   UNL     1       0.028  -6.972   0.205  0.00  0.00    -0.297 NA
ATOM      3  C   UNL     1      -0.238  -6.975   1.651  0.00  0.00    +0.066 C 
ATOM      4  C   UNL     1      -1.665  -7.469   1.903  0.00  0.00    -0.066 C 
ATOM      5  N   UNL     1      -1.818  -8.823   1.356  0.00  0.00    +0.385 N 
ATOM      6  C   UNL     1      -1.574  -8.799  -0.092  0.00  0.00    -0.023 C 
ATOM      7  C   UNL     1      -0.147  -8.317  -0.361  0.00  0.00    +0.074 C 
ATOM      8  H   UNL     1      -1.155  -9.442   1.799  0.00  0.00    -0.085 HD
ATOM      9  H   UNL     1      -2.755  -9.153   1.533  0.00  0.00    -0.085 HD
BRANCH   6  10
ATOM     10  C   UNL     1      -1.749 -10.186  -0.654  0.00  0.00    -0.019 A 
ATOM     11  C   UNL     1      -1.684 -11.285   0.181  0.00  0.00    +0.005 A 
ATOM     12  C   UNL     1      -1.844 -12.557  -0.334  0.00  0.00    +0.000 A 
ATOM     13  C   UNL     1      -2.071 -12.735  -1.686  0.00  0.00    +0.004 A 
ATOM     14  C   UNL     1      -2.138 -11.640  -2.526  0.00  0.00    +0.045 A 
ATOM     15  C   UNL     1      -1.982 -10.361  -2.010  0.00  0.00    +0.118 A 
BRANCH  15  16
ATOM     16  O   UNL     1      -2.054  -9.282  -2.834  0.00  0.00    -0.507 OA
ATOM     17  H   UNL     1      -1.204  -9.022  -3.215  0.00  0.00    +0.292 HD
ENDBRANCH  15  16
ENDBRANCH   6  10
ENDBRANCH   1   2
BRANCH   1  21
ATOM     18  C   UNL     1       1.230  -2.180  -0.265  0.00  0.00    -0.014 A 
ATOM     19  C   UNL     1       2.292  -2.870  -0.845  0.00  0.00    +0.009 A 
ATOM     20  C   UNL     1       2.333  -4.249  -0.782  0.00  0.00    +0.006 A 
ATOM     21  C   UNL     1       1.321  -4.945  -0.146  0.00  0.00    -0.029 A 
ATOM     22  C   UNL     1       0.263  -4.265   0.431  0.00  0.00    +0.006 A 
ATOM     23  C   UNL     1       0.215  -2.886   0.379  0.00  0.00    +0.009 A 
BRANCH  18  28
ATOM     24  C   UNL     1      -0.018   1.323  -0.815  0.00  0.00    +0.001 A 
ATOM     25  C   UNL     1       1.089   2.069  -0.449  0.00  0.00    +0.004 A 
ATOM     26  C   UNL     1       2.243   1.440  -0.022  0.00  0.00    +0.046 A 
ATOM     27  C   UNL     1       2.297   0.057   0.041  0.00  0.00    +0.125 A 
ATOM     28  C   UNL     1       1.181  -0.699  -0.329  0.00  0.00    +0.024 A 
ATOM     29  C   UNL     1       0.022  -0.055  -0.758  0.00  0.00    +0.012 A 
BRANCH  27  30
ATOM     30  O   UNL     1       3.432  -0.563   0.459  0.00  0.00    -0.506 OA
ATOM     31  H   UNL     1       3.467  -0.716   1.413  0.00  0.00    +0.292 HD
ENDBRANCH  27  30
ENDBRANCH  18  28
ENDBRANCH   1  21
BRANCH   1  32
ATOM     32  C   UNL     1       2.333  -6.881   1.026  0.00  0.00    +0.140 C 
BRANCH  32  33
ATOM     33  N   UNL     1       2.386  -8.348   1.085  0.00  0.00    -0.157 NA
ATOM     34  F   UNL     1       3.310  -8.748   1.908  0.00  0.00    -0.136 F 
ATOM     35  H   UNL     1       1.487  -8.732   1.336  0.00  0.00    +0.159 HD
ENDBRANCH  32  33
ENDBRANCH   1  32
TORSDOF 8
