REMARK  Name = ZINC08963943
REMARK  11 active torsions:
REMARK  status: ('A' for Active; 'I' for Inactive)
REMARK    1  A    between atoms: C_1  and  C_2
REMARK    2  A    between atoms: C_2  and  C_3
REMARK    3  A    between atoms: C_8  and  N_9
REMARK    4  A    between atoms: C_10  and  C_12
REMARK    5  A    between atoms: N_14  and  C_15
REMARK    6  A    between atoms: C_15  and  C_16
REMARK    7  A    between atoms: C_16  and  C_18
REMARK    8  A    between atoms: C_16  and  N_59
REMARK    9  A    between atoms: N_26  and  C_27
REMARK   10  A    between atoms: C_28  and  N_59
REMARK   11  A    between atoms: C_29  and  N_59
REMARK                            x       y       z     vdW  Elec       q    Type
REMARK                         _______ _______ _______ _____ _____    ______ ____
ROOT
ATOM      1  C   UNL     1      -1.374   1.151  -0.911  0.00  0.00    +0.299 C 
ATOM      2  O   UNL     1      -1.374   2.358  -0.789  0.00  0.00    -0.265 OA
ATOM      3  N   UNL     1      -0.243   0.451  -0.695  0.00  0.00    -0.309 N 
ATOM      4  H   UNL     1      -0.243  -0.514  -0.792  0.00  0.00    +0.149 HD
ENDROOT
BRANCH   1   6
ATOM      5  N   UNL     1      -3.760   1.140  -1.516  0.00  0.00    -0.278 N 
ATOM      6  C   UNL     1      -2.629   0.440  -1.300  0.00  0.00    +0.303 C 
ATOM      7  O   UNL     1      -2.630  -0.767  -1.422  0.00  0.00    -0.265 OA
ATOM      8  H   UNL     1      -3.745   2.109  -1.485  0.00  0.00    +0.155 HD
BRANCH   5  14
ATOM      9  C   UNL     1      -6.173   1.067  -1.483  0.00  0.00    -0.026 A 
ATOM     10  C   UNL     1      -7.353   0.401  -1.751  0.00  0.00    +0.005 A 
ATOM     11  C   UNL     1      -7.324  -0.859  -2.318  0.00  0.00    +0.000 A 
ATOM     12  C   UNL     1      -6.114  -1.458  -2.620  0.00  0.00    +0.002 A 
ATOM     13  C   UNL     1      -4.931  -0.796  -2.360  0.00  0.00    +0.023 A 
ATOM     14  C   UNL     1      -4.956   0.469  -1.785  0.00  0.00    +0.037 A 
BRANCH   9  16
ATOM     15  C   UNL     1      -6.127   3.498  -1.968  0.00  0.00    +0.009 C 
ATOM     16  C   UNL     1      -6.205   2.441  -0.865  0.00  0.00    +0.033 C 
ENDBRANCH   9  16
ENDBRANCH   5  14
ENDBRANCH   1   6
BRANCH   3  17
ATOM     17  C   UNL     1       0.989   1.149  -0.319  0.00  0.00    +0.094 C 
BRANCH  17  18
ATOM     18  C   UNL     1       2.074   0.123   0.016  0.00  0.00    -0.021 C 
BRANCH  18  19
ATOM     19  C   UNL     1       3.362   0.839   0.333  0.00  0.00    -0.059 A 
ATOM     20  C   UNL     1       3.516   1.481   1.549  0.00  0.00    +0.004 A 
ATOM     21  C   UNL     1       4.693   2.135   1.845  0.00  0.00    +0.023 A 
ATOM     22  C   UNL     1       5.732   2.164   0.916  0.00  0.00    +0.033 A 
ATOM     23  C   UNL     1       5.567   1.517  -0.303  0.00  0.00    -0.025 A 
ATOM     24  C   UNL     1       4.389   0.860  -0.593  0.00  0.00    +0.007 A 
ATOM     25  C   UNL     1       6.841   1.696  -1.104  0.00  0.00    +0.056 C 
ATOM     26  C   UNL     1       7.859   2.152  -0.032  0.00  0.00    +0.109 C 
ATOM     27  N   UNL     1       6.992   2.771   0.994  0.00  0.00    -0.332 N 
ATOM     28  C   UNL     1       7.569   2.613   2.336  0.00  0.00    +0.129 C 
ENDBRANCH  18  19
BRANCH  18  31
ATOM     29  C   UNL     1       0.743   0.094   2.038  0.00  0.00    -0.096 C 
ATOM     30  C   UNL     1       1.044  -1.939   0.758  0.00  0.00    -0.096 C 
ATOM     31  N   UNL     1       1.679  -0.677   1.194  0.00  0.00    +0.382 N 
ATOM     32  H   UNL     1       2.518  -0.899   1.743  0.00  0.00    -0.082 HD
ENDBRANCH  18  31
ENDBRANCH  17  18
ENDBRANCH   3  17
TORSDOF 7
