REMARK  Name = ZINC14886182
REMARK  7 active torsions:
REMARK  status: ('A' for Active; 'I' for Inactive)
REMARK    1  A    between atoms: C_1  and  C_2
REMARK    2  A    between atoms: C_7  and  C_20
REMARK    3  A    between atoms: C_17  and  C_19
REMARK    4  A    between atoms: C_20  and  N_21
REMARK    5  A    between atoms: N_21  and  C_22
REMARK    6  A    between atoms: C_25  and  C_27
REMARK    7  A    between atoms: C_28  and  C_32
REMARK                            x       y       z     vdW  Elec       q    Type
REMARK                         _______ _______ _______ _____ _____    ______ ____
ROOT
ATOM      1  C   UNL     1      -3.776  -0.808  -6.345  0.00  0.00    +0.044 C 
ATOM      2  C   UNL     1      -3.254   0.467  -5.734  0.00  0.00    -0.048 A 
ATOM      3  C   UNL     1      -2.923   1.538  -6.560  0.00  0.00    +0.004 A 
ATOM      4  C   UNL     1      -2.449   2.703  -6.037  0.00  0.00    +0.010 A 
ATOM      5  C   UNL     1      -2.292   2.827  -4.648  0.00  0.00    -0.001 A 
ATOM      6  C   UNL     1      -1.805   4.017  -4.069  0.00  0.00    +0.018 A 
ATOM      7  C   UNL     1      -1.676   4.071  -2.715  0.00  0.00    +0.009 A 
ATOM      8  C   UNL     1      -2.026   2.959  -1.935  0.00  0.00    +0.104 A 
ATOM      9  C   UNL     1      -2.628   1.739  -3.806  0.00  0.00    +0.048 A 
ATOM     10  C   UNL     1      -3.113   0.553  -4.382  0.00  0.00    +0.029 A 
ATOM     11  N   UNL     1      -1.889   3.029  -0.556  0.00  0.00    -0.313 N 
ATOM     12  C   UNL     1      -1.799   4.424  -0.106  0.00  0.00    +0.125 C 
ATOM     13  C   UNL     1      -1.831   4.466   1.425  0.00  0.00    +0.126 C 
ATOM     14  N   UNL     1      -0.781   3.577   1.944  0.00  0.00    -0.299 N 
ATOM     15  C   UNL     1      -0.720   2.199   1.430  0.00  0.00    +0.126 C 
ATOM     16  C   UNL     1      -0.731   2.247  -0.102  0.00  0.00    +0.125 C 
ATOM     17  C   UNL     1       0.105   4.013   2.861  0.00  0.00    +0.213 C 
ATOM     18  O   UNL     1      -0.009   5.124   3.334  0.00  0.00    -0.276 OA
ATOM     19  C   UNL     1       1.238   3.121   3.299  0.00  0.00    +0.109 C 
ATOM     20  N   UNL     1      -2.493   1.789  -2.436  0.00  0.00    -0.343 N 
ATOM     21  H   UNL     1      -2.731   0.993  -1.833  0.00  0.00    +0.167 HD
ENDROOT
BRANCH   7  22
ATOM     22  C   UNL     1      -1.160   5.324  -2.055  0.00  0.00    +0.147 C 
BRANCH  22  23
ATOM     23  N   UNL     1       0.301   5.259  -1.959  0.00  0.00    -0.290 N 
ATOM     24  C   UNL     1       0.885   4.932  -0.789  0.00  0.00    +0.254 C 
ATOM     25  O   UNL     1       0.236   4.390   0.086  0.00  0.00    -0.269 OA
BRANCH  24  26
ATOM     26  C   UNL     1       2.304   5.231  -0.570  0.00  0.00    +0.077 A 
ATOM     27  C   UNL     1       3.288   4.432  -0.009  0.00  0.00    -0.031 A 
ATOM     28  C   UNL     1       4.551   4.963   0.074  0.00  0.00    +0.011 A 
ATOM     29  C   UNL     1       4.772   6.224  -0.379  0.00  0.00    +0.046 A 
ATOM     30  S   UNL     1       3.212   6.718  -0.950  0.00  0.00    -0.092 S 
ATOM     31  C   UNL     1       2.985   3.041   0.485  0.00  0.00    +0.045 C 
ENDBRANCH  24  26
BRANCH  23  32
ATOM     32  C   UNL     1       1.126   5.548  -3.134  0.00  0.00    +0.077 C 
ATOM     33  C   UNL     1       2.633   5.312  -3.015  0.00  0.00    +0.024 C 
ATOM     34  C   UNL     1       2.082   6.740  -3.050  0.00  0.00    +0.024 C 
ENDBRANCH  23  32
ENDBRANCH  22  23
ENDBRANCH   7  22
TORSDOF 4
