REMARK  Name = ZINC38701431
REMARK  12 active torsions:
REMARK  status: ('A' for Active; 'I' for Inactive)
REMARK    1  A    between atoms: C_1  and  C_2
REMARK    2  A    between atoms: C_2  and  C_3
REMARK    3  A    between atoms: C_3  and  C_4
REMARK    4  A    between atoms: C_4  and  C_5
REMARK    5  A    between atoms: C_5  and  O_6
REMARK    6  A    between atoms: O_6  and  C_7
REMARK    7  A    between atoms: C_12  and  C_13
REMARK    8  A    between atoms: C_18  and  O_27
REMARK    9  A    between atoms: C_22  and  N_26
REMARK   10  A    between atoms: C_23  and  C_24
REMARK   11  A    between atoms: O_27  and  C_28
REMARK   12  A    between atoms: C_28  and  C_30
REMARK                            x       y       z     vdW  Elec       q    Type
REMARK                         _______ _______ _______ _____ _____    ______ ____
ROOT
ATOM      1  C   UNL     1       1.599  -6.853   2.441  0.00  0.00    +0.101 C 
ATOM      2  C   UNL     1       0.523  -7.719   3.040  0.00  0.00    +0.008 A 
ATOM      3  C   UNL     1      -0.657  -7.139   3.470  0.00  0.00    +0.012 A 
ATOM      4  C   UNL     1      -1.655  -7.917   4.022  0.00  0.00    +0.047 A 
ATOM      5  C   UNL     1      -1.476  -9.288   4.147  0.00  0.00    +0.135 A 
ATOM      6  C   UNL     1      -0.296  -9.872   3.718  0.00  0.00    +0.093 A 
ATOM      7  C   UNL     1       0.707  -9.087   3.164  0.00  0.00    +0.138 A 
ATOM      8  O   UNL     1       1.856  -9.675   2.748  0.00  0.00    -0.441 OA
ATOM      9  C   UNL     1       2.659  -9.037   1.880  0.00  0.00    +0.199 C 
ATOM     10  C   UNL     1       2.586  -7.702   1.690  0.00  0.00    +0.098 C 
ENDROOT
BRANCH   1  16
ATOM     11  C   UNL     1       2.313  -4.724   3.557  0.00  0.00    +0.125 A 
ATOM     12  C   UNL     1       2.967  -4.045   4.574  0.00  0.00    +0.046 A 
ATOM     13  C   UNL     1       3.621  -4.750   5.566  0.00  0.00    +0.004 A 
ATOM     14  C   UNL     1       3.625  -6.133   5.545  0.00  0.00    +0.001 A 
ATOM     15  C   UNL     1       2.974  -6.812   4.532  0.00  0.00    +0.008 A 
ATOM     16  C   UNL     1       2.313  -6.112   3.541  0.00  0.00    +0.007 A 
BRANCH  11  17
ATOM     17  O   UNL     1       1.668  -4.033   2.581  0.00  0.00    -0.492 OA
BRANCH  17  18
ATOM     18  C   UNL     1       1.710  -2.607   2.661  0.00  0.00    +0.229 C 
BRANCH  18  19
ATOM     19  C   UNL     1       0.935  -2.007   1.486  0.00  0.00    +0.041 C 
BRANCH  19  20
ATOM     20  C   UNL     1       0.980  -0.480   1.572  0.00  0.00    +0.003 C 
BRANCH  20  22
ATOM     21  C   UNL     1       0.250   1.647   0.482  0.00  0.00    +0.004 C 
ATOM     22  C   UNL     1       0.205   0.120   0.397  0.00  0.00    -0.003 C 
ENDBRANCH  20  22
ENDBRANCH  19  20
ENDBRANCH  18  19
ENDBRANCH  17  18
ENDBRANCH  11  17
ENDBRANCH   1  16
BRANCH   9  23
ATOM     23  N   UNL     1       3.579  -9.764   1.166  0.00  0.00    -0.328 N 
ATOM     24  H   UNL     1       3.643 -10.723   1.293  0.00  0.00    +0.145 HD
ATOM     25  H   UNL     1       4.165  -9.318   0.535  0.00  0.00    +0.145 HD
ENDBRANCH   9  23
BRANCH  10  26
ATOM     26  C   UNL     1       3.471  -7.082   0.749  0.00  0.00    +0.101 C 
ATOM     27  N   UNL     1       4.173  -6.591   0.003  0.00  0.00    -0.191 NA
ENDBRANCH  10  26
BRANCH   5  28
ATOM     28  O   UNL     1      -2.458 -10.055   4.691  0.00  0.00    -0.423 OA
BRANCH  28  29
ATOM     29  C   UNL     1      -2.234 -10.604   5.896  0.00  0.00    +0.357 C 
ATOM     30  O   UNL     1      -1.231 -10.326   6.510  0.00  0.00    -0.246 OA
BRANCH  29  31
ATOM     31  C   UNL     1      -3.234 -11.566   6.483  0.00  0.00    +0.319 C 
ATOM     32  C   UNL     1      -4.550 -10.831   6.774  0.00  0.00    +0.285 C 
ATOM     33  O   UNL     1      -5.471 -11.769   7.342  0.00  0.00    -0.484 OA
ATOM     34  C   UNL     1      -4.993 -12.572   8.332  0.00  0.00    +0.162 A 
ATOM     35  C   UNL     1      -5.885 -13.232   9.163  0.00  0.00    +0.049 A 
ATOM     36  C   UNL     1      -5.415 -14.054  10.170  0.00  0.00    +0.004 A 
ATOM     37  C   UNL     1      -4.055 -14.220  10.352  0.00  0.00    +0.004 A 
ATOM     38  C   UNL     1      -3.160 -13.564   9.527  0.00  0.00    +0.049 A 
ATOM     39  C   UNL     1      -3.625 -12.737   8.515  0.00  0.00    +0.163 A 
ATOM     40  O   UNL     1      -2.732 -12.092   7.716  0.00  0.00    -0.470 OA
ENDBRANCH  29  31
ENDBRANCH  28  29
ENDBRANCH   5  28
TORSDOF 11
