REMARK  Name = ZINC58951539
REMARK  5 active torsions:
REMARK  status: ('A' for Active; 'I' for Inactive)
REMARK    1  A    between atoms: C_1  and  C_2
REMARK    2  A    between atoms: C_4  and  N_9
REMARK    3  A    between atoms: C_7  and  N_8
REMARK    4  A    between atoms: C_11  and  C_18
REMARK    5  A    between atoms: C_15  and  C_17
REMARK                            x       y       z     vdW  Elec       q    Type
REMARK                         _______ _______ _______ _____ _____    ______ ____
ROOT
ATOM      1  N   UNL     1      -0.144  -2.795  -2.437  0.00  0.00    -0.326 N 
ATOM      2  C   UNL     1      -0.291  -2.094  -3.720  0.00  0.00    +0.118 C 
ATOM      3  C   UNL     1      -1.333  -2.830  -4.568  0.00  0.00    +0.092 C 
ATOM      4  C   UNL     1      -0.931  -4.301  -4.698  0.00  0.00    +0.016 C 
ATOM      5  C   UNL     1      -0.893  -4.947  -3.311  0.00  0.00    +0.023 C 
ATOM      6  C   UNL     1       0.159  -4.233  -2.449  0.00  0.00    +0.070 C 
ATOM      7  C   UNL     1       0.110  -4.779  -1.020  0.00  0.00    +0.028 C 
ENDROOT
BRANCH   1  11
ATOM      8  C   UNL     1      -3.041  -1.107   1.158  0.00  0.00    +0.046 C 
ATOM      9  C   UNL     1      -1.677  -1.273   0.538  0.00  0.00    -0.028 A 
ATOM     10  C   UNL     1      -1.540  -1.953  -0.656  0.00  0.00    +0.028 A 
ATOM     11  C   UNL     1      -0.283  -2.105  -1.227  0.00  0.00    +0.030 A 
ATOM     12  C   UNL     1       0.835  -1.574  -0.598  0.00  0.00    +0.025 A 
ATOM     13  C   UNL     1       0.697  -0.894   0.596  0.00  0.00    +0.025 A 
ATOM     14  C   UNL     1      -0.560  -0.737   1.165  0.00  0.00    +0.028 A 
BRANCH  14  15
ATOM     15  N   UNL     1      -0.701  -0.043   2.372  0.00  0.00    -0.358 N 
ATOM     16  H   UNL     1      -1.578   0.064   2.771  0.00  0.00    +0.142 HD
ATOM     17  H   UNL     1       0.080   0.332   2.810  0.00  0.00    +0.142 HD
ENDBRANCH  14  15
ENDBRANCH   1  11
BRANCH   3  18
ATOM     18  C   UNL     1      -1.401  -2.204  -5.937  0.00  0.00    +0.215 C 
ATOM     19  O   UNL     1      -0.688  -1.261  -6.209  0.00  0.00    -0.276 OA
ATOM     20  N   UNL     1      -2.255  -2.691  -6.859  0.00  0.00    -0.329 N 
ATOM     21  H   UNL     1      -2.825  -3.445  -6.642  0.00  0.00    +0.145 HD
ATOM     22  H   UNL     1      -2.299  -2.287  -7.740  0.00  0.00    +0.145 HD
ENDBRANCH   3  18
TORSDOF 3
