REMARK  Name = ZINC43553754
REMARK  13 active torsions:
REMARK  status: ('A' for Active; 'I' for Inactive)
REMARK    1  A    between atoms: C_1  and  C_2
REMARK    2  A    between atoms: C_2  and  N_3
REMARK    3  A    between atoms: C_4  and  O_6
REMARK    4  A    between atoms: O_6  and  C_7
REMARK    5  A    between atoms: C_11  and  C_38
REMARK    6  A    between atoms: C_14  and  C_15
REMARK    7  A    between atoms: C_14  and  C_16
REMARK    8  A    between atoms: C_16  and  O_17
REMARK    9  A    between atoms: C_20  and  O_37
REMARK   10  A    between atoms: C_22  and  C_24
REMARK   11  A    between atoms: C_24  and  C_25
REMARK   12  A    between atoms: N_27  and  C_28
REMARK   13  A    between atoms: C_28  and  C_29
REMARK                            x       y       z     vdW  Elec       q    Type
REMARK                         _______ _______ _______ _____ _____    ______ ____
ROOT
ATOM      1  C   UNL     1       0.581  -3.749   2.869  0.00  0.00    +0.186 C 
ATOM      2  C   UNL     1      -0.372  -4.308   3.919  0.00  0.00    +0.046 C 
ATOM      3  C   UNL     1      -0.063  -3.682   5.280  0.00  0.00    +0.011 C 
ATOM      4  C   UNL     1       1.357  -4.063   5.704  0.00  0.00    -0.023 C 
ATOM      5  C   UNL     1       2.360  -3.598   4.662  0.00  0.00    +0.007 C 
ATOM      6  C   UNL     1       2.045  -3.991   3.232  0.00  0.00    +0.031 C 
ATOM      7  C   UNL     1       2.426  -5.438   2.920  0.00  0.00    +0.017 C 
ATOM      8  C   UNL     1       3.773  -4.013   5.073  0.00  0.00    +0.007 C 
ATOM      9  C   UNL     1       4.114  -3.321   6.398  0.00  0.00    +0.032 C 
ATOM     10  C   UNL     1       3.117  -3.731   7.478  0.00  0.00    +0.119 C 
ATOM     11  C   UNL     1       1.680  -3.428   7.061  0.00  0.00    +0.032 C 
ATOM     12  C   UNL     1       1.405  -5.586   5.901  0.00  0.00    +0.012 C 
ENDROOT
BRANCH  10  13
ATOM     13  O   UNL     1       3.413  -3.008   8.682  0.00  0.00    -0.391 OA
ATOM     14  H   UNL     1       4.301  -3.169   9.030  0.00  0.00    +0.210 HD
ENDBRANCH  10  13
BRANCH   1  15
ATOM     15  O   UNL     1       0.357  -2.343   2.720  0.00  0.00    -0.446 OA
BRANCH  15  17
ATOM     16  N   UNL     1      -0.831  -0.655   1.632  0.00  0.00    -0.281 N 
ATOM     17  C   UNL     1      -0.572  -1.964   1.822  0.00  0.00    +0.401 C 
ATOM     18  O   UNL     1      -1.176  -2.801   1.182  0.00  0.00    -0.226 OA
ATOM     19  H   UNL     1      -0.348   0.014   2.143  0.00  0.00    +0.152 HD
BRANCH  16  21
ATOM     20  C   UNL     1      -1.939   1.285   0.636  0.00  0.00    +0.024 C 
ATOM     21  C   UNL     1      -1.841  -0.242   0.655  0.00  0.00    +0.104 C 
ENDBRANCH  16  21
ENDBRANCH  15  17
ENDBRANCH   1  15
BRANCH   6  22
ATOM     22  C   UNL     1       2.884  -3.088   2.294  0.00  0.00    +0.166 C 
BRANCH  22  23
ATOM     23  O   UNL     1       2.629  -3.446   0.935  0.00  0.00    -0.394 OA
ATOM     24  H   UNL     1       3.122  -2.920   0.290  0.00  0.00    +0.209 HD
ENDBRANCH  22  23
ENDBRANCH   6  22
BRANCH  11  25
ATOM     25  C   UNL     1       1.448  -1.920   7.049  0.00  0.00    +0.102 C 
BRANCH  25  26
ATOM     26  C   UNL     1       1.431  -1.403   8.464  0.00  0.00    +0.214 C 
ATOM     27  O   UNL     1       1.432  -2.181   9.394  0.00  0.00    -0.276 OA
ATOM     28  N   UNL     1       1.414  -0.075   8.697  0.00  0.00    -0.311 N 
ATOM     29  H   UNL     1       1.413   0.547   7.953  0.00  0.00    +0.149 HD
BRANCH  28  30
ATOM     30  C   UNL     1       1.397   0.427  10.073  0.00  0.00    +0.139 C 
BRANCH  30  31
ATOM     31  C   UNL     1       1.380   1.934  10.057  0.00  0.00    -0.025 A 
ATOM     32  C   UNL     1       2.569   2.638  10.054  0.00  0.00    +0.043 A 
ATOM     33  C   UNL     1       2.555   4.023  10.040  0.00  0.00    +0.126 A 
ATOM     34  C   UNL     1       1.349   4.702  10.028  0.00  0.00    +0.076 A 
ATOM     35  C   UNL     1       0.158   3.996  10.030  0.00  0.00    +0.126 A 
ATOM     36  C   UNL     1       0.175   2.611  10.039  0.00  0.00    +0.043 A 
ATOM     37  F   UNL     1      -1.020   4.657  10.019  0.00  0.00    -0.205 F 
ATOM     38  F   UNL     1       3.718   4.710  10.038  0.00  0.00    -0.205 F 
ENDBRANCH  30  31
ENDBRANCH  28  30
ENDBRANCH  25  26
ENDBRANCH  11  25
TORSDOF 10
