REMARK  Name = ZINC07236453
REMARK  9 active torsions:
REMARK  status: ('A' for Active; 'I' for Inactive)
REMARK    1  A    between atoms: C_1  and  C_2
REMARK    2  A    between atoms: C_3  and  C_7
REMARK    3  A    between atoms: C_10  and  S_13
REMARK    4  A    between atoms: N_11  and  C_12
REMARK    5  A    between atoms: S_13  and  C_14
REMARK    6  A    between atoms: C_14  and  C_15
REMARK    7  A    between atoms: N_17  and  C_18
REMARK    8  A    between atoms: C_18  and  C_20
REMARK    9  A    between atoms: C_18  and  C_21
REMARK                            x       y       z     vdW  Elec       q    Type
REMARK                         _______ _______ _______ _____ _____    ______ ____
ROOT
ATOM      1  S   UNL     1      -3.186   2.049   0.018  0.00  0.00    -0.077 S 
ENDROOT
BRANCH   1   5
ATOM      2  C   UNL     1      -0.152   1.746   2.461  0.00  0.00    +0.168 A 
ATOM      3  N   UNL     1      -1.139   2.066   3.265  0.00  0.00    -0.128 NA
ATOM      4  N   UNL     1      -2.227   2.197   2.593  0.00  0.00    -0.122 NA
ATOM      5  C   UNL     1      -2.000   1.976   1.319  0.00  0.00    +0.192 A 
ATOM      6  N   UNL     1      -0.672   1.675   1.190  0.00  0.00    -0.305 N 
ATOM      7  C   UNL     1       0.046   1.350  -0.044  0.00  0.00    +0.153 C 
BRANCH   2  10
ATOM      8  C   UNL     1       1.583   3.544   4.354  0.00  0.00    +0.087 C 
ATOM      9  C   UNL     1       2.023   2.276   3.668  0.00  0.00    +0.112 A 
ATOM     10  C   UNL     1       1.256   1.508   2.849  0.00  0.00    +0.060 A 
ATOM     11  C   UNL     1       2.116   0.396   2.425  0.00  0.00    +0.053 A 
ATOM     12  C   UNL     1       3.302   0.596   3.025  0.00  0.00    +0.196 A 
ATOM     13  O   UNL     1       3.236   1.713   3.764  0.00  0.00    -0.467 OA
ENDBRANCH   2  10
ENDBRANCH   1   5
BRANCH   1  14
ATOM     14  C   UNL     1      -4.663   2.495   0.964  0.00  0.00    +0.173 C 
BRANCH  14  15
ATOM     15  C   UNL     1      -5.840   2.617   0.030  0.00  0.00    +0.224 C 
ATOM     16  O   UNL     1      -5.694   2.421  -1.158  0.00  0.00    -0.275 OA
ATOM     17  N   UNL     1      -7.054   2.943   0.515  0.00  0.00    -0.308 N 
ATOM     18  H   UNL     1      -7.171   3.100   1.466  0.00  0.00    +0.149 HD
BRANCH  17  19
ATOM     19  C   UNL     1      -8.198   3.062  -0.392  0.00  0.00    +0.107 C 
ATOM     20  C   UNL     1      -8.819   1.681  -0.613  0.00  0.00    +0.033 C 
BRANCH  19  21
ATOM     21  C   UNL     1      -9.225   3.985   0.212  0.00  0.00    +0.010 A 
ATOM     22  C   UNL     1      -9.981   4.933  -0.393  0.00  0.00    +0.013 A 
ATOM     23  C   UNL     1     -10.872   5.667   0.369  0.00  0.00    +0.008 A 
ATOM     24  C   UNL     1     -10.955   5.423   1.699  0.00  0.00    +0.045 A 
ATOM     25  S   UNL     1      -9.756   4.117   1.911  0.00  0.00    -0.100 S 
ENDBRANCH  19  21
ENDBRANCH  17  19
ENDBRANCH  14  15
ENDBRANCH   1  14
TORSDOF 6
