REMARK  Name = ZINC48836096
REMARK  3 active torsions:
REMARK  status: ('A' for Active; 'I' for Inactive)
REMARK    1  A    between atoms: C_3  and  N_10
REMARK    2  A    between atoms: C_6  and  C_7
REMARK    3  A    between atoms: C_16  and  N_19
REMARK                            x       y       z     vdW  Elec       q    Type
REMARK                         _______ _______ _______ _____ _____    ______ ____
ROOT
ATOM      1  N   UNL     1       3.507   2.070  -1.270  0.00  0.00    -0.296 N 
ATOM      2  C   UNL     1       4.164   2.213  -2.438  0.00  0.00    +0.302 C 
ATOM      3  O   UNL     1       3.650   1.837  -3.474  0.00  0.00    -0.253 OA
ATOM      4  N   UNL     1       5.389   2.773  -2.458  0.00  0.00    -0.286 N 
ATOM      5  C   UNL     1       6.071   3.126  -1.205  0.00  0.00    +0.108 C 
ATOM      6  C   UNL     1       6.488   4.599  -1.269  0.00  0.00    +0.003 C 
ATOM      7  C   UNL     1       7.325   4.834  -2.528  0.00  0.00    -0.072 C 
ATOM      8  C   UNL     1       6.486   4.516  -3.767  0.00  0.00    +0.003 C 
ATOM      9  C   UNL     1       6.071   3.037  -3.732  0.00  0.00    +0.108 C 
ATOM     10  H   UNL     1       3.945   2.302  -0.436  0.00  0.00    +0.151 HD
ENDROOT
BRANCH   1  13
ATOM     11  C   UNL     1      -0.020   1.530   0.010  0.00  0.00    +0.016 C 
ATOM     12  C   UNL     1       1.416   2.058  -0.001  0.00  0.00    +0.023 C 
ATOM     13  C   UNL     1       2.132   1.564  -1.260  0.00  0.00    +0.074 C 
ATOM     14  C   UNL     1       2.151   0.034  -1.268  0.00  0.00    +0.023 C 
ATOM     15  C   UNL     1       0.715  -0.494  -1.257  0.00  0.00    +0.016 C 
ATOM     16  C   UNL     1      -0.001   0.000   0.002  0.00  0.00    +0.102 C 
BRANCH  16  17
ATOM     17  C   UNL     1      -1.415  -0.520   0.012  0.00  0.00    +0.359 C 
ATOM     18  O   UNL     1      -1.676  -1.586  -0.519  0.00  0.00    -0.246 OA
ATOM     19  O   UNL     1      -2.298   0.125   0.552  0.00  0.00    -0.246 OA
ENDBRANCH  16  17
ENDBRANCH   1  13
BRANCH   7  20
ATOM     20  N   UNL     1       7.755   6.238  -2.575  0.00  0.00    +0.380 N 
ATOM     21  H   UNL     1       8.309   6.448  -1.758  0.00  0.00    -0.090 HD
ATOM     22  H   UNL     1       8.307   6.393  -3.405  0.00  0.00    -0.090 HD
ATOM     23  H   UNL     1       6.943   6.838  -2.594  0.00  0.00    -0.090 HD
ENDBRANCH   7  20
TORSDOF 3
