REMARK  Name = ZINC20513142
REMARK  2 active torsions:
REMARK  status: ('A' for Active; 'I' for Inactive)
REMARK    1  A    between atoms: C_8  and  C_17
REMARK    2  A    between atoms: N_19  and  C_20
REMARK                            x       y       z     vdW  Elec       q    Type
REMARK                         _______ _______ _______ _____ _____    ______ ____
ROOT
ATOM      1  C   UNL     1      -2.379   3.667   0.826  0.00  0.00    +0.000 A 
ATOM      2  C   UNL     1      -2.396   4.879   0.160  0.00  0.00    +0.002 A 
ATOM      3  C   UNL     1      -1.228   5.418  -0.337  0.00  0.00    +0.023 A 
ATOM      4  C   UNL     1      -0.020   4.744  -0.172  0.00  0.00    +0.036 A 
ATOM      5  C   UNL     1      -0.015   3.525   0.498  0.00  0.00    -0.027 A 
ATOM      6  C   UNL     1      -1.183   2.991   0.993  0.00  0.00    +0.004 A 
ATOM      7  C   UNL     1       1.417   3.061   0.506  0.00  0.00    +0.052 C 
ATOM      8  C   UNL     1       1.560   1.719  -0.228  0.00  0.00    +0.076 C 
ATOM      9  C   UNL     1       2.650   0.986   0.601  0.00  0.00    -0.003 C 
ATOM     10  C   UNL     1       2.331   1.469   2.037  0.00  0.00    -0.066 C 
ATOM     11  N   UNL     1       1.914   2.887   1.876  0.00  0.00    +0.394 N 
ATOM     12  C   UNL     1       3.144   3.696   2.070  0.00  0.00    -0.077 C 
ATOM     13  C   UNL     1       3.902   2.949   3.194  0.00  0.00    -0.020 C 
ATOM     14  C   UNL     1       3.622   1.464   2.870  0.00  0.00    -0.017 C 
ATOM     15  C   UNL     1       2.176   4.146  -0.215  0.00  0.00    +0.212 C 
ATOM     16  O   UNL     1       3.369   4.173  -0.431  0.00  0.00    -0.277 OA
ATOM     17  N   UNL     1       1.274   5.078  -0.574  0.00  0.00    -0.286 N 
ATOM     18  H   UNL     1       1.456   6.016  -1.119  0.00  0.00    +0.155 HD
ATOM     19  H   UNL     1       1.121   3.186   2.577  0.00  0.00    -0.079 HD
ENDROOT
BRANCH   8  20
ATOM     20  C   UNL     1       0.262   0.953  -0.198  0.00  0.00    +0.220 C 
ATOM     21  O   UNL     1       0.090   0.083   0.630  0.00  0.00    -0.275 OA
ATOM     22  N   UNL     1      -0.710   1.239  -1.087  0.00  0.00    -0.281 N 
ATOM     23  H   UNL     1      -0.595   2.092  -1.771  0.00  0.00    +0.155 HD
BRANCH  22  24
ATOM     24  C   UNL     1      -1.867   0.448  -1.139  0.00  0.00    +0.111 A 
ATOM     25  C   UNL     1      -2.356   0.012  -2.365  0.00  0.00    +0.185 A 
ATOM     26  C   UNL     1      -3.495  -0.774  -2.414  0.00  0.00    +0.198 A 
ATOM     27  C   UNL     1      -4.153  -1.117  -1.244  0.00  0.00    +0.199 A 
ATOM     28  C   UNL     1      -3.670  -0.678  -0.021  0.00  0.00    +0.198 A 
ATOM     29  C   UNL     1      -2.528   0.103   0.033  0.00  0.00    +0.185 A 
ATOM     30  F   UNL     1      -2.056   0.530   1.225  0.00  0.00    -0.200 F 
ATOM     31  F   UNL     1      -4.313  -1.013   1.119  0.00  0.00    -0.199 F 
ATOM     32  F   UNL     1      -5.268  -1.879  -1.294  0.00  0.00    -0.199 F 
ATOM     33  F   UNL     1      -3.968  -1.203  -3.605  0.00  0.00    -0.199 F 
ATOM     34  F   UNL     1      -1.718   0.351  -3.506  0.00  0.00    -0.200 F 
ENDBRANCH  22  24
ENDBRANCH   8  20
TORSDOF 2
