REMARK  Name = ZINC14460026
REMARK  7 active torsions:
REMARK  status: ('A' for Active; 'I' for Inactive)
REMARK    1  A    between atoms: C_1  and  O_2
REMARK    2  A    between atoms: O_2  and  C_3
REMARK    3  A    between atoms: C_7  and  C_10
REMARK    4  A    between atoms: C_8  and  O_9
REMARK    5  A    between atoms: C_23  and  O_26
REMARK    6  A    between atoms: O_26  and  C_27
REMARK    7  A    between atoms: C_27  and  C_28
REMARK                            x       y       z     vdW  Elec       q    Type
REMARK                         _______ _______ _______ _____ _____    ______ ____
ROOT
ATOM      1  C   UNL     1       2.195   0.637   2.126  0.00  0.00    +0.109 C 
ATOM      2  C   UNL     1       2.396   1.359   0.791  0.00  0.00    +0.029 C 
ATOM      3  C   UNL     1       1.765   2.774   0.916  0.00  0.00    +0.033 C 
ATOM      4  C   UNL     1       0.292   2.532   0.652  0.00  0.00    -0.030 C 
ATOM      5  C   UNL     1       0.120   1.411  -0.002  0.00  0.00    -0.023 C 
ATOM      6  C   UNL     1       1.450   0.740  -0.260  0.00  0.00    +0.049 C 
ATOM      7  C   UNL     1       1.333  -0.746  -0.091  0.00  0.00    -0.016 A 
ATOM      8  C   UNL     1       0.638  -1.460  -1.060  0.00  0.00    +0.006 A 
ATOM      9  C   UNL     1       0.492  -2.827  -0.960  0.00  0.00    +0.004 A 
ATOM     10  C   UNL     1       1.040  -3.506   0.114  0.00  0.00    +0.047 A 
ATOM     11  C   UNL     1       1.735  -2.807   1.083  0.00  0.00    +0.142 A 
ATOM     12  C   UNL     1       1.885  -1.420   0.982  0.00  0.00    +0.074 A 
ATOM     13  N   UNL     1       2.599  -0.763   1.988  0.00  0.00    -0.334 N 
ATOM     14  H   UNL     1       2.517  -1.251   2.867  0.00  0.00    +0.147 HD
ENDROOT
BRANCH   1  19
ATOM     15  C   UNL     1      -1.052   1.791   3.694  0.00  0.00    +0.162 A 
ATOM     16  C   UNL     1      -1.932   0.822   3.239  0.00  0.00    +0.049 A 
ATOM     17  C   UNL     1      -1.476  -0.200   2.428  0.00  0.00    +0.004 A 
ATOM     18  C   UNL     1      -0.143  -0.256   2.065  0.00  0.00    +0.009 A 
ATOM     19  C   UNL     1       0.741   0.704   2.520  0.00  0.00    +0.018 A 
ATOM     20  C   UNL     1       0.291   1.732   3.333  0.00  0.00    +0.163 A 
BRANCH  15  22
ATOM     21  C   UNL     1      -2.889   2.795   4.822  0.00  0.00    +0.277 C 
ATOM     22  O   UNL     1      -1.499   2.798   4.492  0.00  0.00    -0.491 OA
ENDBRANCH  15  22
BRANCH  20  23
ATOM     23  O   UNL     1       1.159   2.680   3.777  0.00  0.00    -0.503 OA
ATOM     24  H   UNL     1       1.161   3.490   3.248  0.00  0.00    +0.292 HD
ENDBRANCH  20  23
ENDBRANCH   1  19
BRANCH  11  25
ATOM     25  O   UNL     1       2.276  -3.471   2.139  0.00  0.00    -0.488 OA
BRANCH  25  26
ATOM     26  C   UNL     1       2.087  -4.887   2.182  0.00  0.00    +0.260 C 
BRANCH  26  27
ATOM     27  C   UNL     1       2.761  -5.455   3.432  0.00  0.00    +0.156 C 
ATOM     28  C   UNL     1       2.660  -6.996   3.428  0.00  0.00    +0.037 C 
ATOM     29  C   UNL     1       2.386  -7.313   4.923  0.00  0.00    +0.031 C 
ATOM     30  C   UNL     1       1.530  -6.088   5.331  0.00  0.00    +0.160 C 
ATOM     31  O   UNL     1       2.088  -4.981   4.604  0.00  0.00    -0.373 OA
ENDBRANCH  26  27
ENDBRANCH  25  26
ENDBRANCH  11  25
TORSDOF 6
