REMARK  Name = ZINC66738783
REMARK  5 active torsions:
REMARK  status: ('A' for Active; 'I' for Inactive)
REMARK    1  A    between atoms: C_1  and  C_2
REMARK    2  A    between atoms: C_2  and  C_4
REMARK    3  A    between atoms: C_2  and  O_6
REMARK    4  A    between atoms: O_6  and  C_7
REMARK    5  A    between atoms: C_10  and  C_13
REMARK                            x       y       z     vdW  Elec       q    Type
REMARK                         _______ _______ _______ _____ _____    ______ ____
ROOT
ATOM      1  C   UNL     1       6.287  -0.831  -0.944  0.00  0.00    +0.209 C 
ATOM      2  N   UNL     1       6.747  -1.971  -1.757  0.00  0.00    -0.294 N 
ATOM      3  C   UNL     1       6.847  -1.791  -3.129  0.00  0.00    +0.159 C 
ATOM      4  N   UNL     1       7.579  -0.682  -3.556  0.00  0.00    -0.259 N 
ATOM      5  C   UNL     1       7.486   0.440  -2.738  0.00  0.00    +0.205 A 
ATOM      6  N   UNL     1       6.887   0.389  -1.498  0.00  0.00    -0.288 N 
ATOM      7  C   UNL     1       6.973   1.638  -0.954  0.00  0.00    +0.072 A 
ATOM      8  C   UNL     1       6.554   2.172   0.259  0.00  0.00    +0.028 A 
ATOM      9  C   UNL     1       6.813   3.515   0.480  0.00  0.00    +0.002 A 
ATOM     10  C   UNL     1       7.459   4.302  -0.457  0.00  0.00    +0.002 A 
ATOM     11  C   UNL     1       7.885   3.795  -1.671  0.00  0.00    +0.030 A 
ATOM     12  C   UNL     1       7.636   2.440  -1.916  0.00  0.00    +0.091 A 
ATOM     13  N   UNL     1       7.916   1.649  -2.976  0.00  0.00    -0.214 NA
ATOM     14  N   UNL     1       6.290  -2.612  -3.972  0.00  0.00    -0.375 N 
ATOM     15  H   UNL     1       6.971  -2.821  -1.346  0.00  0.00    +0.151 HD
ATOM     16  H   UNL     1       5.787  -3.375  -3.646  0.00  0.00    +0.158 HD
ATOM     17  H   UNL     1       8.114  -0.693  -4.365  0.00  0.00    +0.158 HD
ATOM     18  H   UNL     1       6.377  -2.461  -4.926  0.00  0.00    +0.158 HD
ENDROOT
BRANCH   1  22
ATOM     19  C   UNL     1       2.026  -0.553  -1.118  0.00  0.00    +0.122 A 
ATOM     20  C   UNL     1       2.690  -0.309   0.075  0.00  0.00    +0.046 A 
ATOM     21  C   UNL     1       4.067  -0.400   0.129  0.00  0.00    +0.011 A 
ATOM     22  C   UNL     1       4.784  -0.733  -1.005  0.00  0.00    -0.007 A 
ATOM     23  C   UNL     1       4.125  -0.976  -2.196  0.00  0.00    +0.011 A 
ATOM     24  C   UNL     1       2.747  -0.893  -2.253  0.00  0.00    +0.046 A 
BRANCH  19  25
ATOM     25  O   UNL     1       0.671  -0.465  -1.174  0.00  0.00    -0.475 OA
BRANCH  25  27
ATOM     26  C   UNL     1      -0.044   1.273   0.345  0.00  0.00    +0.068 C 
ATOM     27  C   UNL     1      -0.015  -0.229   0.058  0.00  0.00    +0.271 C 
BRANCH  27  28
ATOM     28  C   UNL     1      -1.393  -0.737  -0.043  0.00  0.00    +0.107 C 
ATOM     29  N   UNL     1      -2.456  -1.128  -0.121  0.00  0.00    -0.193 NA
ENDBRANCH  27  28
ENDBRANCH  25  27
ENDBRANCH  19  25
ENDBRANCH   1  22
TORSDOF 4
