REMARK  Name = ZINC09334217
REMARK  18 active torsions:
REMARK  status: ('A' for Active; 'I' for Inactive)
REMARK    1  A    between atoms: C_1  and  C_2
REMARK    2  A    between atoms: C_2  and  O_3
REMARK    3  A    between atoms: O_3  and  C_4
REMARK    4  A    between atoms: C_7  and  C_10
REMARK    5  A    between atoms: C_13  and  C_14
REMARK    6  A    between atoms: C_13  and  O_27
REMARK    7  A    between atoms: C_15  and  C_26
REMARK    8  A    between atoms: C_16  and  C_21
REMARK    9  A    between atoms: C_19  and  C_20
REMARK   10  A    between atoms: C_21  and  O_23
REMARK   11  A    between atoms: O_23  and  C_24
REMARK   12  A    between atoms: C_24  and  C_25
REMARK   13  A    between atoms: N_32  and  C_33
REMARK   14  A    between atoms: C_33  and  C_34
REMARK   15  A    between atoms: C_34  and  C_35
REMARK   16  A    between atoms: C_35  and  N_71
REMARK   17  A    between atoms: C_36  and  N_71
REMARK   18  A    between atoms: C_37  and  N_71
REMARK                            x       y       z     vdW  Elec       q    Type
REMARK                         _______ _______ _______ _____ _____    ______ ____
ROOT
ATOM      1  C   UNL     1       2.430  -5.397   1.245  0.00  0.00    +0.144 C 
ATOM      2  C   UNL     1       1.613  -4.135   1.091  0.00  0.00    +0.071 C 
ATOM      3  C   UNL     1       1.534  -3.329  -0.030  0.00  0.00    +0.135 C 
ATOM      4  C   UNL     1       0.947  -3.950   2.309  0.00  0.00    +0.249 C 
ATOM      5  O   UNL     1       0.184  -3.038   2.575  0.00  0.00    -0.282 OA
ATOM      6  C   UNL     1       1.331  -5.060   3.222  0.00  0.00    +0.288 C 
ATOM      7  O   UNL     1       0.928  -5.196   4.359  0.00  0.00    -0.266 OA
ATOM      8  N   UNL     1       2.189  -5.889   2.604  0.00  0.00    -0.284 N 
ENDROOT
BRANCH   3   9
ATOM      9  C   UNL     1       0.681  -2.132  -0.015  0.00  0.00    +0.041 A 
ATOM     10  C   UNL     1       1.119  -0.787  -0.013  0.00  0.00    -0.008 A 
ATOM     11  C   UNL     1       0.002  -0.004   0.002  0.00  0.00    +0.128 A 
ATOM     12  N   UNL     1      -1.105  -0.826   0.014  0.00  0.00    -0.352 N 
ATOM     13  H   UNL     1      -2.027  -0.526   0.029  0.00  0.00    +0.166 HD
ATOM     14  C   UNL     1      -0.705  -2.107  -0.002  0.00  0.00    +0.024 A 
ATOM     15  C   UNL     1      -1.609  -3.313   0.002  0.00  0.00    +0.064 C 
ATOM     16  C   UNL     1       2.548  -0.310  -0.024  0.00  0.00    +0.047 C 
BRANCH  11  17
ATOM     17  C   UNL     1      -0.018   1.462   0.010  0.00  0.00    +0.356 C 
ATOM     18  O   UNL     1       1.027   2.085   0.003  0.00  0.00    -0.243 OA
BRANCH  17  19
ATOM     19  O   UNL     1      -1.195   2.121   0.019  0.00  0.00    -0.460 OA
BRANCH  19  20
ATOM     20  C   UNL     1      -1.139   3.572   0.027  0.00  0.00    +0.229 C 
ATOM     21  C   UNL     1      -2.560   4.137   0.037  0.00  0.00    +0.048 C 
ENDBRANCH  19  20
ENDBRANCH  17  19
ENDBRANCH  11  17
ENDBRANCH   3   9
BRANCH   1  25
ATOM     22  C   UNL     1       1.175  -8.311  -1.619  0.00  0.00    +0.121 A 
ATOM     23  C   UNL     1       2.329  -7.574  -1.838  0.00  0.00    +0.046 A 
ATOM     24  C   UNL     1       2.733  -6.633  -0.911  0.00  0.00    +0.009 A 
ATOM     25  C   UNL     1       1.987  -6.425   0.235  0.00  0.00    -0.022 A 
ATOM     26  C   UNL     1       0.839  -7.162   0.459  0.00  0.00    +0.009 A 
ATOM     27  C   UNL     1       0.429  -8.101  -0.468  0.00  0.00    +0.046 A 
BRANCH  22  28
ATOM     28  O   UNL     1       0.776  -9.238  -2.529  0.00  0.00    -0.492 OA
BRANCH  28  30
ATOM     29  C   UNL     1      -0.709 -10.950  -3.368  0.00  0.00    +0.048 C 
ATOM     30  C   UNL     1      -0.422  -9.960  -2.237  0.00  0.00    +0.225 C 
ENDBRANCH  28  30
ENDBRANCH  22  28
ENDBRANCH   1  25
BRANCH   3  31
ATOM     31  O   UNL     1       2.240  -3.640  -1.138  0.00  0.00    -0.506 OA
ATOM     32  H   UNL     1       2.067  -2.957  -1.847  0.00  0.00    +0.292 HD
ENDBRANCH   3  31
BRANCH   8  33
ATOM     33  C   UNL     1       2.783  -7.092   3.192  0.00  0.00    +0.107 C 
BRANCH  33  34
ATOM     34  C   UNL     1       1.881  -8.296   2.911  0.00  0.00    +0.000 C 
BRANCH  34  35
ATOM     35  C   UNL     1       2.501  -9.553   3.525  0.00  0.00    -0.078 C 
BRANCH  35  38
ATOM     36  C   UNL     1       1.590 -11.007   1.817  0.00  0.00    -0.097 C 
ATOM     37  C   UNL     1       2.069 -11.882   4.023  0.00  0.00    -0.097 C 
ATOM     38  N   UNL     1       1.609 -10.701   3.263  0.00  0.00    +0.376 N 
ATOM     39  H   UNL     1       0.658 -10.460   3.565  0.00  0.00    -0.083 HD
ENDBRANCH  35  38
ENDBRANCH  34  35
ENDBRANCH  33  34
ENDBRANCH   8  33
TORSDOF 12
