REMARK  Name = ZINC20463189
REMARK  5 active torsions:
REMARK  status: ('A' for Active; 'I' for Inactive)
REMARK    1  A    between atoms: C_1  and  C_2
REMARK    2  A    between atoms: C_2  and  C_3
REMARK    3  A    between atoms: C_2  and  C_4
REMARK    4  A    between atoms: C_2  and  N_5
REMARK    5  A    between atoms: C_8  and  C_15
REMARK                            x       y       z     vdW  Elec       q    Type
REMARK                         _______ _______ _______ _____ _____    ______ ____
ROOT
ATOM      1  N   UNL     1      -2.103   1.072   1.277  0.00  0.00    -0.255 N 
ATOM      2  C   UNL     1      -2.328  -0.252   1.170  0.00  0.00    +0.263 A 
ATOM      3  O   UNL     1      -1.393  -1.027   1.064  0.00  0.00    -0.267 OA
ATOM      4  C   UNL     1      -3.649  -0.734   1.181  0.00  0.00    +0.072 A 
ATOM      5  C   UNL     1      -4.677   0.153   1.300  0.00  0.00    +0.260 A 
ATOM      6  N   UNL     1      -4.403   1.493   1.407  0.00  0.00    -0.275 N 
ATOM      7  H   UNL     1      -5.226   2.217   1.499  0.00  0.00    +0.173 HD
ATOM      8  C   UNL     1      -3.131   1.932   1.399  0.00  0.00    +0.333 A 
ATOM      9  O   UNL     1      -2.908   3.123   1.499  0.00  0.00    -0.246 OA
ATOM     10  O   UNL     1      -5.955  -0.283   1.314  0.00  0.00    -0.267 OA
ENDROOT
BRANCH   4  11
ATOM     11  C   UNL     1      -3.925  -2.211   1.062  0.00  0.00    +0.001 C 
ATOM     12  C   UNL     1      -3.487  -2.692  -0.296  0.00  0.00    -0.054 A 
ATOM     13  C   UNL     1      -3.784  -1.901  -1.401  0.00  0.00    +0.002 A 
ATOM     14  C   UNL     1      -3.409  -2.303  -2.666  0.00  0.00    +0.000 A 
ATOM     15  C   UNL     1      -2.737  -3.499  -2.838  0.00  0.00    +0.000 A 
ATOM     16  C   UNL     1      -2.444  -4.285  -1.742  0.00  0.00    +0.004 A 
ATOM     17  C   UNL     1      -2.820  -3.882  -0.470  0.00  0.00    -0.047 A 
ATOM     18  C   UNL     1      -2.475  -4.771   0.698  0.00  0.00    +0.016 C 
ATOM     19  C   UNL     1      -3.311  -4.380   1.916  0.00  0.00    -0.077 C 
ATOM     20  N   UNL     1      -3.196  -2.926   2.115  0.00  0.00    +0.387 N 
ATOM     21  H   UNL     1      -2.134  -2.642   2.083  0.00  0.00    -0.085 HD
ATOM     22  H   UNL     1      -3.617  -2.663   3.096  0.00  0.00    -0.085 HD
ENDBRANCH   4  11
BRANCH   1  24
ATOM     23  C   UNL     1       0.245   0.409   1.121  0.00  0.00    +0.034 C 
ATOM     24  C   UNL     1      -0.729   1.579   1.267  0.00  0.00    +0.045 C 
ATOM     25  C   UNL     1      -0.447   2.317   2.577  0.00  0.00    +0.034 C 
ATOM     26  C   UNL     1      -0.549   2.542   0.091  0.00  0.00    +0.034 C 
ENDBRANCH   1  24
TORSDOF 2
