REMARK  Name = ZINC16369277
REMARK  9 active torsions:
REMARK  status: ('A' for Active; 'I' for Inactive)
REMARK    1  A    between atoms: C_1  and  C_2
REMARK    2  A    between atoms: C_2  and  C_4
REMARK    3  A    between atoms: C_2  and  S_20
REMARK    4  A    between atoms: N_9  and  C_10
REMARK    5  A    between atoms: S_20  and  C_21
REMARK    6  A    between atoms: N_25  and  C_26
REMARK    7  A    between atoms: C_26  and  C_27
REMARK    8  A    between atoms: C_30  and  O_33
REMARK    9  A    between atoms: O_33  and  C_34
REMARK                            x       y       z     vdW  Elec       q    Type
REMARK                         _______ _______ _______ _____ _____    ______ ____
ROOT
ATOM      1  C   UNL     1      -1.613   5.077   2.768  0.00  0.00    +0.234 C 
ATOM      2  O   UNL     1      -1.171   5.875   1.970  0.00  0.00    -0.274 OA
ATOM      3  N   UNL     1      -1.474   3.755   2.546  0.00  0.00    -0.239 N 
ATOM      4  C   UNL     1      -0.843   3.320   1.438  0.00  0.00    +0.306 C 
ATOM      5  O   UNL     1      -0.400   4.121   0.637  0.00  0.00    -0.252 OA
ATOM      6  N   UNL     1      -0.704   1.998   1.216  0.00  0.00    -0.294 N 
ATOM      7  H   UNL     1      -1.828   3.116   3.185  0.00  0.00    +0.159 HD
ATOM      8  H   UNL     1      -1.058   1.359   1.854  0.00  0.00    +0.151 HD
ENDROOT
BRANCH   6   9
ATOM      9  C   UNL     1      -0.019   1.526   0.010  0.00  0.00    +0.037 C 
ATOM     10  C   UNL     1       1.417   2.055  -0.000  0.00  0.00    +0.029 C 
ATOM     11  C   UNL     1       2.133   1.562  -1.259  0.00  0.00    -0.008 C 
ATOM     12  C   UNL     1       2.154   0.032  -1.268  0.00  0.00    +0.007 C 
ATOM     13  C   UNL     1       0.718  -0.497  -1.257  0.00  0.00    -0.008 C 
ATOM     14  C   UNL     1       0.002  -0.004   0.002  0.00  0.00    +0.029 C 
ATOM     15  C   UNL     1      -0.022   0.009  -2.496  0.00  0.00    +0.007 C 
ATOM     16  C   UNL     1      -0.043   1.539  -2.488  0.00  0.00    -0.008 C 
ATOM     17  C   UNL     1       1.393   2.069  -2.499  0.00  0.00    +0.007 C 
ATOM     18  C   UNL     1      -0.759   2.033  -1.229  0.00  0.00    +0.029 C 
ENDBRANCH   6   9
BRANCH   1  20
ATOM     19  C   UNL     1      -1.325   5.622   5.170  0.00  0.00    +0.029 C 
ATOM     20  C   UNL     1      -2.319   5.563   4.008  0.00  0.00    +0.137 C 
BRANCH  20  21
ATOM     21  S   UNL     1      -2.995   7.215   3.709  0.00  0.00    -0.072 S 
BRANCH  21  22
ATOM     22  C   UNL     1      -3.868   7.466   5.219  0.00  0.00    +0.210 A 
ATOM     23  N   UNL     1      -3.946   6.624   6.226  0.00  0.00    -0.101 NA
ATOM     24  N   UNL     1      -4.661   7.118   7.171  0.00  0.00    -0.022 NA
ATOM     25  N   UNL     1      -5.086   8.290   6.846  0.00  0.00    -0.043 NA
ATOM     26  N   UNL     1      -4.581   8.565   5.563  0.00  0.00    -0.216 N 
BRANCH  26  27
ATOM     27  C   UNL     1      -4.784   9.778   4.768  0.00  0.00    +0.183 C 
BRANCH  27  28
ATOM     28  C   UNL     1      -6.018   9.621   3.917  0.00  0.00    -0.026 A 
ATOM     29  C   UNL     1      -5.915   9.089   2.645  0.00  0.00    +0.009 A 
ATOM     30  C   UNL     1      -7.045   8.938   1.865  0.00  0.00    +0.046 A 
ATOM     31  C   UNL     1      -8.282   9.331   2.355  0.00  0.00    +0.120 A 
ATOM     32  C   UNL     1      -8.382   9.870   3.629  0.00  0.00    +0.046 A 
ATOM     33  C   UNL     1      -7.249  10.014   4.407  0.00  0.00    +0.009 A 
BRANCH  31  34
ATOM     34  O   UNL     1      -9.395   9.189   1.587  0.00  0.00    -0.495 OA
ATOM     35  C   UNL     1      -9.218   8.627   0.285  0.00  0.00    +0.277 C 
ENDBRANCH  31  34
ENDBRANCH  27  28
ENDBRANCH  26  27
ENDBRANCH  21  22
ENDBRANCH  20  21
ENDBRANCH   1  20
TORSDOF 7
