REMARK  Name = ZINC65509021
REMARK  7 active torsions:
REMARK  status: ('A' for Active; 'I' for Inactive)
REMARK    1  A    between atoms: C_1  and  C_2
REMARK    2  A    between atoms: C_2  and  C_3
REMARK    3  A    between atoms: C_2  and  C_4
REMARK    4  A    between atoms: C_2  and  C_5
REMARK    5  A    between atoms: C_15  and  C_17
REMARK    6  A    between atoms: C_20  and  O_23
REMARK    7  A    between atoms: O_23  and  C_24
REMARK                            x       y       z     vdW  Elec       q    Type
REMARK                         _______ _______ _______ _____ _____    ______ ____
ROOT
ATOM      1  C   UNL     1       0.606  -0.213  -1.363  0.00  0.00    +0.074 A 
ATOM      2  C   UNL     1       0.685  -1.420  -2.042  0.00  0.00    +0.023 A 
ATOM      3  C   UNL     1       1.296  -1.188  -3.246  0.00  0.00    +0.124 A 
ATOM      4  N   UNL     1       1.594   0.118  -3.306  0.00  0.00    -0.263 N 
ATOM      5  H   UNL     1       2.038   0.570  -4.041  0.00  0.00    +0.190 HD
ATOM      6  N   UNL     1       1.145   0.716  -2.117  0.00  0.00    -0.176 NA
ATOM      7  N   UNL     1       1.506  -2.207  -4.174  0.00  0.00    -0.270 N 
ATOM      8  C   UNL     1       0.913  -3.400  -3.953  0.00  0.00    +0.219 C 
ATOM      9  O   UNL     1       1.230  -4.349  -4.638  0.00  0.00    -0.275 OA
ATOM     10  C   UNL     1      -0.127  -3.589  -2.885  0.00  0.00    +0.109 C 
ATOM     11  C   UNL     1       0.221  -2.792  -1.623  0.00  0.00    +0.064 C 
ATOM     12  H   UNL     1       2.061  -2.063  -4.956  0.00  0.00    +0.156 HD
ENDROOT
BRANCH  11  13
ATOM     13  C   UNL     1       1.322  -3.491  -0.868  0.00  0.00    -0.021 A 
ATOM     14  C   UNL     1       1.120  -3.909   0.440  0.00  0.00    +0.011 A 
ATOM     15  C   UNL     1       2.157  -4.547   1.097  0.00  0.00    +0.067 A 
ATOM     16  C   UNL     1       3.358  -4.749   0.429  0.00  0.00    +0.214 A 
ATOM     17  N   UNL     1       3.513  -4.336  -0.818  0.00  0.00    -0.221 NA
ATOM     18  C   UNL     1       2.540  -3.729  -1.472  0.00  0.00    +0.119 A 
BRANCH  16  19
ATOM     19  O   UNL     1       4.382  -5.374   1.062  0.00  0.00    -0.480 OA
ATOM     20  C   UNL     1       5.591  -5.551   0.321  0.00  0.00    +0.279 C 
ENDBRANCH  16  19
ENDBRANCH  11  13
BRANCH   1  22
ATOM     21  C   UNL     1       0.063   1.481   0.365  0.00  0.00    +0.017 C 
ATOM     22  C   UNL     1       0.002  -0.004   0.002  0.00  0.00    +0.007 C 
ATOM     23  C   UNL     1       0.786  -0.815   1.036  0.00  0.00    +0.017 C 
ATOM     24  C   UNL     1      -1.456  -0.466  -0.010  0.00  0.00    +0.017 C 
ENDBRANCH   1  22
TORSDOF 3
