REMARK  Name = ZINC06192211
REMARK  2 active torsions:
REMARK  status: ('A' for Active; 'I' for Inactive)
REMARK    1  A    between atoms: C_4  and  N_7
REMARK    2  A    between atoms: N_7  and  C_8
REMARK                            x       y       z     vdW  Elec       q    Type
REMARK                         _______ _______ _______ _____ _____    ______ ____
ROOT
ATOM      1  C   UNL     1       3.425  -1.655  -2.483  0.00  0.00    +0.086 C 
ATOM      2  C   UNL     1       3.981  -2.144  -3.650  0.00  0.00    +0.112 C 
ATOM      3  C   UNL     1       4.056  -1.321  -4.871  0.00  0.00    +0.258 C 
ATOM      4  O   UNL     1       3.627  -0.182  -4.884  0.00  0.00    -0.270 OA
ATOM      5  N   UNL     1       4.613  -1.864  -5.973  0.00  0.00    -0.236 N 
ATOM      6  C   UNL     1       5.090  -3.117  -5.972  0.00  0.00    +0.313 C 
ATOM      7  O   UNL     1       5.580  -3.546  -6.998  0.00  0.00    -0.252 OA
ATOM      8  N   UNL     1       5.056  -3.920  -4.900  0.00  0.00    -0.236 N 
ATOM      9  C   UNL     1       4.532  -3.509  -3.727  0.00  0.00    +0.258 C 
ATOM     10  O   UNL     1       4.511  -4.246  -2.759  0.00  0.00    -0.270 OA
ATOM     11  H   UNL     1       4.670  -1.336  -6.784  0.00  0.00    +0.159 HD
ATOM     12  H   UNL     1       5.419  -4.817  -4.968  0.00  0.00    +0.159 HD
ENDROOT
BRANCH   1  13
ATOM     13  N   UNL     1       2.788  -0.467  -2.487  0.00  0.00    -0.346 N 
ATOM     14  H   UNL     1       2.649   0.007  -3.322  0.00  0.00    +0.146 HD
BRANCH  13  18
ATOM     15  C   UNL     1       0.322   1.659   0.271  0.00  0.00    +0.000 C 
ATOM     16  C   UNL     1       1.703   2.231  -0.056  0.00  0.00    +0.002 C 
ATOM     17  C   UNL     1       2.207   1.630  -1.369  0.00  0.00    +0.022 C 
ATOM     18  C   UNL     1       2.305   0.110  -1.229  0.00  0.00    +0.070 C 
ATOM     19  C   UNL     1       0.925  -0.463  -0.902  0.00  0.00    +0.022 C 
ATOM     20  C   UNL     1       0.421   0.138   0.411  0.00  0.00    +0.002 C 
ENDBRANCH  13  18
ENDBRANCH   1  13
TORSDOF 2
