REMARK  Name = ZINC36609311
REMARK  9 active torsions:
REMARK  status: ('A' for Active; 'I' for Inactive)
REMARK    1  A    between atoms: C_4  and  N_7
REMARK    2  A    between atoms: N_7  and  C_8
REMARK    3  A    between atoms: C_8  and  C_10
REMARK    4  A    between atoms: C_8  and  C_17
REMARK    5  A    between atoms: C_14  and  O_16
REMARK    6  A    between atoms: N_19  and  C_20
REMARK    7  A    between atoms: C_26  and  C_28
REMARK    8  A    between atoms: C_30  and  N_35
REMARK    9  A    between atoms: C_33  and  O_34
REMARK                            x       y       z     vdW  Elec       q    Type
REMARK                         _______ _______ _______ _____ _____    ______ ____
ROOT
ATOM      1  N   UNL     1       3.982  -1.504   0.886  0.00  0.00    -0.251 N 
ATOM      2  C   UNL     1       5.257  -1.173   1.170  0.00  0.00    +0.255 C 
ATOM      3  O   UNL     1       6.131  -1.359   0.346  0.00  0.00    -0.269 OA
ENDROOT
BRANCH   1   7
ATOM      4  C   UNL     1       3.099  -3.570  -2.622  0.00  0.00    +0.000 A 
ATOM      5  C   UNL     1       2.656  -2.271  -2.456  0.00  0.00    +0.002 A 
ATOM      6  C   UNL     1       2.946  -1.583  -1.294  0.00  0.00    +0.023 A 
ATOM      7  C   UNL     1       3.685  -2.198  -0.292  0.00  0.00    +0.038 A 
ATOM      8  C   UNL     1       4.129  -3.503  -0.461  0.00  0.00    +0.023 A 
ATOM      9  C   UNL     1       3.835  -4.185  -1.625  0.00  0.00    +0.002 A 
ENDBRANCH   1   7
BRANCH   2  10
ATOM     10  C   UNL     1       5.592  -0.584   2.480  0.00  0.00    +0.081 A 
ATOM     11  C   UNL     1       5.243  -1.248   3.659  0.00  0.00    +0.049 A 
ATOM     12  C   UNL     1       5.558  -0.692   4.879  0.00  0.00    +0.127 A 
ATOM     13  C   UNL     1       6.220   0.524   4.944  0.00  0.00    +0.036 A 
ATOM     14  C   UNL     1       6.571   1.190   3.787  0.00  0.00    +0.048 A 
ATOM     15  C   UNL     1       6.267   0.643   2.550  0.00  0.00    +0.129 A 
BRANCH  12  16
ATOM     16  N   UNL     1       5.188  -1.396   6.127  0.00  0.00    +0.056 N 
ATOM     17  O   UNL     1       4.674  -2.489   6.075  0.00  0.00    -0.126 OA
ATOM     18  O   UNL     1       5.399  -0.878   7.199  0.00  0.00    -0.126 OA
ENDBRANCH  12  16
BRANCH  15  19
ATOM     19  O   UNL     1       6.616   1.294   1.412  0.00  0.00    -0.506 OA
ATOM     20  H   UNL     1       5.944   1.908   1.088  0.00  0.00    +0.292 HD
ENDBRANCH  15  19
ENDBRANCH   2  10
BRANCH   1  21
ATOM     21  C   UNL     1       2.906  -1.138   1.811  0.00  0.00    +0.198 C 
BRANCH  21  22
ATOM     22  C   UNL     1       1.677  -1.951   1.499  0.00  0.00    -0.014 A 
ATOM     23  C   UNL     1       0.542  -1.329   1.012  0.00  0.00    +0.006 A 
ATOM     24  C   UNL     1      -0.588  -2.072   0.725  0.00  0.00    +0.004 A 
ATOM     25  C   UNL     1      -0.586  -3.439   0.924  0.00  0.00    +0.045 A 
ATOM     26  C   UNL     1       0.551  -4.066   1.413  0.00  0.00    +0.117 A 
ATOM     27  C   UNL     1       1.686  -3.318   1.694  0.00  0.00    +0.051 A 
BRANCH  26  28
ATOM     28  O   UNL     1       0.556  -5.410   1.609  0.00  0.00    -0.507 OA
ATOM     29  H   UNL     1       0.846  -5.920   0.840  0.00  0.00    +0.292 HD
ENDBRANCH  26  28
ENDBRANCH  21  22
BRANCH  21  30
ATOM     30  C   UNL     1       2.591   0.328   1.659  0.00  0.00    +0.239 C 
ATOM     31  O   UNL     1       3.204   1.000   0.857  0.00  0.00    -0.273 OA
ATOM     32  N   UNL     1       1.628   0.892   2.414  0.00  0.00    -0.311 N 
ATOM     33  H   UNL     1       1.137   0.354   3.056  0.00  0.00    +0.149 HD
BRANCH  32  34
ATOM     34  C   UNL     1       1.321   2.317   2.267  0.00  0.00    +0.073 C 
ATOM     35  C   UNL     1       2.277   3.137   3.135  0.00  0.00    +0.022 C 
ATOM     36  C   UNL     1       1.957   4.625   2.981  0.00  0.00    +0.002 C 
ATOM     37  C   UNL     1       0.516   4.885   3.424  0.00  0.00    +0.000 C 
ATOM     38  C   UNL     1      -0.440   4.065   2.555  0.00  0.00    +0.002 C 
ATOM     39  C   UNL     1      -0.120   2.577   2.710  0.00  0.00    +0.022 C 
ENDBRANCH  32  34
ENDBRANCH  21  30
ENDBRANCH   1  21
TORSDOF 9
