REMARK  Name = ZINC28833030
REMARK  7 active torsions:
REMARK  status: ('A' for Active; 'I' for Inactive)
REMARK    1  A    between atoms: C_1  and  C_2
REMARK    2  A    between atoms: C_5  and  C_7
REMARK    3  A    between atoms: C_9  and  C_13
REMARK    4  A    between atoms: N_15  and  C_16
REMARK    5  A    between atoms: C_16  and  C_17
REMARK    6  A    between atoms: C_17  and  C_19
REMARK    7  A    between atoms: C_17  and  N_24
REMARK                            x       y       z     vdW  Elec       q    Type
REMARK                         _______ _______ _______ _____ _____    ______ ____
ROOT
ATOM      1  C   UNL     1      -0.006   1.246   0.012  0.00  0.00    +0.264 C 
ATOM      2  O   UNL     1       0.029   0.037   0.130  0.00  0.00    -0.268 OA
ATOM      3  N   UNL     1      -1.191   1.887  -0.016  0.00  0.00    -0.311 N 
ATOM      4  H   UNL     1      -1.223   2.981  -0.123  0.00  0.00    +0.149 HD
ENDROOT
BRANCH   1   7
ATOM      5  C   UNL     1       3.392   2.561  -0.235  0.00  0.00    +0.073 A 
ATOM      6  C   UNL     1       2.559   1.482  -0.095  0.00  0.00    +0.063 A 
ATOM      7  C   UNL     1       1.251   2.013  -0.108  0.00  0.00    +0.147 A 
ATOM      8  N   UNL     1       1.359   3.321  -0.240  0.00  0.00    -0.169 NA
ATOM      9  N   UNL     1       2.594   3.665  -0.317  0.00  0.00    -0.276 N 
ATOM     10  H   UNL     1       3.044   4.662  -0.430  0.00  0.00    +0.189 HD
BRANCH   5  15
ATOM     11  C   UNL     1       8.918   1.479  -0.316  0.00  0.00    +0.051 C 
ATOM     12  C   UNL     1       7.512   2.020  -0.322  0.00  0.00    -0.013 A 
ATOM     13  C   UNL     1       7.094   3.307  -0.435  0.00  0.00    +0.011 A 
ATOM     14  C   UNL     1       5.743   3.578  -0.416  0.00  0.00    +0.018 A 
ATOM     15  C   UNL     1       4.864   2.534  -0.283  0.00  0.00    +0.037 A 
ATOM     16  S   UNL     1       5.969   1.135  -0.176  0.00  0.00    -0.092 S 
ENDBRANCH   5  15
ENDBRANCH   1   7
BRANCH   3  17
ATOM     17  C   UNL     1      -2.438   1.126   0.097  0.00  0.00    +0.097 C 
BRANCH  17  18
ATOM     18  C   UNL     1      -3.622   2.093   0.156  0.00  0.00    +0.016 C 
BRANCH  18  19
ATOM     19  N   UNL     1      -4.859   1.338   0.398  0.00  0.00    +0.387 N 
ATOM     20  C   UNL     1      -4.782   0.585   1.676  0.00  0.00    -0.078 C 
ATOM     21  C   UNL     1      -6.268   0.312   2.018  0.00  0.00    -0.020 C 
ATOM     22  C   UNL     1      -6.971   1.612   1.564  0.00  0.00    -0.020 C 
ATOM     23  C   UNL     1      -6.017   2.248   0.536  0.00  0.00    -0.078 C 
ATOM     24  H   UNL     1      -4.974   0.667  -0.466  0.00  0.00    -0.081 HD
ENDBRANCH  18  19
BRANCH  18  25
ATOM     25  C   UNL     1      -3.733   2.833  -1.152  0.00  0.00    +0.093 A 
ATOM     26  C   UNL     1      -3.295   4.082  -1.389  0.00  0.00    +0.043 A 
ATOM     27  C   UNL     1      -3.602   4.375  -2.737  0.00  0.00    +0.041 A 
ATOM     28  C   UNL     1      -4.210   3.288  -3.244  0.00  0.00    +0.195 A 
ATOM     29  O   UNL     1      -4.281   2.354  -2.281  0.00  0.00    -0.469 OA
ENDBRANCH  18  25
ENDBRANCH  17  18
ENDBRANCH   3  17
TORSDOF 6
