REMARK  Name = ZINC04987573
REMARK  3 active torsions:
REMARK  status: ('A' for Active; 'I' for Inactive)
REMARK    1  A    between atoms: C_6  and  C_7
REMARK    2  A    between atoms: C_7  and  S_8
REMARK    3  A    between atoms: S_8  and  C_9
REMARK                            x       y       z     vdW  Elec       q    Type
REMARK                         _______ _______ _______ _____ _____    ______ ____
ROOT
ATOM      1  C   UNL     1       0.002  -0.004   0.002  0.00  0.00    +0.138 A 
ATOM      2  N   UNL     1      -0.016   1.317   0.009  0.00  0.00    -0.213 NA
ATOM      3  C   UNL     1       1.094   2.043   0.003  0.00  0.00    +0.179 A 
ATOM      4  C   UNL     1       2.290   1.307  -0.013  0.00  0.00    +0.123 A 
ATOM      5  S   UNL     1       1.701  -0.366  -0.016  0.00  0.00    -0.054 S 
ATOM      6  C   UNL     1       3.526   1.928  -0.021  0.00  0.00    +0.270 A 
ATOM      7  N   UNL     1       3.583   3.259  -0.014  0.00  0.00    -0.273 N 
ATOM      8  C   UNL     1       2.466   3.981   0.000  0.00  0.00    +0.351 A 
ATOM      9  O   UNL     1       2.557   5.197   0.005  0.00  0.00    -0.245 OA
ATOM     10  N   UNL     1       1.243   3.428   0.009  0.00  0.00    -0.173 NA
ATOM     11  O   UNL     1       4.661   1.193  -0.036  0.00  0.00    -0.266 OA
ATOM     12  H   UNL     1       4.559   3.767  -0.021  0.00  0.00    +0.174 HD
ENDROOT
BRANCH   1  13
ATOM     13  S   UNL     1      -1.360  -1.122   0.009  0.00  0.00    -0.094 S 
BRANCH  13  14
ATOM     14  C   UNL     1      -2.734   0.057   0.028  0.00  0.00    +0.111 C 
BRANCH  14  20
ATOM     15  C   UNL     1      -4.653  -1.027  -1.157  0.00  0.00    +0.006 A 
ATOM     16  C   UNL     1      -5.849  -1.720  -1.151  0.00  0.00    +0.022 A 
ATOM     17  C   UNL     1      -6.438  -2.072   0.050  0.00  0.00    +0.059 A 
ATOM     18  C   UNL     1      -5.827  -1.734   1.245  0.00  0.00    +0.060 A 
ATOM     19  C   UNL     1      -4.628  -1.046   1.237  0.00  0.00    +0.026 A 
ATOM     20  C   UNL     1      -4.040  -0.694   0.036  0.00  0.00    -0.036 A 
ATOM     21 CL   UNL     1      -6.565  -2.176   2.753  0.00  0.00    -0.082 Cl
ATOM     22 CL   UNL     1      -7.943  -2.937   0.058  0.00  0.00    -0.082 Cl
ENDBRANCH  14  20
ENDBRANCH  13  14
ENDBRANCH   1  13
TORSDOF 3
