REMARK  Name = ZINC63362105
REMARK  10 active torsions:
REMARK  status: ('A' for Active; 'I' for Inactive)
REMARK    1  A    between atoms: C_1  and  C_2
REMARK    2  A    between atoms: C_2  and  C_3
REMARK    3  A    between atoms: C_3  and  C_4
REMARK    4  A    between atoms: C_4  and  C_5
REMARK    5  A    between atoms: C_5  and  C_6
REMARK    6  A    between atoms: C_6  and  C_8
REMARK    7  A    between atoms: C_6  and  N_9
REMARK    8  A    between atoms: C_10  and  C_12
REMARK    9  A    between atoms: C_16  and  N_18
REMARK   10  A    between atoms: C_21  and  C_37
REMARK                            x       y       z     vdW  Elec       q    Type
REMARK                         _______ _______ _______ _____ _____    ______ ____
ROOT
ATOM      1  N   UNL     1      -3.490  -9.338   1.422  0.00  0.00    -0.192 N 
ATOM      2  C   UNL     1      -2.640 -10.136   0.742  0.00  0.00    +0.253 C 
ATOM      3  O   UNL     1      -1.502  -9.881   0.412  0.00  0.00    -0.272 OA
ATOM      4  C   UNL     1      -3.405 -11.413   0.477  0.00  0.00    +0.137 C 
ATOM      5  C   UNL     1      -3.506 -11.680  -1.024  0.00  0.00    +0.139 C 
ATOM      6  C   UNL     1      -4.963 -11.488  -1.422  0.00  0.00    -0.034 C 
ATOM      7  C   UNL     1      -4.966 -10.579  -2.394  0.00  0.00    -0.001 A 
ATOM      8  C   UNL     1      -6.057 -10.032  -3.216  0.00  0.00    +0.010 A 
ATOM      9  C   UNL     1      -5.703  -9.090  -4.130  0.00  0.00    +0.001 A 
ATOM     10  C   UNL     1      -4.390  -8.643  -4.305  0.00  0.00    +0.002 A 
ATOM     11  C   UNL     1      -3.325  -9.094  -3.596  0.00  0.00    +0.026 A 
ATOM     12  C   UNL     1      -3.570 -10.091  -2.608  0.00  0.00    +0.043 A 
ATOM     13  N   UNL     1      -2.733 -10.711  -1.805  0.00  0.00    -0.375 N 
ATOM     14  C   UNL     1      -6.115 -12.182  -0.738  0.00  0.00    +0.052 C 
ATOM     15  C   UNL     1      -5.947 -11.946   0.776  0.00  0.00    +0.115 C 
ATOM     16  N   UNL     1      -4.762 -11.107   0.974  0.00  0.00    -0.268 N 
ATOM     17  C   UNL     1      -4.687  -9.917   1.586  0.00  0.00    +0.316 C 
ATOM     18  O   UNL     1      -5.600  -9.418   2.214  0.00  0.00    -0.252 OA
ATOM     19  C   UNL     1      -2.789 -12.596   1.227  0.00  0.00    +0.044 C 
ATOM     20  H   UNL     1      -1.778 -10.558  -1.733  0.00  0.00    +0.160 HD
ENDROOT
BRANCH   1  25
ATOM     21  C   UNL     1      -1.532  -6.331   2.278  0.00  0.00    +0.038 A 
ATOM     22  C   UNL     1      -2.521  -5.537   2.862  0.00  0.00    +0.013 A 
ATOM     23  C   UNL     1      -3.814  -6.008   2.963  0.00  0.00    +0.003 A 
ATOM     24  C   UNL     1      -4.135  -7.266   2.487  0.00  0.00    +0.024 A 
ATOM     25  C   UNL     1      -3.158  -8.063   1.903  0.00  0.00    +0.046 A 
ATOM     26  C   UNL     1      -1.858  -7.597   1.792  0.00  0.00    +0.037 A 
BRANCH  21  28
ATOM     27  N   UNL     1       0.167  -4.605   2.639  0.00  0.00    -0.309 N 
ATOM     28  C   UNL     1      -0.146  -5.829   2.169  0.00  0.00    +0.244 C 
ATOM     29  O   UNL     1       0.712  -6.519   1.655  0.00  0.00    -0.270 OA
ATOM     30  H   UNL     1      -0.518  -4.053   3.049  0.00  0.00    +0.149 HD
BRANCH  27  31
ATOM     31  C   UNL     1       1.540  -4.107   2.531  0.00  0.00    +0.070 C 
ATOM     32  C   UNL     1       2.361  -4.612   3.720  0.00  0.00    +0.028 C 
BRANCH  31  33
ATOM     33  C   UNL     1       1.530  -2.577   2.532  0.00  0.00    +0.022 C 
BRANCH  33  34
ATOM     34  C   UNL     1       0.816  -2.071   1.277  0.00  0.00    +0.002 C 
BRANCH  34  35
ATOM     35  C   UNL     1       0.806  -0.541   1.278  0.00  0.00    -0.000 C 
BRANCH  35  37
ATOM     36  C   UNL     1       0.082   1.495   0.023  0.00  0.00    +0.004 C 
ATOM     37  C   UNL     1       0.092  -0.035   0.022  0.00  0.00    -0.003 C 
ENDBRANCH  35  37
ENDBRANCH  34  35
ENDBRANCH  33  34
ENDBRANCH  31  33
ENDBRANCH  27  31
ENDBRANCH  21  28
ENDBRANCH   1  25
TORSDOF 7
