REMARK  Name = ZINC35058916
REMARK  14 active torsions:
REMARK  status: ('A' for Active; 'I' for Inactive)
REMARK    1  A    between atoms: C_1  and  C_2
REMARK    2  A    between atoms: C_2  and  C_3
REMARK    3  A    between atoms: C_3  and  N_4
REMARK    4  A    between atoms: N_4  and  C_5
REMARK    5  A    between atoms: C_5  and  C_6
REMARK    6  A    between atoms: C_16  and  C_18
REMARK    7  A    between atoms: C_25  and  C_27
REMARK    8  A    between atoms: C_27  and  C_28
REMARK    9  A    between atoms: C_28  and  C_30
REMARK   10  A    between atoms: C_28  and  C_31
REMARK   11  A    between atoms: C_31  and  C_32
REMARK   12  A    between atoms: C_32  and  C_33
REMARK   13  A    between atoms: C_32  and  C_34
REMARK   14  A    between atoms: C_32  and  C_35
REMARK                            x       y       z     vdW  Elec       q    Type
REMARK                         _______ _______ _______ _____ _____    ______ ____
ROOT
ATOM      1  C   UNL     1       3.121  -1.218   2.247  0.00  0.00    +0.234 C 
ATOM      2  O   UNL     1       3.107  -0.933   3.425  0.00  0.00    -0.274 OA
ATOM      3  N   UNL     1       4.276  -1.160   1.554  0.00  0.00    -0.286 N 
ATOM      4  C   UNL     1       4.322  -1.520   0.128  0.00  0.00    +0.130 C 
ATOM      5  C   UNL     1       4.704  -0.284  -0.693  0.00  0.00    +0.140 C 
ATOM      6  N   UNL     1       5.845   0.385  -0.058  0.00  0.00    -0.347 N 
ATOM      7  C   UNL     1       6.694   1.279  -0.635  0.00  0.00    +0.086 A 
ATOM      8  C   UNL     1       7.598   1.662   0.291  0.00  0.00    +0.019 A 
ATOM      9  C   UNL     1       7.298   0.975   1.486  0.00  0.00    +0.025 A 
ATOM     10  C   UNL     1       6.228   0.201   1.243  0.00  0.00    +0.044 A 
ATOM     11  C   UNL     1       5.529  -0.729   2.201  0.00  0.00    +0.153 C 
ENDROOT
BRANCH  11  12
ATOM     12  C   UNL     1       5.222  -0.006   3.487  0.00  0.00    -0.019 A 
ATOM     13  C   UNL     1       4.398   1.104   3.475  0.00  0.00    +0.006 A 
ATOM     14  C   UNL     1       4.115   1.768   4.654  0.00  0.00    +0.003 A 
ATOM     15  C   UNL     1       4.656   1.323   5.846  0.00  0.00    +0.038 A 
ATOM     16  C   UNL     1       5.481   0.211   5.858  0.00  0.00    +0.124 A 
ATOM     17  C   UNL     1       5.758  -0.457   4.678  0.00  0.00    +0.044 A 
ATOM     18  F   UNL     1       6.010  -0.225   7.022  0.00  0.00    -0.205 F 
ENDBRANCH  11  12
BRANCH   1  19
ATOM     19  C   UNL     1       1.848  -1.635   1.556  0.00  0.00    +0.203 C 
BRANCH  19  20
ATOM     20  N   UNL     1       0.743  -1.618   2.518  0.00  0.00    -0.293 N 
ATOM     21  C   UNL     1       0.453  -2.723   3.232  0.00  0.00    +0.216 C 
ATOM     22  O   UNL     1       1.107  -3.733   3.078  0.00  0.00    -0.276 OA
BRANCH  20  23
ATOM     23  C   UNL     1      -0.047  -0.398   2.704  0.00  0.00    +0.108 C 
BRANCH  23  25
ATOM     24  C   UNL     1      -2.054   0.870   1.927  0.00  0.00    +0.005 C 
ATOM     25  C   UNL     1      -1.229  -0.404   1.733  0.00  0.00    +0.016 C 
ENDBRANCH  23  25
ENDBRANCH  20  23
BRANCH  21  26
ATOM     26  C   UNL     1      -0.684  -2.705   4.221  0.00  0.00    +0.099 C 
BRANCH  26  27
ATOM     27  C   UNL     1      -0.798  -4.075   4.891  0.00  0.00    -0.005 C 
ATOM     28  C   UNL     1       0.457  -4.343   5.723  0.00  0.00    +0.008 C 
BRANCH  27  29
ATOM     29  C   UNL     1      -2.028  -4.096   5.803  0.00  0.00    +0.010 C 
BRANCH  29  30
ATOM     30  C   UNL     1      -2.369  -5.543   6.166  0.00  0.00    -0.037 C 
ATOM     31  C   UNL     1      -1.272  -6.115   7.066  0.00  0.00    +0.010 C 
ATOM     32  C   UNL     1      -3.708  -5.580   6.906  0.00  0.00    +0.010 C 
ATOM     33  C   UNL     1      -2.468  -6.380   4.889  0.00  0.00    +0.010 C 
ENDBRANCH  29  30
ENDBRANCH  27  29
ENDBRANCH  26  27
ENDBRANCH  21  26
ENDBRANCH  19  20
ENDBRANCH   1  19
TORSDOF 9
