REMARK  Name = ZINC24494616
REMARK  3 active torsions:
REMARK  status: ('A' for Active; 'I' for Inactive)
REMARK    1  A    between atoms: C_4  and  C_7
REMARK    2  A    between atoms: C_8  and  C_9
REMARK    3  A    between atoms: N_10  and  N_11
REMARK                            x       y       z     vdW  Elec       q    Type
REMARK                         _______ _______ _______ _____ _____    ______ ____
ROOT
ATOM      1  N   UNL     1       6.104  -4.635   0.322  0.00  0.00    -0.111 NA
ATOM      2  C   UNL     1       6.130  -5.963   0.415  0.00  0.00    +0.253 A 
ATOM      3  N   UNL     1       4.954  -6.684   0.418  0.00  0.00    -0.295 N 
ATOM      4  C   UNL     1       5.013  -8.045   0.514  0.00  0.00    +0.201 A 
ATOM      5  N   UNL     1       6.188  -8.645   0.603  0.00  0.00    -0.182 NA
ATOM      6  C   UNL     1       7.318  -7.934   0.599  0.00  0.00    +0.224 A 
ATOM      7  N   UNL     1       7.295  -6.612   0.501  0.00  0.00    -0.177 NA
ATOM      8  N   UNL     1       8.526  -8.585   0.692  0.00  0.00    -0.299 N 
ATOM      9  C   UNL     1       8.710 -10.040   0.794  0.00  0.00    +0.108 C 
ATOM     10  C   UNL     1      10.226 -10.304   0.902  0.00  0.00    +0.020 C 
ATOM     11  C   UNL     1      10.778  -8.951   1.424  0.00  0.00    +0.020 C 
ATOM     12  C   UNL     1       9.851  -7.939   0.700  0.00  0.00    +0.108 C 
ATOM     13  N   UNL     1       3.863  -8.784   0.520  0.00  0.00    -0.301 N 
ATOM     14  C   UNL     1       2.499  -8.245   0.423  0.00  0.00    +0.108 C 
ATOM     15  C   UNL     1       1.528  -9.442   0.496  0.00  0.00    +0.020 C 
ATOM     16  C   UNL     1       2.376 -10.535   1.199  0.00  0.00    +0.020 C 
ATOM     17  C   UNL     1       3.786 -10.252   0.619  0.00  0.00    +0.108 C 
ATOM     18  H   UNL     1       4.099  -6.232   0.353  0.00  0.00    +0.172 HD
ENDROOT
BRANCH   1  20
ATOM     19  C   UNL     1       4.951  -2.706   0.148  0.00  0.00    +0.150 C 
ATOM     20  N   UNL     1       4.976  -4.016   0.239  0.00  0.00    -0.153 NA
BRANCH  19  22
ATOM     21  C   UNL     1       3.691  -0.678  -0.037  0.00  0.00    +0.024 C 
ATOM     22  C   UNL     1       3.716  -2.029   0.057  0.00  0.00    +0.038 C 
ATOM     23 BR   UNL     1       2.098  -3.007   0.068  0.00  0.00    -0.049 Br
BRANCH  21  27
ATOM     24  C   UNL     1      -0.004   1.393   0.179  0.00  0.00    +0.000 A 
ATOM     25  C   UNL     1       0.192   0.253   0.940  0.00  0.00    +0.001 A 
ATOM     26  C   UNL     1       1.390  -0.426   0.875  0.00  0.00    +0.008 A 
ATOM     27  C   UNL     1       2.410   0.040   0.037  0.00  0.00    -0.024 A 
ATOM     28  C   UNL     1       2.203   1.192  -0.729  0.00  0.00    +0.008 A 
ATOM     29  C   UNL     1       1.000   1.860  -0.652  0.00  0.00    +0.001 A 
ENDBRANCH  21  27
ENDBRANCH  19  22
ENDBRANCH   1  20
TORSDOF 3
