REMARK  Name = ZINC14653311
REMARK  10 active torsions:
REMARK  status: ('A' for Active; 'I' for Inactive)
REMARK    1  A    between atoms: C_1  and  C_2
REMARK    2  A    between atoms: C_2  and  C_3
REMARK    3  A    between atoms: C_3  and  C_4
REMARK    4  A    between atoms: C_4  and  N_5
REMARK    5  A    between atoms: C_6  and  N_35
REMARK    6  A    between atoms: C_7  and  N_14
REMARK    7  A    between atoms: N_14  and  C_15
REMARK    8  A    between atoms: C_15  and  C_16
REMARK    9  A    between atoms: C_21  and  C_23
REMARK   10  A    between atoms: C_26  and  C_29
REMARK                            x       y       z     vdW  Elec       q    Type
REMARK                         _______ _______ _______ _____ _____    ______ ____
ROOT
ATOM      1  N   UNL     1      -1.278   3.378  -0.105  0.00  0.00    -0.253 N 
ATOM      2  C   UNL     1      -0.963   2.086  -0.326  0.00  0.00    +0.251 C 
ATOM      3  O   UNL     1       0.202   1.753  -0.427  0.00  0.00    -0.270 OA
ENDROOT
BRANCH   1   6
ATOM      4  N   UNL     1      -4.644   3.630   1.345  0.00  0.00    -0.280 N 
ATOM      5  C   UNL     1      -3.334   3.247   1.170  0.00  0.00    +0.127 A 
ATOM      6  C   UNL     1      -2.622   3.751   0.101  0.00  0.00    +0.140 A 
ATOM      7  C   UNL     1      -3.259   4.647  -0.778  0.00  0.00    +0.277 A 
ATOM      8  O   UNL     1      -2.652   5.112  -1.728  0.00  0.00    -0.266 OA
ATOM      9  N   UNL     1      -4.546   4.986  -0.565  0.00  0.00    -0.273 N 
ATOM     10  H   UNL     1      -5.002   5.616  -1.193  0.00  0.00    +0.173 HD
ATOM     11  C   UNL     1      -5.224   4.485   0.483  0.00  0.00    +0.331 A 
ATOM     12  O   UNL     1      -6.383   4.810   0.654  0.00  0.00    -0.246 OA
BRANCH   5  13
ATOM     13  N   UNL     1      -2.742   2.373   2.050  0.00  0.00    -0.343 N 
ATOM     14  H   UNL     1      -1.798   2.167   1.967  0.00  0.00    +0.144 HD
ATOM     15  H   UNL     1      -3.268   1.964   2.755  0.00  0.00    +0.144 HD
ENDBRANCH   5  13
BRANCH   4  16
ATOM     16  C   UNL     1      -5.412   3.103   2.475  0.00  0.00    +0.128 C 
BRANCH  16  17
ATOM     17  C   UNL     1      -5.247   4.031   3.680  0.00  0.00    +0.021 C 
BRANCH  17  19
ATOM     18  C   UNL     1      -5.883   4.409   6.067  0.00  0.00    +0.004 C 
ATOM     19  C   UNL     1      -6.049   3.481   4.862  0.00  0.00    -0.002 C 
ENDBRANCH  17  19
ENDBRANCH  16  17
ENDBRANCH   4  16
ENDBRANCH   1   6
BRANCH   2  20
ATOM     20  C   UNL     1      -2.033   1.075  -0.446  0.00  0.00    +0.037 A 
ATOM     21  C   UNL     1      -3.325   1.464  -0.808  0.00  0.00    +0.013 A 
ATOM     22  C   UNL     1      -4.323   0.522  -0.913  0.00  0.00    +0.009 A 
ATOM     23  C   UNL     1      -4.045  -0.821  -0.658  0.00  0.00    -0.018 A 
ATOM     24  C   UNL     1      -2.755  -1.211  -0.296  0.00  0.00    +0.009 A 
ATOM     25  C   UNL     1      -1.756  -0.270  -0.191  0.00  0.00    +0.013 A 
BRANCH  23  26
ATOM     26  C   UNL     1      -5.121  -1.835  -0.772  0.00  0.00    -0.018 A 
ATOM     27  C   UNL     1      -4.845  -3.179  -0.524  0.00  0.00    +0.008 A 
ATOM     28  C   UNL     1      -5.851  -4.117  -0.626  0.00  0.00    +0.001 A 
ATOM     29  C   UNL     1      -7.129  -3.729  -0.985  0.00  0.00    +0.000 A 
ATOM     30  C   UNL     1      -7.408  -2.397  -1.238  0.00  0.00    +0.001 A 
ATOM     31  C   UNL     1      -6.410  -1.449  -1.134  0.00  0.00    +0.008 A 
ENDBRANCH  23  26
ENDBRANCH   2  20
BRANCH   1  32
ATOM     32  C   UNL     1      -0.223   4.395  -0.079  0.00  0.00    +0.188 C 
BRANCH  32  33
ATOM     33  C   UNL     1       0.099   4.820  -1.489  0.00  0.00    +0.122 A 
ATOM     34  C   UNL     1      -0.362   5.925  -2.102  0.00  0.00    +0.046 A 
ATOM     35  C   UNL     1       0.189   5.931  -3.404  0.00  0.00    +0.041 A 
ATOM     36  C   UNL     1       0.954   4.830  -3.508  0.00  0.00    +0.195 A 
ATOM     37  O   UNL     1       0.900   4.164  -2.343  0.00  0.00    -0.466 OA
ENDBRANCH  32  33
ENDBRANCH   1  32
TORSDOF 9
