REMARK  Name = ZINC16956869
REMARK  6 active torsions:
REMARK  status: ('A' for Active; 'I' for Inactive)
REMARK    1  A    between atoms: C_1  and  C_2
REMARK    2  A    between atoms: C_4  and  O_34
REMARK    3  A    between atoms: C_5  and  C_9
REMARK    4  A    between atoms: N_17  and  C_27
REMARK    5  A    between atoms: C_18  and  C_20
REMARK    6  A    between atoms: C_27  and  C_28
REMARK                            x       y       z     vdW  Elec       q    Type
REMARK                         _______ _______ _______ _____ _____    ______ ____
ROOT
ATOM      1  C   UNL     1      -0.230  -4.716  -0.091  0.00  0.00    +0.102 A 
ATOM      2  C   UNL     1       0.044  -5.344   1.129  0.00  0.00    +0.035 A 
ATOM      3  C   UNL     1       0.104  -6.696   0.852  0.00  0.00    +0.126 A 
ATOM      4  N   UNL     1      -0.130  -6.820  -0.488  0.00  0.00    -0.272 N 
ATOM      5  H   UNL     1      -0.150  -7.658  -0.975  0.00  0.00    +0.189 HD
ATOM      6  N   UNL     1      -0.325  -5.660  -1.007  0.00  0.00    -0.173 NA
ATOM      7  C   UNL     1       0.389  -7.416   2.098  0.00  0.00    +0.266 C 
ATOM      8  O   UNL     1       0.506  -8.623   2.192  0.00  0.00    -0.268 OA
ATOM      9  N   UNL     1       0.505  -6.551   3.123  0.00  0.00    -0.281 N 
ATOM     10  C   UNL     1       0.299  -5.193   2.604  0.00  0.00    +0.142 C 
ENDROOT
BRANCH   1  15
ATOM     11  C   UNL     1      -0.850   0.950  -0.946  0.00  0.00    +0.045 C 
ATOM     12  C   UNL     1      -0.690  -0.532  -0.724  0.00  0.00    -0.029 A 
ATOM     13  C   UNL     1      -1.599  -1.413  -1.278  0.00  0.00    +0.050 A 
ATOM     14  C   UNL     1      -1.456  -2.776  -1.077  0.00  0.00    +0.126 A 
ATOM     15  C   UNL     1      -0.390  -3.258  -0.312  0.00  0.00    +0.045 A 
ATOM     16  C   UNL     1       0.521  -2.363   0.242  0.00  0.00    +0.034 A 
ATOM     17  C   UNL     1       0.371  -1.006   0.029  0.00  0.00    +0.045 A 
ATOM     18 CL   UNL     1       1.511   0.109   0.715  0.00  0.00    -0.083 Cl
BRANCH  14  19
ATOM     19  O   UNL     1      -2.350  -3.643  -1.621  0.00  0.00    -0.506 OA
ATOM     20  H   UNL     1      -2.112  -3.950  -2.506  0.00  0.00    +0.292 HD
ENDBRANCH  14  19
ENDBRANCH   1  15
BRANCH  10  21
ATOM     21  C   UNL     1      -0.891  -4.556   3.274  0.00  0.00    -0.021 A 
ATOM     22  C   UNL     1      -2.046  -5.289   3.472  0.00  0.00    +0.006 A 
ATOM     23  C   UNL     1      -3.138  -4.706   4.087  0.00  0.00    +0.001 A 
ATOM     24  C   UNL     1      -3.076  -3.390   4.504  0.00  0.00    +0.015 A 
ATOM     25  C   UNL     1      -1.920  -2.656   4.306  0.00  0.00    +0.018 A 
ATOM     26  C   UNL     1      -0.825  -3.242   3.696  0.00  0.00    +0.021 A 
ATOM     27 BR   UNL     1      -1.834  -0.855   4.876  0.00  0.00    -0.050 Br
ENDBRANCH  10  21
BRANCH   9  28
ATOM     28  C   UNL     1       0.786  -6.904   4.516  0.00  0.00    +0.145 C 
BRANCH  28  29
ATOM     29  C   UNL     1       2.277  -6.911   4.741  0.00  0.00    -0.012 A 
ATOM     30  C   UNL     1       3.012  -8.069   4.539  0.00  0.00    +0.008 A 
ATOM     31  C   UNL     1       4.380  -8.028   4.759  0.00  0.00    +0.020 A 
ATOM     32  C   UNL     1       4.962  -6.843   5.168  0.00  0.00    +0.111 A 
ATOM     33  N   UNL     1       4.231  -5.761   5.351  0.00  0.00    -0.263 NA
ATOM     34  C   UNL     1       2.928  -5.761   5.146  0.00  0.00    +0.115 A 
ENDBRANCH  28  29
ENDBRANCH   9  28
TORSDOF 5
