REMARK  Name = ZINC12489494
REMARK  11 active torsions:
REMARK  status: ('A' for Active; 'I' for Inactive)
REMARK    1  A    between atoms: C_1  and  C_2
REMARK    2  A    between atoms: C_6  and  N_9
REMARK    3  A    between atoms: C_7  and  C_8
REMARK    4  A    between atoms: N_9  and  C_10
REMARK    5  A    between atoms: C_10  and  C_12
REMARK    6  A    between atoms: C_10  and  C_18
REMARK    7  A    between atoms: N_20  and  C_21
REMARK    8  A    between atoms: C_21  and  C_22
REMARK    9  A    between atoms: C_28  and  C_30
REMARK   10  A    between atoms: C_30  and  N_31
REMARK   11  A    between atoms: C_32  and  C_34
REMARK                            x       y       z     vdW  Elec       q    Type
REMARK                         _______ _______ _______ _____ _____    ______ ____
ROOT
ATOM      1  N   UNL     1      -0.420   3.110   2.001  0.00  0.00    -0.254 N 
ATOM      2  C   UNL     1      -0.641   1.826   1.656  0.00  0.00    +0.238 C 
ATOM      3  O   UNL     1      -1.506   1.187   2.218  0.00  0.00    -0.274 OA
ENDROOT
BRANCH   1   9
ATOM      4  C   UNL     1       4.097   5.051   2.020  0.00  0.00    +0.044 C 
ATOM      5  C   UNL     1       2.776   4.803   1.339  0.00  0.00    -0.046 A 
ATOM      6  C   UNL     1       2.548   5.304   0.070  0.00  0.00    +0.004 A 
ATOM      7  C   UNL     1       1.338   5.079  -0.559  0.00  0.00    +0.002 A 
ATOM      8  C   UNL     1       0.354   4.347   0.077  0.00  0.00    +0.024 A 
ATOM      9  C   UNL     1       0.577   3.847   1.353  0.00  0.00    +0.041 A 
ATOM     10  C   UNL     1       1.794   4.075   1.982  0.00  0.00    -0.026 A 
ATOM     11  C   UNL     1       2.043   3.529   3.364  0.00  0.00    +0.046 C 
ENDBRANCH   1   9
BRANCH   1  12
ATOM     12  C   UNL     1      -1.223   3.733   3.056  0.00  0.00    +0.197 C 
BRANCH  12  13
ATOM     13  C   UNL     1      -2.651   3.863   2.590  0.00  0.00    -0.018 A 
ATOM     14  C   UNL     1      -2.926   4.408   1.349  0.00  0.00    +0.006 A 
ATOM     15  C   UNL     1      -4.235   4.522   0.920  0.00  0.00    +0.000 A 
ATOM     16  C   UNL     1      -5.269   4.101   1.735  0.00  0.00    +0.000 A 
ATOM     17  C   UNL     1      -4.994   3.561   2.978  0.00  0.00    +0.000 A 
ATOM     18  C   UNL     1      -3.685   3.442   3.405  0.00  0.00    +0.006 A 
ENDBRANCH  12  13
BRANCH  12  19
ATOM     19  C   UNL     1      -0.670   5.100   3.366  0.00  0.00    +0.239 C 
ATOM     20  O   UNL     1      -0.214   5.786   2.476  0.00  0.00    -0.273 OA
ATOM     21  N   UNL     1      -0.682   5.561   4.633  0.00  0.00    -0.311 N 
ATOM     22  H   UNL     1      -1.047   5.012   5.345  0.00  0.00    +0.149 HD
BRANCH  21  23
ATOM     23  C   UNL     1      -0.145   6.889   4.935  0.00  0.00    +0.135 C 
BRANCH  23  24
ATOM     24  C   UNL     1      -0.279   7.165   6.434  0.00  0.00    +0.135 C 
ATOM     25  C   UNL     1       0.203   8.596   6.762  0.00  0.00    +0.035 C 
ATOM     26  C   UNL     1       0.910   8.450   8.128  0.00  0.00    +0.031 C 
ATOM     27  C   UNL     1       0.772   6.948   8.463  0.00  0.00    +0.160 C 
ATOM     28  O   UNL     1       0.597   6.297   7.185  0.00  0.00    -0.375 OA
ENDBRANCH  23  24
ENDBRANCH  21  23
ENDBRANCH  12  19
ENDBRANCH   1  12
BRANCH   2  29
ATOM     29  C   UNL     1       0.185   1.184   0.571  0.00  0.00    +0.201 C 
BRANCH  29  30
ATOM     30  N   UNL     1      -0.246  -0.204   0.385  0.00  0.00    -0.302 N 
ATOM     31  C   UNL     1       0.355  -0.978  -0.539  0.00  0.00    +0.251 C 
ATOM     32  O   UNL     1       1.257  -0.525  -1.219  0.00  0.00    -0.270 OA
ATOM     33  H   UNL     1      -0.965  -0.565   0.927  0.00  0.00    +0.150 HD
BRANCH  31  34
ATOM     34  C   UNL     1      -0.076  -2.367  -0.725  0.00  0.00    +0.074 A 
ATOM     35  C   UNL     1       0.404  -3.320  -1.609  0.00  0.00    +0.021 A 
ATOM     36  C   UNL     1      -0.186  -4.559  -1.575  0.00  0.00    +0.008 A 
ATOM     37  C   UNL     1      -1.194  -4.789  -0.693  0.00  0.00    +0.046 A 
ATOM     38  S   UNL     1      -1.352  -3.272   0.133  0.00  0.00    -0.092 S 
ENDBRANCH  31  34
ENDBRANCH  29  30
ENDBRANCH   2  29
TORSDOF 9
