REMARK  Name = ZINC34863352
REMARK  11 active torsions:
REMARK  status: ('A' for Active; 'I' for Inactive)
REMARK    1  A    between atoms: C_1  and  C_2
REMARK    2  A    between atoms: C_7  and  C_9
REMARK    3  A    between atoms: C_7  and  C_10
REMARK    4  A    between atoms: N_13  and  C_17
REMARK    5  A    between atoms: C_17  and  C_18
REMARK    6  A    between atoms: N_20  and  C_21
REMARK    7  A    between atoms: C_21  and  C_22
REMARK    8  A    between atoms: C_22  and  C_24
REMARK    9  A    between atoms: C_22  and  N_32
REMARK   10  A    between atoms: C_27  and  O_30
REMARK   11  A    between atoms: O_30  and  C_31
REMARK                            x       y       z     vdW  Elec       q    Type
REMARK                         _______ _______ _______ _____ _____    ______ ____
ROOT
ATOM      1  C   UNL     1      -2.325  -3.342  -4.320  0.00  0.00    +0.231 C 
ATOM      2  O   UNL     1      -1.878  -2.259  -4.633  0.00  0.00    -0.274 OA
ATOM      3  N   UNL     1      -3.370  -3.861  -4.994  0.00  0.00    -0.315 N 
ATOM      4  H   UNL     1      -3.727  -4.728  -4.744  0.00  0.00    +0.149 HD
ENDROOT
BRANCH   1   5
ATOM      5  C   UNL     1      -1.710  -4.108  -3.177  0.00  0.00    +0.213 C 
BRANCH   5  17
ATOM      6  C   UNL     1       0.204   1.680  -0.295  0.00  0.00    +0.007 C 
ATOM      7  C   UNL     1       0.094   0.157  -0.169  0.00  0.00    -0.011 C 
ATOM      8  C   UNL     1       0.817  -0.499  -1.348  0.00  0.00    +0.038 C 
ATOM      9  C   UNL     1       0.674  -2.012  -1.260  0.00  0.00    +0.113 C 
ATOM     10  C   UNL     1       1.127  -2.571   0.074  0.00  0.00    +0.041 C 
ATOM     11  C   UNL     1       0.660  -1.804   1.299  0.00  0.00    -0.032 C 
ATOM     12  C   UNL     1       0.768  -0.294   1.124  0.00  0.00    +0.009 C 
ATOM     13  C   UNL     1      -0.775  -2.190   1.666  0.00  0.00    +0.011 C 
ATOM     14  C   UNL     1       1.563  -2.206   2.486  0.00  0.00    +0.011 C 
ATOM     15  C   UNL     1      -0.730  -2.442  -1.611  0.00  0.00    +0.247 C 
ATOM     16  O   UNL     1      -1.774  -2.061  -1.126  0.00  0.00    -0.273 OA
ATOM     17  N   UNL     1      -0.600  -3.337  -2.614  0.00  0.00    -0.215 N 
ATOM     18  C   UNL     1       0.669  -3.430  -3.026  0.00  0.00    +0.310 C 
ATOM     19  O   UNL     1       1.036  -4.159  -3.927  0.00  0.00    -0.252 OA
ATOM     20  N   UNL     1       1.492  -2.628  -2.329  0.00  0.00    -0.285 N 
ATOM     21  H   UNL     1       2.435  -2.472  -2.483  0.00  0.00    +0.151 HD
ENDBRANCH   5  17
ENDBRANCH   1   5
BRANCH   3  22
ATOM     22  C   UNL     1      -3.967  -3.117  -6.106  0.00  0.00    +0.093 C 
BRANCH  22  23
ATOM     23  C   UNL     1      -5.051  -3.970  -6.767  0.00  0.00    -0.020 C 
BRANCH  23  24
ATOM     24  N   UNL     1      -5.584  -3.263  -7.939  0.00  0.00    +0.385 N 
ATOM     25  C   UNL     1      -6.663  -4.057  -8.539  0.00  0.00    -0.078 C 
ATOM     26  C   UNL     1      -7.275  -3.288  -9.712  0.00  0.00    -0.019 C 
ATOM     27  C   UNL     1      -6.192  -3.020 -10.761  0.00  0.00    -0.004 C 
ATOM     28  C   UNL     1      -5.038  -2.256 -10.105  0.00  0.00    -0.019 C 
ATOM     29  C   UNL     1      -4.509  -3.063  -8.918  0.00  0.00    -0.078 C 
ATOM     30  H   UNL     1      -5.948  -2.366  -7.653  0.00  0.00    -0.081 HD
ENDBRANCH  23  24
BRANCH  23  31
ATOM     31  C   UNL     1      -6.165  -4.219  -5.782  0.00  0.00    -0.059 A 
ATOM     32  C   UNL     1      -7.121  -3.246  -5.561  0.00  0.00    +0.005 A 
ATOM     33  C   UNL     1      -8.142  -3.472  -4.658  0.00  0.00    +0.046 A 
ATOM     34  C   UNL     1      -8.208  -4.677  -3.974  0.00  0.00    +0.120 A 
ATOM     35  C   UNL     1      -7.247  -5.652  -4.198  0.00  0.00    +0.046 A 
ATOM     36  C   UNL     1      -6.231  -5.423  -5.106  0.00  0.00    +0.005 A 
BRANCH  34  37
ATOM     37  O   UNL     1      -9.211  -4.902  -3.085  0.00  0.00    -0.495 OA
ATOM     38  C   UNL     1      -9.216  -6.165  -2.417  0.00  0.00    +0.277 C 
ENDBRANCH  34  37
ENDBRANCH  23  31
ENDBRANCH  22  23
ENDBRANCH   3  22
TORSDOF 7
