REMARK  Name = ZINC58900068
REMARK  8 active torsions:
REMARK  status: ('A' for Active; 'I' for Inactive)
REMARK    1  A    between atoms: C_1  and  C_2
REMARK    2  A    between atoms: C_2  and  O_3
REMARK    3  A    between atoms: O_3  and  C_4
REMARK    4  A    between atoms: C_4  and  C_6
REMARK    5  A    between atoms: C_7  and  C_30
REMARK    6  A    between atoms: C_9  and  N_29
REMARK    7  A    between atoms: C_10  and  C_27
REMARK    8  A    between atoms: C_11  and  C_13
REMARK                            x       y       z     vdW  Elec       q    Type
REMARK                         _______ _______ _______ _____ _____    ______ ____
ROOT
ATOM      1  C   UNL     1      -2.771  -2.400   0.119  0.00  0.00    +0.087 C 
ATOM      2  C   UNL     1      -2.924  -3.729   0.056  0.00  0.00    +0.115 C 
ATOM      3  O   UNL     1      -4.137  -4.302   0.012  0.00  0.00    -0.445 OA
ATOM      4  C   UNL     1      -5.222  -3.607   0.401  0.00  0.00    +0.198 C 
ATOM      5  C   UNL     1      -5.203  -2.255   0.485  0.00  0.00    +0.098 C 
ATOM      6  C   UNL     1      -3.960  -1.479   0.150  0.00  0.00    +0.106 C 
ATOM      7  C   UNL     1      -1.699  -4.606   0.033  0.00  0.00    +0.087 C 
ENDROOT
BRANCH   6   8
ATOM      8  C   UNL     1      -4.128  -0.834  -1.202  0.00  0.00    -0.019 A 
ATOM      9  C   UNL     1      -3.952   0.540  -1.349  0.00  0.00    -0.013 A 
ATOM     10  C   UNL     1      -3.614   1.355  -0.247  0.00  0.00    +0.009 A 
ATOM     11  C   UNL     1      -3.449   2.690  -0.426  0.00  0.00    +0.001 A 
ATOM     12  C   UNL     1      -3.605   3.287  -1.677  0.00  0.00    +0.001 A 
ATOM     13  C   UNL     1      -3.930   2.563  -2.779  0.00  0.00    +0.008 A 
ATOM     14  C   UNL     1      -4.116   1.168  -2.665  0.00  0.00    -0.017 A 
ATOM     15  C   UNL     1      -4.450   0.394  -3.775  0.00  0.00    +0.017 A 
ATOM     16  C   UNL     1      -4.627  -0.980  -3.627  0.00  0.00    -0.017 A 
ATOM     17  C   UNL     1      -4.456  -1.609  -2.313  0.00  0.00    -0.013 A 
ATOM     18  C   UNL     1      -4.636  -3.004  -2.201  0.00  0.00    +0.009 A 
ATOM     19  C   UNL     1      -4.955  -3.729  -3.303  0.00  0.00    +0.001 A 
ATOM     20  C   UNL     1      -5.111  -3.132  -4.554  0.00  0.00    +0.001 A 
ATOM     21  C   UNL     1      -4.965  -1.794  -4.729  0.00  0.00    +0.008 A 
ENDBRANCH   6   8
BRANCH   4  22
ATOM     22  N   UNL     1      -6.373  -4.284   0.720  0.00  0.00    -0.328 N 
ATOM     23  H   UNL     1      -6.399  -5.252   0.663  0.00  0.00    +0.145 HD
ATOM     24  H   UNL     1      -7.161  -3.793   1.002  0.00  0.00    +0.145 HD
ENDBRANCH   4  22
BRANCH   1  25
ATOM     25  C   UNL     1      -1.466  -1.851   0.164  0.00  0.00    +0.339 C 
ATOM     26  O   UNL     1      -1.024  -1.417   1.211  0.00  0.00    -0.245 OA
BRANCH  25  27
ATOM     27  O   UNL     1      -0.712  -1.811  -0.954  0.00  0.00    -0.462 OA
BRANCH  27  29
ATOM     28  C   UNL     1       1.293  -1.285  -2.197  0.00  0.00    +0.048 C 
ATOM     29  C   UNL     1       0.595  -1.244  -0.836  0.00  0.00    +0.229 C 
ENDBRANCH  27  29
ENDBRANCH  25  27
ENDBRANCH   1  25
BRANCH   5  30
ATOM     30  C   UNL     1      -6.381  -1.556   0.904  0.00  0.00    +0.101 C 
ATOM     31  N   UNL     1      -7.315  -1.001   1.236  0.00  0.00    -0.191 NA
ENDBRANCH   5  30
TORSDOF 6
