REMARK  Name = ZINC41918027
REMARK  3 active torsions:
REMARK  status: ('A' for Active; 'I' for Inactive)
REMARK    1  A    between atoms: C_4  and  C_7
REMARK    2  A    between atoms: N_11  and  C_12
REMARK    3  A    between atoms: C_12  and  C_18
REMARK                            x       y       z     vdW  Elec       q    Type
REMARK                         _______ _______ _______ _____ _____    ______ ____
ROOT
ATOM      1  C   UNL     1       3.064  -0.201   0.612  0.00  0.00    +0.119 A 
ATOM      2  N   UNL     1       3.900   0.555  -0.064  0.00  0.00    -0.346 N 
ATOM      3  C   UNL     1       5.030  -0.125  -0.286  0.00  0.00    +0.102 A 
ATOM      4  C   UNL     1       4.905  -1.349   0.266  0.00  0.00    +0.106 A 
ATOM      5  N   UNL     1       3.665  -1.404   0.842  0.00  0.00    -0.315 N 
ATOM      6  H   UNL     1       3.725   1.464  -0.356  0.00  0.00    +0.167 HD
ENDROOT
BRANCH   1  10
ATOM      7  C   UNL     1      -0.833   0.917   1.879  0.00  0.00    +0.000 A 
ATOM      8  C   UNL     1       0.230   1.780   2.078  0.00  0.00    +0.001 A 
ATOM      9  C   UNL     1       1.498   1.423   1.669  0.00  0.00    +0.011 A 
ATOM     10  C   UNL     1       1.707   0.188   1.054  0.00  0.00    +0.016 A 
ATOM     11  C   UNL     1       0.631  -0.678   0.857  0.00  0.00    +0.011 A 
ATOM     12  C   UNL     1      -0.632  -0.309   1.270  0.00  0.00    +0.001 A 
ENDBRANCH   1  10
BRANCH   5  13
ATOM     13  C   UNL     1       3.090  -2.541   1.566  0.00  0.00    +0.147 C 
ATOM     14  C   UNL     1       2.593  -2.074   2.936  0.00  0.00    +0.040 C 
ATOM     15  C   UNL     1       3.765  -1.500   3.735  0.00  0.00    +0.003 C 
ATOM     16  C   UNL     1       4.833  -2.579   3.921  0.00  0.00    +0.000 C 
ATOM     17  C   UNL     1       5.330  -3.046   2.551  0.00  0.00    +0.003 C 
ATOM     18  C   UNL     1       4.158  -3.620   1.752  0.00  0.00    +0.040 C 
BRANCH  13  19
ATOM     19  C   UNL     1       1.936  -3.106   0.779  0.00  0.00    +0.381 C 
ATOM     20  O   UNL     1       1.917  -3.001  -0.435  0.00  0.00    -0.244 OA
ATOM     21  O   UNL     1       1.021  -3.668   1.357  0.00  0.00    -0.244 OA
ENDBRANCH  13  19
ENDBRANCH   5  13
TORSDOF 3
