REMARK  Name = ZINC62099537
REMARK  6 active torsions:
REMARK  status: ('A' for Active; 'I' for Inactive)
REMARK    1  A    between atoms: C_1  and  C_2
REMARK    2  A    between atoms: C_2  and  C_3
REMARK    3  A    between atoms: C_3  and  C_5
REMARK    4  A    between atoms: C_3  and  N_21
REMARK    5  A    between atoms: C_5  and  C_7
REMARK    6  A    between atoms: C_5  and  N_13
REMARK                            x       y       z     vdW  Elec       q    Type
REMARK                         _______ _______ _______ _____ _____    ______ ____
ROOT
ATOM      1  C   UNL     1       0.635  -2.236  -1.249  0.00  0.00    +0.079 C 
ENDROOT
BRANCH   1   2
ATOM      2  N   UNL     1       1.198  -2.701  -2.523  0.00  0.00    -0.295 NA
ATOM      3  C   UNL     1       2.523  -2.139  -2.744  0.00  0.00    +0.094 C 
ATOM      4  C   UNL     1       2.936  -2.289  -4.211  0.00  0.00    +0.111 C 
ATOM      5  C   UNL     1       3.526  -3.672  -4.402  0.00  0.00    +0.214 C 
ATOM      6  O   UNL     1       4.713  -3.802  -4.609  0.00  0.00    -0.276 OA
ATOM      7  N   UNL     1       2.735  -4.747  -4.342  0.00  0.00    -0.314 N 
ATOM      8  C   UNL     1       1.291  -4.590  -4.096  0.00  0.00    +0.119 C 
ATOM      9  C   UNL     1       1.090  -4.148  -2.644  0.00  0.00    +0.103 C 
ATOM     10  H   UNL     1       3.112  -5.633  -4.460  0.00  0.00    +0.149 HD
ENDBRANCH   1   2
BRANCH   1  11
ATOM     11  C   UNL     1      -0.750  -2.803  -1.075  0.00  0.00    +0.006 A 
ATOM     12  C   UNL     1      -1.342  -3.281   0.046  0.00  0.00    +0.014 A 
ATOM     13  C   UNL     1      -2.638  -3.757  -0.030  0.00  0.00    +0.023 A 
ATOM     14  C   UNL     1      -3.278  -3.731  -1.225  0.00  0.00    +0.055 A 
ATOM     15  S   UNL     1      -2.040  -3.011  -2.291  0.00  0.00    -0.085 S 
ATOM     16 BR   UNL     1      -5.030  -4.303  -1.651  0.00  0.00    -0.043 Br
ENDBRANCH   1  11
BRANCH   1  17
ATOM     17  C   UNL     1       0.565  -0.708  -1.250  0.00  0.00    -0.053 C 
BRANCH  17  18
ATOM     18  N   UNL     1      -0.117  -0.248  -0.033  0.00  0.00    +0.381 N 
ATOM     19  H   UNL     1      -1.042  -0.649   0.006  0.00  0.00    -0.090 HD
ATOM     20  H   UNL     1       0.409  -0.538   0.778  0.00  0.00    -0.090 HD
ATOM     21  H   UNL     1      -0.187   0.758  -0.046  0.00  0.00    -0.090 HD
ENDBRANCH  17  18
BRANCH  17  23
ATOM     22  C   UNL     1      -0.177   1.294  -2.548  0.00  0.00    +0.002 C 
ATOM     23  C   UNL     1      -0.212  -0.234  -2.480  0.00  0.00    -0.018 C 
ENDBRANCH  17  23
ENDBRANCH   1  17
TORSDOF 5
