REMARK  Name = ZINC39671920
REMARK  6 active torsions:
REMARK  status: ('A' for Active; 'I' for Inactive)
REMARK    1  A    between atoms: C_1  and  C_2
REMARK    2  A    between atoms: C_2  and  C_3
REMARK    3  A    between atoms: C_6  and  C_9
REMARK    4  A    between atoms: C_13  and  C_22
REMARK    5  A    between atoms: N_24  and  C_25
REMARK    6  A    between atoms: C_25  and  C_26
REMARK                            x       y       z     vdW  Elec       q    Type
REMARK                         _______ _______ _______ _____ _____    ______ ____
ROOT
ATOM      1  C   UNL     1       2.695  -1.860  -4.730  0.00  0.00    +0.247 C 
ATOM      2  O   UNL     1       2.051  -2.164  -5.715  0.00  0.00    -0.270 OA
ATOM      3  N   UNL     1       4.038  -1.976  -4.741  0.00  0.00    -0.296 N 
ATOM      4  C   UNL     1       4.975  -1.780  -3.610  0.00  0.00    +0.121 C 
ATOM      5  C   UNL     1       6.036  -2.890  -3.785  0.00  0.00    +0.100 C 
ATOM      6  C   UNL     1       5.990  -3.243  -5.281  0.00  0.00    -0.004 C 
ATOM      7  C   UNL     1       4.910  -2.333  -5.885  0.00  0.00    +0.115 C 
ATOM      8  C   UNL     1       7.341  -2.964  -5.932  0.00  0.00    -0.010 C 
ATOM      9  C   UNL     1       7.289  -3.377  -7.405  0.00  0.00    -0.082 C 
ATOM     10  N   UNL     1       6.962  -4.805  -7.503  0.00  0.00    +0.379 N 
ATOM     11  C   UNL     1       5.620  -5.050  -6.959  0.00  0.00    -0.082 C 
ATOM     12  C   UNL     1       5.603  -4.707  -5.467  0.00  0.00    -0.010 C 
ATOM     13  H   UNL     1       6.987  -5.088  -8.472  0.00  0.00    -0.086 HD
ATOM     14  H   UNL     1       7.638  -5.340  -6.981  0.00  0.00    -0.086 HD
ENDROOT
BRANCH   1  18
ATOM     15  C   UNL     1       0.713  -0.437  -1.253  0.00  0.00    -0.048 A 
ATOM     16  C   UNL     1       0.034  -1.239  -2.154  0.00  0.00    +0.004 A 
ATOM     17  C   UNL     1       0.672  -1.704  -3.285  0.00  0.00    +0.013 A 
ATOM     18  C   UNL     1       2.005  -1.365  -3.520  0.00  0.00    +0.037 A 
ATOM     19  C   UNL     1       2.684  -0.556  -2.608  0.00  0.00    +0.013 A 
ATOM     20  C   UNL     1       2.033  -0.092  -1.483  0.00  0.00    +0.004 A 
BRANCH  15  22
ATOM     21  C   UNL     1      -0.660   1.408  -0.327  0.00  0.00    +0.009 C 
ATOM     22  C   UNL     1       0.010   0.068  -0.019  0.00  0.00    +0.032 C 
ENDBRANCH  15  22
ENDBRANCH   1  18
BRANCH   5  23
ATOM     23  C   UNL     1       7.401  -2.376  -3.406  0.00  0.00    +0.219 C 
ATOM     24  O   UNL     1       7.641  -1.188  -3.470  0.00  0.00    -0.275 OA
ATOM     25  N   UNL     1       8.355  -3.235  -2.997  0.00  0.00    -0.309 N 
ATOM     26  H   UNL     1       8.163  -4.184  -2.946  0.00  0.00    +0.149 HD
BRANCH  25  27
ATOM     27  C   UNL     1       9.682  -2.735  -2.629  0.00  0.00    +0.161 C 
BRANCH  27  28
ATOM     28  C   UNL     1      10.555  -3.890  -2.211  0.00  0.00    +0.077 A 
ATOM     29  C   UNL     1      11.421  -4.552  -3.008  0.00  0.00    +0.117 A 
ATOM     30  N   UNL     1      12.012  -5.523  -2.246  0.00  0.00    -0.306 N 
ATOM     31  C   UNL     1      12.951  -6.473  -2.526  0.00  0.00    +0.092 A 
ATOM     32  C   UNL     1      13.371  -7.327  -1.569  0.00  0.00    +0.018 A 
ATOM     33  C   UNL     1      12.845  -7.248  -0.269  0.00  0.00    +0.005 A 
ATOM     34  C   UNL     1      11.908  -6.306   0.024  0.00  0.00    +0.047 A 
ATOM     35  C   UNL     1      11.480  -5.422  -0.986  0.00  0.00    +0.138 A 
ATOM     36  N   UNL     1      10.606  -4.425  -0.989  0.00  0.00    -0.231 NA
ENDBRANCH  27  28
ENDBRANCH  25  27
ENDBRANCH   5  23
TORSDOF 5
