REMARK  Name = ZINC39791694
REMARK  8 active torsions:
REMARK  status: ('A' for Active; 'I' for Inactive)
REMARK    1  A    between atoms: C_4  and  C_7
REMARK    2  A    between atoms: N_9  and  C_10
REMARK    3  A    between atoms: C_10  and  C_11
REMARK    4  A    between atoms: C_13  and  C_17
REMARK    5  A    between atoms: C_17  and  S_18
REMARK    6  A    between atoms: S_18  and  C_19
REMARK    7  A    between atoms: C_22  and  C_30
REMARK    8  A    between atoms: C_23  and  C_25
REMARK                            x       y       z     vdW  Elec       q    Type
REMARK                         _______ _______ _______ _____ _____    ______ ____
ROOT
ATOM      1  C   UNL     1       4.746  -4.230  -0.067  0.00  0.00    +0.120 C 
ATOM      2  N   UNL     1       4.631  -4.947   0.997  0.00  0.00    -0.345 N 
ATOM      3  C   UNL     1       4.392  -6.341   0.603  0.00  0.00    +0.253 C 
ATOM      4  O   UNL     1       4.385  -6.331  -0.833  0.00  0.00    -0.247 OA
ATOM      5  N   UNL     1       4.607  -4.978  -1.199  0.00  0.00    -0.250 N 
ATOM      6  H   UNL     1       4.654  -4.641  -2.107  0.00  0.00    +0.196 HD
ATOM      7  H   UNL     1       4.693  -4.620   1.908  0.00  0.00    +0.163 HD
ENDROOT
BRANCH   1   8
ATOM      8  C   UNL     1       4.997  -2.744  -0.061  0.00  0.00    +0.178 C 
BRANCH   8  11
ATOM      9  C   UNL     1       3.696  -0.685  -0.037  0.00  0.00    +0.244 C 
ATOM     10  O   UNL     1       4.738  -0.060  -0.044  0.00  0.00    -0.270 OA
ATOM     11  N   UNL     1       3.717  -2.032  -0.045  0.00  0.00    -0.304 N 
ATOM     12  H   UNL     1       2.885  -2.531  -0.039  0.00  0.00    +0.149 HD
BRANCH   9  16
ATOM     13  C   UNL     1      -0.017   1.379   0.010  0.00  0.00    +0.000 A 
ATOM     14  C   UNL     1       1.168   2.094   0.002  0.00  0.00    +0.001 A 
ATOM     15  C   UNL     1       2.377   1.429  -0.013  0.00  0.00    +0.013 A 
ATOM     16  C   UNL     1       2.403   0.034  -0.021  0.00  0.00    +0.037 A 
ATOM     17  C   UNL     1       1.204  -0.681  -0.013  0.00  0.00    +0.013 A 
ATOM     18  C   UNL     1       0.002  -0.004   0.002  0.00  0.00    +0.001 A 
ENDBRANCH   9  16
ENDBRANCH   8  11
ENDBRANCH   1   8
BRANCH   3  19
ATOM     19  C   UNL     1       3.041  -6.819   1.140  0.00  0.00    +0.133 C 
BRANCH  19  20
ATOM     20  S   UNL     1       1.719  -5.778   0.464  0.00  0.00    -0.083 S 
BRANCH  20  21
ATOM     21  C   UNL     1       0.248  -6.448   1.166  0.00  0.00    +0.167 A 
ATOM     22  N   UNL     1      -1.015  -5.987   0.939  0.00  0.00    -0.332 N 
ATOM     23  H   UNL     1      -1.262  -5.242   0.369  0.00  0.00    +0.168 HD
ATOM     24  C   UNL     1      -1.878  -6.783   1.673  0.00  0.00    +0.082 A 
ATOM     25  C   UNL     1      -1.086  -7.712   2.329  0.00  0.00    +0.105 A 
ATOM     26  N   UNL     1       0.196  -7.471   1.985  0.00  0.00    -0.221 NA
BRANCH  25  27
ATOM     27  C   UNL     1      -1.560  -8.776   3.234  0.00  0.00    +0.040 A 
ATOM     28  C   UNL     1      -1.064 -10.042   3.414  0.00  0.00    +0.018 A 
ATOM     29  C   UNL     1      -1.679 -10.869   4.328  0.00  0.00    +0.008 A 
ATOM     30  C   UNL     1      -2.752 -10.408   5.021  0.00  0.00    +0.046 A 
ATOM     31  S   UNL     1      -2.922  -8.747   4.388  0.00  0.00    -0.095 S 
ENDBRANCH  25  27
BRANCH  24  32
ATOM     32  C   UNL     1      -3.341  -6.665   1.743  0.00  0.00    +0.038 A 
ATOM     33  C   UNL     1      -4.251  -6.483   0.717  0.00  0.00    +0.017 A 
ATOM     34  C   UNL     1      -5.589  -6.402   1.037  0.00  0.00    +0.008 A 
ATOM     35  C   UNL     1      -5.968  -6.503   2.336  0.00  0.00    +0.046 A 
ATOM     36  S   UNL     1      -4.408  -6.728   3.173  0.00  0.00    -0.095 S 
ENDBRANCH  24  32
ENDBRANCH  20  21
ENDBRANCH  19  20
ENDBRANCH   3  19
TORSDOF 8
