REMARK  Name = ZINC03263972
REMARK  6 active torsions:
REMARK  status: ('A' for Active; 'I' for Inactive)
REMARK    1  A    between atoms: C_3  and  O_19
REMARK    2  A    between atoms: C_6  and  N_7
REMARK    3  A    between atoms: N_7  and  C_8
REMARK    4  A    between atoms: C_8  and  N_10
REMARK    5  A    between atoms: N_10  and  N_11
REMARK    6  A    between atoms: O_19  and  C_20
REMARK                            x       y       z     vdW  Elec       q    Type
REMARK                         _______ _______ _______ _____ _____    ______ ____
ROOT
ATOM      1  C   UNL     1       2.592  -4.045   0.345  0.00  0.00    +0.151 C 
ATOM      2  S   UNL     1       4.024  -4.866   0.796  0.00  0.00    -0.017 S 
ENDROOT
BRANCH   1   3
ATOM      3  N   UNL     1       1.505  -4.745  -0.036  0.00  0.00    -0.296 N 
ATOM      4  H   UNL     1       0.675  -4.284  -0.232  0.00  0.00    +0.154 HD
BRANCH   3  10
ATOM      5  C   UNL     1       1.036  -6.774  -1.261  0.00  0.00    +0.027 A 
ATOM      6  C   UNL     1       1.110  -8.149  -1.375  0.00  0.00    +0.047 A 
ATOM      7  C   UNL     1       1.713  -8.896  -0.374  0.00  0.00    +0.127 A 
ATOM      8  C   UNL     1       2.247  -8.264   0.739  0.00  0.00    +0.047 A 
ATOM      9  C   UNL     1       2.179  -6.889   0.852  0.00  0.00    +0.027 A 
ATOM     10  C   UNL     1       1.575  -6.140  -0.150  0.00  0.00    +0.033 A 
BRANCH   7  11
ATOM     11  O   UNL     1       1.782 -10.250  -0.484  0.00  0.00    -0.434 OA
BRANCH  11  12
ATOM     12  C   UNL     1       1.211 -10.835  -1.657  0.00  0.00    +0.541 C 
ATOM     13  F   UNL     1      -0.150 -10.521  -1.720  0.00  0.00    -0.166 F 
ATOM     14  F   UNL     1       1.859 -10.332  -2.791  0.00  0.00    -0.166 F 
ENDBRANCH  11  12
ENDBRANCH   7  11
ENDBRANCH   3  10
ENDBRANCH   1   3
BRANCH   1  15
ATOM     15  N   UNL     1       2.550  -2.698   0.371  0.00  0.00    -0.247 N 
ATOM     16  H   UNL     1       3.332  -2.194   0.645  0.00  0.00    +0.172 HD
BRANCH  15  17
ATOM     17  N   UNL     1       1.378  -2.026   0.001  0.00  0.00    -0.248 N 
ATOM     18  C   UNL     1       1.335  -0.636   0.028  0.00  0.00    +0.157 A 
ATOM     19  C   UNL     1       0.169   0.036  -0.339  0.00  0.00    +0.050 A 
ATOM     20  C   UNL     1       0.177   1.421  -0.295  0.00  0.00    +0.045 A 
ATOM     21  C   UNL     1       1.346   2.054   0.112  0.00  0.00    +0.152 A 
ATOM     22  N   UNL     1       2.403   1.338   0.442  0.00  0.00    -0.136 NA
ATOM     23  N   UNL     1       2.401   0.055   0.403  0.00  0.00    -0.132 NA
ATOM     24 CL   UNL     1       1.413   3.787   0.185  0.00  0.00    -0.060 Cl
ATOM     25  H   UNL     1       0.596  -2.530  -0.273  0.00  0.00    +0.172 HD
ENDBRANCH  15  17
ENDBRANCH   1  15
TORSDOF 6
