REMARK  Name = ZINC45599231
REMARK  7 active torsions:
REMARK  status: ('A' for Active; 'I' for Inactive)
REMARK    1  A    between atoms: C_1  and  N_2
REMARK    2  A    between atoms: N_2  and  C_3
REMARK    3  A    between atoms: C_6  and  C_11
REMARK    4  A    between atoms: C_11  and  S_12
REMARK    5  A    between atoms: S_12  and  C_13
REMARK    6  A    between atoms: C_17  and  C_20
REMARK    7  A    between atoms: N_27  and  C_28
REMARK                            x       y       z     vdW  Elec       q    Type
REMARK                         _______ _______ _______ _____ _____    ______ ____
ROOT
ATOM      1  C   UNL     1      -1.578  -6.749  -1.675  0.00  0.00    +0.178 A 
ATOM      2  N   UNL     1      -0.374  -7.284  -1.662  0.00  0.00    -0.215 NA
ATOM      3  C   UNL     1      -0.125  -8.418  -2.307  0.00  0.00    +0.117 A 
ATOM      4  C   UNL     1      -1.121  -9.100  -3.029  0.00  0.00    +0.081 A 
ATOM      5  C   UNL     1      -0.678 -10.331  -3.679  0.00  0.00    +0.010 A 
ATOM      6  C   UNL     1       0.616 -10.710  -3.542  0.00  0.00    +0.057 A 
ATOM      7  S   UNL     1       1.319  -9.427  -2.525  0.00  0.00    -0.076 S 
ATOM      8  C   UNL     1      -2.416  -8.498  -3.026  0.00  0.00    +0.268 A 
ATOM      9  O   UNL     1      -3.340  -9.020  -3.625  0.00  0.00    -0.267 OA
ATOM     10  N   UNL     1      -2.605  -7.351  -2.348  0.00  0.00    -0.255 N 
ENDROOT
BRANCH  10  11
ATOM     11  C   UNL     1      -3.875  -6.760  -2.337  0.00  0.00    +0.052 A 
ATOM     12  C   UNL     1      -4.787  -7.090  -1.343  0.00  0.00    +0.026 A 
ATOM     13  C   UNL     1      -6.038  -6.505  -1.335  0.00  0.00    +0.002 A 
ATOM     14  C   UNL     1      -6.383  -5.591  -2.314  0.00  0.00    +0.000 A 
ATOM     15  C   UNL     1      -5.476  -5.261  -3.305  0.00  0.00    +0.002 A 
ATOM     16  C   UNL     1      -4.222  -5.838  -3.316  0.00  0.00    +0.026 A 
ENDBRANCH  10  11
BRANCH   5  17
ATOM     17  C   UNL     1      -1.623 -11.146  -4.470  0.00  0.00    +0.021 A 
ATOM     18  C   UNL     1      -1.478 -11.650  -5.735  0.00  0.00    +0.016 A 
ATOM     19  C   UNL     1      -2.508 -12.393  -6.274  0.00  0.00    +0.008 A 
ATOM     20  C   UNL     1      -3.628 -12.601  -5.538  0.00  0.00    +0.046 A 
ATOM     21  S   UNL     1      -3.247 -11.738  -4.022  0.00  0.00    -0.097 S 
ENDBRANCH   5  17
BRANCH   1  22
ATOM     22  S   UNL     1      -1.871  -5.244  -0.806  0.00  0.00    -0.079 S 
BRANCH  22  23
ATOM     23  C   UNL     1      -0.258  -4.833  -0.086  0.00  0.00    +0.153 C 
BRANCH  23  29
ATOM     24  C   UNL     1      -1.232  -1.238   4.769  0.00  0.00    +0.132 C 
ATOM     25  N   UNL     1      -1.118  -2.485   4.009  0.00  0.00    -0.306 N 
ATOM     26  C   UNL     1      -1.355  -3.770   4.670  0.00  0.00    +0.132 C 
ATOM     27  C   UNL     1      -0.786  -2.449   2.670  0.00  0.00    +0.222 A 
ATOM     28  N   UNL     1      -0.687  -3.582   1.977  0.00  0.00    -0.198 NA
ATOM     29  C   UNL     1      -0.370  -3.548   0.695  0.00  0.00    +0.146 A 
ATOM     30  N   UNL     1      -0.149  -2.391   0.095  0.00  0.00    -0.199 NA
ATOM     31  C   UNL     1      -0.246  -1.255   0.781  0.00  0.00    +0.217 A 
ATOM     32  N   UNL     1      -0.571  -1.284   2.069  0.00  0.00    -0.181 NA
ATOM     33  N   UNL     1      -0.016  -0.048   0.153  0.00  0.00    -0.327 N 
ATOM     34  H   UNL     1       0.218  -0.027  -0.788  0.00  0.00    +0.145 HD
ATOM     35  H   UNL     1      -0.086   0.780   0.654  0.00  0.00    +0.145 HD
ENDBRANCH  23  29
ENDBRANCH  22  23
ENDBRANCH   1  22
TORSDOF 5
