REMARK  Name = ZINC16741680
REMARK  5 active torsions:
REMARK  status: ('A' for Active; 'I' for Inactive)
REMARK    1  A    between atoms: C_1  and  C_2
REMARK    2  A    between atoms: C_10  and  C_11
REMARK    3  A    between atoms: C_16  and  C_19
REMARK    4  A    between atoms: C_22  and  S_25
REMARK    5  A    between atoms: S_25  and  N_28
REMARK                            x       y       z     vdW  Elec       q    Type
REMARK                         _______ _______ _______ _____ _____    ______ ____
ROOT
ATOM      1  C   UNL     1       2.119  -4.158  -0.041  0.00  0.00    +0.285 C 
ATOM      2  O   UNL     1       0.995  -4.623  -0.033  0.00  0.00    -0.266 OA
ATOM      3  N   UNL     1       2.296  -2.822  -0.035  0.00  0.00    -0.258 N 
ATOM      4  C   UNL     1       1.195  -1.976  -0.020  0.00  0.00    +0.165 A 
ATOM      5  N   UNL     1       1.155  -0.657  -0.018  0.00  0.00    -0.225 NA
ATOM      6  C   UNL     1       0.002  -0.004   0.002  0.00  0.00    +0.080 A 
ATOM      7  C   UNL     1      -1.169  -0.710   0.009  0.00  0.00    +0.076 A 
ATOM      8  S   UNL     1      -0.545  -2.386  -0.005  0.00  0.00    -0.060 S 
ATOM      9  H   UNL     1       3.192  -2.451  -0.041  0.00  0.00    +0.157 HD
ENDROOT
BRANCH   1  19
ATOM     10  C   UNL     1       1.988  -7.265  -0.058  0.00  0.00    +0.048 C 
ATOM     11  C   UNL     1       3.228  -6.410  -0.064  0.00  0.00    +0.008 A 
ATOM     12  C   UNL     1       4.616  -6.872  -0.079  0.00  0.00    +0.024 A 
ATOM     13  C   UNL     1       5.222  -8.131  -0.092  0.00  0.00    +0.012 A 
ATOM     14  C   UNL     1       6.585  -8.226  -0.105  0.00  0.00    +0.001 A 
ATOM     15  C   UNL     1       7.370  -7.080  -0.106  0.00  0.00    +0.004 A 
ATOM     16  C   UNL     1       6.791  -5.830  -0.093  0.00  0.00    +0.047 A 
ATOM     17  C   UNL     1       5.406  -5.708  -0.080  0.00  0.00    +0.136 A 
ATOM     18  O   UNL     1       4.573  -4.650  -0.072  0.00  0.00    -0.450 OA
ATOM     19  C   UNL     1       3.285  -5.052  -0.057  0.00  0.00    +0.194 A 
ENDBRANCH   1  19
BRANCH   6  20
ATOM     20  C   UNL     1      -0.018   1.479   0.010  0.00  0.00    +0.001 A 
ATOM     21  C   UNL     1      -1.233   2.162   0.020  0.00  0.00    +0.012 A 
ATOM     22  C   UNL     1      -1.246   3.542   0.033  0.00  0.00    +0.029 A 
ATOM     23  C   UNL     1      -0.056   4.247   0.025  0.00  0.00    +0.106 A 
ATOM     24  C   UNL     1       1.153   3.575   0.010  0.00  0.00    +0.029 A 
ATOM     25  C   UNL     1       1.178   2.195   0.003  0.00  0.00    +0.012 A 
BRANCH  23  26
ATOM     26  S   UNL     1      -0.080   6.009   0.034  0.00  0.00    +0.061 S 
ATOM     27  O   UNL     1      -1.325   6.396   0.598  0.00  0.00    -0.153 OA
ATOM     28  O   UNL     1       1.165   6.429   0.575  0.00  0.00    -0.153 OA
BRANCH  26  29
ATOM     29  N   UNL     1      -0.101   6.506  -1.546  0.00  0.00    -0.177 NA
ATOM     30  C   UNL     1       1.082   6.786  -2.373  0.00  0.00    +0.109 C 
ATOM     31  C   UNL     1       0.576   7.240  -3.758  0.00  0.00    +0.018 C 
ATOM     32  C   UNL     1      -0.860   7.742  -3.454  0.00  0.00    +0.018 C 
ATOM     33  C   UNL     1      -1.310   6.748  -2.354  0.00  0.00    +0.109 C 
ENDBRANCH  26  29
ENDBRANCH  23  26
ENDBRANCH   6  20
TORSDOF 4
