REMARK  Name = ZINC10255695
REMARK  3 active torsions:
REMARK  status: ('A' for Active; 'I' for Inactive)
REMARK    1  A    between atoms: C_8  and  C_23
REMARK    2  A    between atoms: C_11  and  C_13
REMARK    3  A    between atoms: C_17  and  N_19
REMARK                            x       y       z     vdW  Elec       q    Type
REMARK                         _______ _______ _______ _____ _____    ______ ____
ROOT
ATOM      1  C   UNL     1       5.076   0.772   0.401  0.00  0.00    +0.000 A 
ATOM      2  C   UNL     1       4.065   1.713   0.328  0.00  0.00    +0.002 A 
ATOM      3  C   UNL     1       2.751   1.312   0.224  0.00  0.00    +0.024 A 
ATOM      4  C   UNL     1       2.430  -0.047   0.184  0.00  0.00    +0.041 A 
ATOM      5  C   UNL     1       3.450  -0.981   0.264  0.00  0.00    -0.024 A 
ATOM      6  C   UNL     1       4.766  -0.575   0.368  0.00  0.00    +0.005 A 
ATOM      7  C   UNL     1       2.841  -2.364   0.207  0.00  0.00    +0.069 C 
ATOM      8  C   UNL     1       1.328  -2.116   0.091  0.00  0.00    +0.171 C 
ATOM      9  N   UNL     1       1.177  -0.659   0.089  0.00  0.00    -0.255 N 
ATOM     10  C   UNL     1       0.002  -0.004   0.002  0.00  0.00    +0.252 C 
ATOM     11  O   UNL     1      -0.016   1.211  -0.033  0.00  0.00    -0.270 OA
ENDROOT
BRANCH  10  12
ATOM     12  C   UNL     1      -1.264  -0.763  -0.050  0.00  0.00    +0.039 A 
ATOM     13  C   UNL     1      -1.260  -2.147   0.136  0.00  0.00    +0.014 A 
ATOM     14  C   UNL     1      -2.446  -2.850   0.087  0.00  0.00    +0.023 A 
ATOM     15  C   UNL     1      -3.639  -2.186  -0.147  0.00  0.00    +0.071 A 
ATOM     16  C   UNL     1      -3.649  -0.813  -0.333  0.00  0.00    +0.145 A 
ATOM     17  C   UNL     1      -2.471  -0.099  -0.281  0.00  0.00    +0.047 A 
ATOM     18 CL   UNL     1      -5.127  -3.078  -0.209  0.00  0.00    -0.081 Cl
BRANCH  16  19
ATOM     19  N   UNL     1      -4.928  -0.111  -0.582  0.00  0.00    +0.058 N 
ATOM     20  O   UNL     1      -4.939   1.096  -0.745  0.00  0.00    -0.126 OA
ATOM     21  O   UNL     1      -5.970  -0.741  -0.624  0.00  0.00    -0.126 OA
ENDBRANCH  16  19
ENDBRANCH  10  12
BRANCH   8  22
ATOM     22  C   UNL     1       0.798  -2.699  -1.194  0.00  0.00    +0.232 C 
ATOM     23  O   UNL     1       0.332  -1.969  -2.043  0.00  0.00    -0.274 OA
ATOM     24  N   UNL     1       0.841  -4.030  -1.399  0.00  0.00    -0.328 N 
ATOM     25  H   UNL     1       1.214  -4.613  -0.719  0.00  0.00    +0.145 HD
ATOM     26  H   UNL     1       0.500  -4.405  -2.225  0.00  0.00    +0.145 HD
ENDBRANCH   8  22
TORSDOF 3
