REMARK  Name = ZINC38108533
REMARK  4 active torsions:
REMARK  status: ('A' for Active; 'I' for Inactive)
REMARK    1  A    between atoms: C_2  and  S_7
REMARK    2  A    between atoms: S_7  and  N_10
REMARK    3  A    between atoms: N_10  and  C_11
REMARK    4  A    between atoms: C_17  and  C_19
REMARK                            x       y       z     vdW  Elec       q    Type
REMARK                         _______ _______ _______ _____ _____    ______ ____
ROOT
ATOM      1  N   UNL     1       1.665   4.141   1.590  0.00  0.00    -0.186 NA
ATOM      2  H   UNL     1       1.024   4.769   1.957  0.00  0.00    +0.148 HD
ENDROOT
BRANCH   1   3
ATOM      3  C   UNL     1       2.737   3.610   2.435  0.00  0.00    +0.088 C 
ATOM      4  C   UNL     1       3.915   4.587   2.439  0.00  0.00    +0.021 C 
ATOM      5  C   UNL     1       3.455   5.939   2.988  0.00  0.00    +0.002 C 
ATOM      6  C   UNL     1       2.937   5.760   4.416  0.00  0.00    +0.001 C 
ATOM      7  C   UNL     1       1.759   4.783   4.413  0.00  0.00    +0.014 C 
ATOM      8  C   UNL     1       2.219   3.431   3.864  0.00  0.00    +0.112 C 
BRANCH   8   9
ATOM      9  C   UNL     1       1.041   2.455   3.860  0.00  0.00    +0.394 C 
ATOM     10  F   UNL     1       1.461   1.218   3.358  0.00  0.00    -0.170 F 
ATOM     11  F   UNL     1       0.567   2.291   5.166  0.00  0.00    -0.170 F 
ATOM     12  F   UNL     1       0.017   2.962   3.052  0.00  0.00    -0.170 F 
ENDBRANCH   8   9
ENDBRANCH   1   3
BRANCH   1  13
ATOM     13  S   UNL     1       1.549   3.670   0.006  0.00  0.00    +0.066 S 
ATOM     14  O   UNL     1       2.846   3.813  -0.556  0.00  0.00    -0.152 OA
ATOM     15  O   UNL     1       0.410   4.328  -0.530  0.00  0.00    -0.152 OA
BRANCH  13  17
ATOM     16  C   UNL     1      -0.016   1.315   0.009  0.00  0.00    +0.149 A 
ATOM     17  C   UNL     1       1.185   1.946   0.001  0.00  0.00    +0.163 A 
ATOM     18  S   UNL     1       2.294   0.547  -0.017  0.00  0.00    -0.036 S 
ATOM     19  C   UNL     1       1.131  -0.670  -0.012  0.00  0.00    +0.169 A 
ATOM     20  N   UNL     1       0.002  -0.004   0.002  0.00  0.00    -0.234 NA
ATOM     21 CL   UNL     1       1.369  -2.389  -0.024  0.00  0.00    -0.054 Cl
ENDBRANCH  13  17
ENDBRANCH   1  13
TORSDOF 4
