REMARK  Name = ZINC54893956
REMARK  8 active torsions:
REMARK  status: ('A' for Active; 'I' for Inactive)
REMARK    1  A    between atoms: C_1  and  C_2
REMARK    2  A    between atoms: C_2  and  S_3
REMARK    3  A    between atoms: S_3  and  N_6
REMARK    4  A    between atoms: N_6  and  C_7
REMARK    5  A    between atoms: C_10  and  N_14
REMARK    6  A    between atoms: C_12  and  C_13
REMARK    7  A    between atoms: C_15  and  C_16
REMARK    8  A    between atoms: C_21  and  O_22
REMARK                            x       y       z     vdW  Elec       q    Type
REMARK                         _______ _______ _______ _____ _____    ______ ____
ROOT
ATOM      1  C   UNL     1      -0.418  -2.905  -1.330  0.00  0.00    +0.051 A 
ATOM      2  C   UNL     1      -1.474  -2.478  -2.127  0.00  0.00    +0.027 A 
ATOM      3  C   UNL     1      -2.687  -3.131  -2.076  0.00  0.00    +0.029 A 
ATOM      4  C   UNL     1      -2.854  -4.223  -1.221  0.00  0.00    +0.064 A 
ATOM      5  C   UNL     1      -1.791  -4.650  -0.421  0.00  0.00    +0.033 A 
ATOM      6  C   UNL     1      -0.579  -3.995  -0.482  0.00  0.00    -0.026 A 
ATOM      7  C   UNL     1       0.570  -4.459   0.375  0.00  0.00    +0.046 C 
ENDROOT
BRANCH   1   8
ATOM      8  N   UNL     1       0.808  -2.241  -1.384  0.00  0.00    -0.220 N 
ATOM      9  H   UNL     1       1.635  -2.740  -1.291  0.00  0.00    +0.173 HD
BRANCH   8  10
ATOM     10  S   UNL     1       0.853  -0.601  -1.609  0.00  0.00    +0.043 S 
ATOM     11  O   UNL     1       0.128  -0.380  -2.811  0.00  0.00    -0.155 OA
ATOM     12  O   UNL     1       2.229  -0.260  -1.520  0.00  0.00    -0.155 OA
BRANCH  10  14
ATOM     13  C   UNL     1      -0.077   1.614  -0.301  0.00  0.00    +0.030 C 
ATOM     14  C   UNL     1      -0.054   0.088  -0.197  0.00  0.00    +0.185 C 
ENDBRANCH  10  14
ENDBRANCH   8  10
ENDBRANCH   1   8
BRANCH   4  15
ATOM     15  N   UNL     1      -4.057  -4.874  -1.167  0.00  0.00    -0.255 NA
ATOM     16  C   UNL     1      -5.165  -4.190  -1.105  0.00  0.00    +0.123 C 
BRANCH  16  17
ATOM     17  C   UNL     1      -6.458  -4.889  -1.047  0.00  0.00    +0.037 A 
ATOM     18  C   UNL     1      -7.650  -4.160  -0.987  0.00  0.00    +0.033 A 
ATOM     19  C   UNL     1      -8.858  -4.822  -0.933  0.00  0.00    +0.043 A 
ATOM     20  C   UNL     1      -8.898  -6.207  -0.937  0.00  0.00    +0.043 A 
ATOM     21  C   UNL     1      -7.727  -6.940  -0.996  0.00  0.00    +0.084 A 
ATOM     22  C   UNL     1      -6.503  -6.291  -1.057  0.00  0.00    +0.144 A 
ATOM     23 CL   UNL     1      -7.789  -8.675  -1.000  0.00  0.00    -0.080 Cl
ATOM     24 CL   UNL     1     -10.337  -3.915  -0.858  0.00  0.00    -0.083 Cl
BRANCH  22  25
ATOM     25  O   UNL     1      -5.352  -7.010  -1.121  0.00  0.00    -0.505 OA
ATOM     26  H   UNL     1      -4.975  -7.226  -0.257  0.00  0.00    +0.292 HD
ENDBRANCH  22  25
ENDBRANCH  16  17
ENDBRANCH   4  15
TORSDOF 6
