REMARK  Name = ZINC63301867
REMARK  9 active torsions:
REMARK  status: ('A' for Active; 'I' for Inactive)
REMARK    1  A    between atoms: C_1  and  C_2
REMARK    2  A    between atoms: C_2  and  C_3
REMARK    3  A    between atoms: C_2  and  N_4
REMARK    4  A    between atoms: C_8  and  C_10
REMARK    5  A    between atoms: C_10  and  N_11
REMARK    6  A    between atoms: C_14  and  C_17
REMARK    7  A    between atoms: N_19  and  C_20
REMARK    8  A    between atoms: C_20  and  C_21
REMARK    9  A    between atoms: C_21  and  C_22
REMARK                            x       y       z     vdW  Elec       q    Type
REMARK                         _______ _______ _______ _____ _____    ______ ____
ROOT
ATOM      1  N   UNL     1      -4.623  -5.289  -1.554  0.00  0.00    +0.385 N 
ATOM      2  C   UNL     1      -3.853  -6.212  -0.711  0.00  0.00    -0.077 C 
ATOM      3  C   UNL     1      -3.814  -7.595  -1.365  0.00  0.00    -0.006 C 
ATOM      4  C   UNL     1      -5.244  -8.119  -1.524  0.00  0.00    +0.071 C 
ATOM      5  C   UNL     1      -6.058  -7.112  -2.343  0.00  0.00    -0.006 C 
ATOM      6  C   UNL     1      -6.014  -5.747  -1.653  0.00  0.00    -0.077 C 
ATOM      7  H   UNL     1      -4.214  -5.259  -2.476  0.00  0.00    -0.081 HD
ENDROOT
BRANCH   4   8
ATOM      8  C   UNL     1      -5.218  -9.445  -2.238  0.00  0.00    +0.216 C 
ATOM      9  O   UNL     1      -4.160  -9.926  -2.586  0.00  0.00    -0.276 OA
ATOM     10  N   UNL     1      -6.370 -10.098  -2.490  0.00  0.00    -0.315 N 
ATOM     11  H   UNL     1      -7.216  -9.714  -2.212  0.00  0.00    +0.149 HD
BRANCH  10  12
ATOM     12  C   UNL     1      -6.344 -11.388  -3.185  0.00  0.00    +0.109 C 
BRANCH  12  13
ATOM     13  C   UNL     1      -7.774 -11.910  -3.343  0.00  0.00    +0.061 C 
BRANCH  13  14
ATOM     14  C   UNL     1      -7.747 -13.237  -4.057  0.00  0.00    -0.009 A 
ATOM     15  C   UNL     1      -7.659 -14.485  -3.536  0.00  0.00    +0.011 A 
ATOM     16  C   UNL     1      -7.653 -15.570  -4.393  0.00  0.00    +0.008 A 
ATOM     17  C   UNL     1      -7.735 -15.354  -5.728  0.00  0.00    +0.045 A 
ATOM     18  S   UNL     1      -7.832 -13.573  -5.809  0.00  0.00    -0.102 S 
ENDBRANCH  13  14
ENDBRANCH  12  13
ENDBRANCH  10  12
ENDBRANCH   4   8
BRANCH   1  19
ATOM     19  C   UNL     1      -4.592  -3.945  -0.962  0.00  0.00    +0.019 C 
BRANCH  19  24
ATOM     20  N   UNL     1      -1.372  -0.511   0.012  0.00  0.00    -0.297 N 
ATOM     21  C   UNL     1      -1.643  -1.734  -0.485  0.00  0.00    +0.306 C 
ATOM     22  O   UNL     1      -0.747  -2.416  -0.942  0.00  0.00    -0.252 OA
ATOM     23  N   UNL     1      -2.908  -2.201  -0.475  0.00  0.00    -0.242 N 
ATOM     24  C   UNL     1      -3.178  -3.424  -0.973  0.00  0.00    +0.204 C 
ATOM     25  O   UNL     1      -2.285  -4.104  -1.429  0.00  0.00    -0.277 OA
ATOM     26  H   UNL     1      -2.087   0.033   0.377  0.00  0.00    +0.151 HD
ATOM     27  H   UNL     1      -3.623  -1.656  -0.111  0.00  0.00    +0.159 HD
BRANCH  20  29
ATOM     28  C   UNL     1      -0.019   1.526   0.010  0.00  0.00    +0.027 C 
ATOM     29  C   UNL     1       0.002  -0.004   0.002  0.00  0.00    +0.068 C 
ATOM     30  C   UNL     1       0.742  -0.511   1.242  0.00  0.00    +0.027 C 
ENDBRANCH  20  29
ENDBRANCH  19  24
ENDBRANCH   1  19
TORSDOF 7
