REMARK  Name = ZINC20985072
REMARK  10 active torsions:
REMARK  status: ('A' for Active; 'I' for Inactive)
REMARK    1  A    between atoms: C_1  and  O_2
REMARK    2  A    between atoms: O_2  and  C_3
REMARK    3  A    between atoms: C_6  and  C_9
REMARK    4  A    between atoms: C_9  and  C_10
REMARK    5  A    between atoms: C_10  and  N_11
REMARK    6  A    between atoms: C_14  and  C_17
REMARK    7  A    between atoms: C_17  and  N_18
REMARK    8  A    between atoms: N_18  and  S_19
REMARK    9  A    between atoms: S_19  and  C_22
REMARK   10  A    between atoms: C_25  and  C_27
REMARK                            x       y       z     vdW  Elec       q    Type
REMARK                         _______ _______ _______ _____ _____    ______ ____
ROOT
ATOM      1  C   UNL     1       0.375  -8.335  -1.778  0.00  0.00    +0.109 C 
ENDROOT
BRANCH   1   5
ATOM      2  N   UNL     1       1.234  -4.159  -1.474  0.00  0.00    +0.380 N 
ATOM      3  C   UNL     1       0.267  -4.701  -0.511  0.00  0.00    -0.079 C 
ATOM      4  C   UNL     1       0.414  -6.223  -0.440  0.00  0.00    -0.014 C 
ATOM      5  C   UNL     1       0.170  -6.819  -1.829  0.00  0.00    +0.001 C 
ATOM      6  C   UNL     1       1.158  -6.202  -2.822  0.00  0.00    -0.014 C 
ATOM      7  C   UNL     1       0.989  -4.681  -2.824  0.00  0.00    -0.079 C 
ATOM      8  H   UNL     1       2.237  -4.489  -1.163  0.00  0.00    -0.082 HD
BRANCH   2   9
ATOM      9  C   UNL     1       1.217  -2.690  -1.466  0.00  0.00    -0.074 C 
BRANCH   9  10
ATOM     10  C   UNL     1       1.226  -2.187  -0.021  0.00  0.00    +0.016 C 
BRANCH  10  14
ATOM     11  C   UNL     1       1.176   2.086   0.002  0.00  0.00    +0.120 A 
ATOM     12  C   UNL     1      -0.017   1.377   0.010  0.00  0.00    +0.046 A 
ATOM     13  C   UNL     1       0.002  -0.004   0.002  0.00  0.00    +0.007 A 
ATOM     14  C   UNL     1       1.208  -0.680  -0.013  0.00  0.00    -0.049 A 
ATOM     15  C   UNL     1       2.398   0.024  -0.021  0.00  0.00    +0.007 A 
ATOM     16  C   UNL     1       2.385   1.405  -0.013  0.00  0.00    +0.046 A 
BRANCH  11  18
ATOM     17  C   UNL     1       2.426   4.108   0.001  0.00  0.00    +0.277 C 
ATOM     18  O   UNL     1       1.160   3.445   0.009  0.00  0.00    -0.495 OA
ENDBRANCH  11  18
ENDBRANCH  10  14
ENDBRANCH   9  10
ENDBRANCH   2   9
ENDBRANCH   1   5
BRANCH   1  19
ATOM     19  N   UNL     1      -0.647  -8.937  -0.920  0.00  0.00    -0.189 NA
ATOM     20  H   UNL     1      -1.125  -8.339  -0.130  0.00  0.00    +0.148 HD
BRANCH  19  21
ATOM     21  S   UNL     1      -0.909 -10.572  -0.967  0.00  0.00    +0.065 S 
ATOM     22  O   UNL     1      -1.928 -10.847  -0.015  0.00  0.00    -0.153 OA
ATOM     23  O   UNL     1      -1.032 -10.924  -2.338  0.00  0.00    -0.153 OA
BRANCH  21  24
ATOM     24  C   UNL     1       0.556 -11.351  -0.376  0.00  0.00    +0.143 A 
ATOM     25  C   UNL     1       0.888 -11.692   0.896  0.00  0.00    +0.037 A 
ATOM     26  C   UNL     1       2.099 -12.303   1.133  0.00  0.00    +0.020 A 
ATOM     27  C   UNL     1       2.935 -12.540   0.074  0.00  0.00    +0.041 A 
ATOM     28  S   UNL     1       1.989 -11.890  -1.294  0.00  0.00    -0.067 S 
BRANCH  27  29
ATOM     29  C   UNL     1       4.272 -13.169   0.066  0.00  0.00    +0.098 A 
ATOM     30  C   UNL     1       4.975 -13.318  -1.155  0.00  0.00    +0.036 A 
ATOM     31  C   UNL     1       6.206 -13.902  -1.124  0.00  0.00    +0.073 A 
ATOM     32  C   UNL     1       6.706 -14.324   0.128  0.00  0.00    +0.265 A 
ATOM     33  O   UNL     1       7.804 -14.852   0.205  0.00  0.00    -0.266 OA
ATOM     34  N   UNL     1       5.965 -14.139   1.236  0.00  0.00    -0.243 N 
ATOM     35  H   UNL     1       6.345 -14.469   2.214  0.00  0.00    +0.192 HD
ATOM     36  N   UNL     1       4.809 -13.582   1.192  0.00  0.00    -0.170 NA
ENDBRANCH  27  29
ENDBRANCH  21  24
ENDBRANCH  19  21
ENDBRANCH   1  19
TORSDOF 9
