REMARK  Name = ZINC03600990
REMARK  5 active torsions:
REMARK  status: ('A' for Active; 'I' for Inactive)
REMARK    1  A    between atoms: C_1  and  C_2
REMARK    2  A    between atoms: C_2  and  C_4
REMARK    3  A    between atoms: C_9  and  N_10
REMARK    4  A    between atoms: C_11  and  C_13
REMARK    5  A    between atoms: C_13  and  N_14
REMARK                            x       y       z     vdW  Elec       q    Type
REMARK                         _______ _______ _______ _____ _____    ______ ____
ROOT
ATOM      1  N   UNL     1       0.350   1.984   3.224  0.00  0.00    -0.215 N 
ATOM      2  C   UNL     1      -0.119   0.953   2.492  0.00  0.00    +0.251 C 
ATOM      3  O   UNL     1      -0.066  -0.227   2.768  0.00  0.00    -0.272 OA
ATOM      4  C   UNL     1      -0.725   1.576   1.254  0.00  0.00    +0.138 C 
ATOM      5  C   UNL     1       0.004   1.091   0.008  0.00  0.00    +0.040 C 
ATOM      6  C   UNL     1      -0.751   1.595  -1.228  0.00  0.00    +0.008 C 
ATOM      7  C   UNL     1      -2.086   0.858  -1.313  0.00  0.00    +0.035 C 
ATOM      8  C   UNL     1      -2.825   0.943  -0.004  0.00  0.00    -0.042 A 
ATOM      9  C   UNL     1      -2.199   1.270   1.179  0.00  0.00    -0.012 A 
ATOM     10  C   UNL     1      -2.937   1.327   2.354  0.00  0.00    +0.006 A 
ATOM     11  C   UNL     1      -4.290   1.062   2.345  0.00  0.00    +0.000 A 
ATOM     12  C   UNL     1      -4.919   0.735   1.159  0.00  0.00    +0.000 A 
ATOM     13  C   UNL     1      -4.188   0.676  -0.010  0.00  0.00    +0.004 A 
ATOM     14  N   UNL     1      -0.512   3.018   1.444  0.00  0.00    -0.281 N 
ATOM     15  C   UNL     1       0.124   3.158   2.622  0.00  0.00    +0.310 C 
ATOM     16  O   UNL     1       0.456   4.231   3.087  0.00  0.00    -0.252 OA
ATOM     17  H   UNL     1      -0.777   3.728   0.839  0.00  0.00    +0.152 HD
ENDROOT
BRANCH   1  18
ATOM     18  C   UNL     1       1.024   1.837   4.517  0.00  0.00    +0.214 C 
BRANCH  18  20
ATOM     19  N   UNL     1       0.394   1.770   6.908  0.00  0.00    -0.284 N 
ATOM     20  C   UNL     1       0.002   1.886   5.623  0.00  0.00    +0.235 C 
ATOM     21  O   UNL     1      -1.173   2.028   5.359  0.00  0.00    -0.274 OA
ATOM     22  H   UNL     1       1.321   1.576   7.116  0.00  0.00    +0.155 HD
BRANCH  19  28
ATOM     23  C   UNL     1      -0.316   1.317   9.181  0.00  0.00    +0.038 A 
ATOM     24  C   UNL     1      -1.253   1.491  10.207  0.00  0.00    +0.013 A 
ATOM     25  C   UNL     1      -2.381   2.250   9.985  0.00  0.00    +0.001 A 
ATOM     26  C   UNL     1      -2.591   2.847   8.752  0.00  0.00    +0.002 A 
ATOM     27  C   UNL     1      -1.675   2.690   7.732  0.00  0.00    +0.024 A 
ATOM     28  C   UNL     1      -0.531   1.930   7.935  0.00  0.00    +0.044 A 
BRANCH  23  30
ATOM     29  C   UNL     1       1.057  -0.239  10.707  0.00  0.00    +0.091 C 
ATOM     30  C   UNL     1       0.885   0.505   9.408  0.00  0.00    +0.162 C 
ATOM     31  O   UNL     1       1.740   0.434   8.550  0.00  0.00    -0.292 OA
ENDBRANCH  23  30
ENDBRANCH  19  28
ENDBRANCH  18  20
ENDBRANCH   1  18
TORSDOF 4
