REMARK  Name = ZINC65480554
REMARK  8 active torsions:
REMARK  status: ('A' for Active; 'I' for Inactive)
REMARK    1  A    between atoms: C_1  and  C_2
REMARK    2  A    between atoms: N_5  and  C_8
REMARK    3  A    between atoms: C_8  and  C_9
REMARK    4  A    between atoms: C_8  and  C_10
REMARK    5  A    between atoms: C_10  and  N_11
REMARK    6  A    between atoms: N_14  and  C_15
REMARK    7  A    between atoms: C_15  and  C_16
REMARK    8  A    between atoms: C_15  and  C_17
REMARK                            x       y       z     vdW  Elec       q    Type
REMARK                         _______ _______ _______ _____ _____    ______ ____
ROOT
ATOM      1  N   UNL     1       1.955  -3.921   2.403  0.00  0.00    -0.301 N 
ATOM      2  C   UNL     1       2.600  -4.105   3.572  0.00  0.00    +0.300 C 
ATOM      3  O   UNL     1       3.702  -4.619   3.584  0.00  0.00    -0.253 OA
ATOM      4  N   UNL     1       2.024  -3.719   4.728  0.00  0.00    -0.293 N 
ATOM      5  H   UNL     1       1.076  -3.512   2.393  0.00  0.00    +0.150 HD
ATOM      6  H   UNL     1       1.145  -3.309   4.718  0.00  0.00    +0.151 HD
ENDROOT
BRANCH   4   7
ATOM      7  C   UNL     1       2.725  -3.918   5.998  0.00  0.00    +0.102 C 
ATOM      8  C   UNL     1       2.461  -5.335   6.510  0.00  0.00    +0.033 C 
BRANCH   7   9
ATOM      9  C   UNL     1       2.227  -2.917   7.009  0.00  0.00    -0.024 A 
ATOM     10  C   UNL     1       0.880  -2.612   7.072  0.00  0.00    +0.009 A 
ATOM     11  C   UNL     1       0.420  -1.694   7.997  0.00  0.00    +0.050 A 
ATOM     12  C   UNL     1       1.309  -1.077   8.865  0.00  0.00    +0.162 A 
ATOM     13  C   UNL     1       2.662  -1.385   8.803  0.00  0.00    +0.162 A 
ATOM     14  C   UNL     1       3.117  -2.311   7.876  0.00  0.00    +0.055 A 
ATOM     15  O   UNL     1       3.550  -0.797   9.651  0.00  0.00    -0.485 OA
ATOM     16  C   UNL     1       3.113   0.392  10.317  0.00  0.00    +0.270 C 
ATOM     17  C   UNL     1       1.702   0.144  10.867  0.00  0.00    +0.270 C 
ATOM     18  O   UNL     1       0.841  -0.172   9.768  0.00  0.00    -0.485 OA
ENDBRANCH   7   9
ENDBRANCH   4   7
BRANCH   1  19
ATOM     19  C   UNL     1       2.582  -4.341   1.147  0.00  0.00    +0.090 C 
BRANCH  19  20
ATOM     20  C   UNL     1       1.710  -3.900  -0.030  0.00  0.00    -0.054 C 
ATOM     21  C   UNL     1       2.420  -4.233  -1.344  0.00  0.00    -0.012 C 
BRANCH  20  26
ATOM     22  C   UNL     1       1.235   1.728  -0.822  0.00  0.00    +0.007 C 
ATOM     23  C   UNL     1       1.521   0.239  -1.027  0.00  0.00    -0.018 C 
ATOM     24  C   UNL     1       2.531  -0.238   0.020  0.00  0.00    -0.016 C 
ATOM     25  C   UNL     1       2.752  -1.744  -0.140  0.00  0.00    -0.078 C 
ATOM     26  N   UNL     1       1.479  -2.451   0.048  0.00  0.00    +0.382 N 
ATOM     27  C   UNL     1       0.528  -2.052  -0.997  0.00  0.00    -0.078 C 
ATOM     28  C   UNL     1       0.223  -0.558  -0.869  0.00  0.00    -0.016 C 
ATOM     29  H   UNL     1       1.099  -2.221   0.953  0.00  0.00    -0.081 HD
ENDBRANCH  20  26
ENDBRANCH  19  20
ENDBRANCH   1  19
TORSDOF 5
