REMARK  Name = ZINC41585052
REMARK  8 active torsions:
REMARK  status: ('A' for Active; 'I' for Inactive)
REMARK    1  A    between atoms: C_1  and  O_2
REMARK    2  A    between atoms: O_2  and  C_3
REMARK    3  A    between atoms: C_6  and  C_9
REMARK    4  A    between atoms: C_14  and  O_37
REMARK    5  A    between atoms: C_15  and  C_20
REMARK    6  A    between atoms: C_20  and  N_21
REMARK    7  A    between atoms: N_24  and  C_27
REMARK    8  A    between atoms: C_27  and  C_28
REMARK                            x       y       z     vdW  Elec       q    Type
REMARK                         _______ _______ _______ _____ _____    ______ ____
ROOT
ATOM      1  C   UNL     1       2.579  -2.540   4.293  0.00  0.00    +0.067 A 
ATOM      2  C   UNL     1       1.883  -3.329   5.176  0.00  0.00    +0.027 A 
ATOM      3  C   UNL     1       2.592  -3.913   6.257  0.00  0.00    +0.019 A 
ATOM      4  C   UNL     1       1.981  -4.882   7.068  0.00  0.00    +0.015 A 
ATOM      5  C   UNL     1       2.687  -5.464   8.079  0.00  0.00    +0.046 A 
ATOM      6  C   UNL     1       4.010  -5.100   8.320  0.00  0.00    +0.125 A 
ATOM      7  C   UNL     1       4.625  -4.132   7.542  0.00  0.00    +0.051 A 
ATOM      8  C   UNL     1       3.920  -3.525   6.515  0.00  0.00    +0.147 A 
ATOM      9  O   UNL     1       4.494  -2.547   5.772  0.00  0.00    -0.421 OA
ATOM     10  C   UNL     1       4.027  -2.389   4.510  0.00  0.00    +0.345 A 
ATOM     11  O   UNL     1       4.776  -2.128   3.587  0.00  0.00    -0.245 OA
ENDROOT
BRANCH   1  15
ATOM     12  C   UNL     1       0.626  -0.618   1.041  0.00  0.00    +0.120 A 
ATOM     13  C   UNL     1       1.202   0.142   2.050  0.00  0.00    +0.046 A 
ATOM     14  C   UNL     1       1.836  -0.478   3.106  0.00  0.00    +0.012 A 
ATOM     15  C   UNL     1       1.898  -1.871   3.160  0.00  0.00    -0.011 A 
ATOM     16  C   UNL     1       1.318  -2.631   2.145  0.00  0.00    +0.012 A 
ATOM     17  C   UNL     1       0.681  -2.005   1.095  0.00  0.00    +0.046 A 
BRANCH  12  19
ATOM     18  C   UNL     1      -0.017   1.425   0.010  0.00  0.00    +0.277 C 
ATOM     19  O   UNL     1       0.002  -0.004   0.002  0.00  0.00    -0.495 OA
ENDBRANCH  12  19
ENDBRANCH   1  15
BRANCH   6  20
ATOM     20  O   UNL     1       4.702  -5.698   9.323  0.00  0.00    -0.506 OA
ATOM     21  H   UNL     1       5.177  -6.496   9.053  0.00  0.00    +0.292 HD
ENDBRANCH   6  20
BRANCH   7  22
ATOM     22  C   UNL     1       6.055  -3.740   7.812  0.00  0.00    +0.126 C 
BRANCH  22  23
ATOM     23  N   UNL     1       6.954  -4.592   7.023  0.00  0.00    -0.301 NA
ATOM     24  C   UNL     1       6.793  -4.338   5.585  0.00  0.00    +0.066 C 
ATOM     25  C   UNL     1       7.701  -5.285   4.798  0.00  0.00    -0.063 C 
ATOM     26  N   UNL     1       9.098  -5.069   5.197  0.00  0.00    +0.384 N 
ATOM     27  C   UNL     1       9.248  -5.351   6.631  0.00  0.00    -0.063 C 
ATOM     28  C   UNL     1       8.352  -4.405   7.434  0.00  0.00    +0.066 C 
ATOM     29  H   UNL     1       9.356  -4.111   5.014  0.00  0.00    -0.081 HD
BRANCH  26  30
ATOM     30  C   UNL     1       9.971  -5.966   4.428  0.00  0.00    -0.043 C 
BRANCH  30  31
ATOM     31  C   UNL     1      11.412  -5.661   4.748  0.00  0.00    -0.060 A 
ATOM     32  C   UNL     1      12.099  -4.721   4.003  0.00  0.00    +0.005 A 
ATOM     33  C   UNL     1      13.421  -4.436   4.293  0.00  0.00    +0.050 A 
ATOM     34  C   UNL     1      14.060  -5.094   5.331  0.00  0.00    +0.166 A 
ATOM     35  C   UNL     1      13.367  -6.042   6.082  0.00  0.00    +0.166 A 
ATOM     36  C   UNL     1      12.041  -6.317   5.789  0.00  0.00    +0.051 A 
ATOM     37  O   UNL     1      14.207  -6.542   7.035  0.00  0.00    -0.453 OA
ATOM     38  C   UNL     1      15.534  -6.191   6.600  0.00  0.00    +0.466 C 
ATOM     39  O   UNL     1      15.333  -5.001   5.814  0.00  0.00    -0.453 OA
ENDBRANCH  30  31
ENDBRANCH  26  30
ENDBRANCH  22  23
ENDBRANCH   7  22
TORSDOF 7
