REMARK  Name = ZINC19800278
REMARK  11 active torsions:
REMARK  status: ('A' for Active; 'I' for Inactive)
REMARK    1  A    between atoms: C_1  and  C_2
REMARK    2  A    between atoms: C_2  and  N_3
REMARK    3  A    between atoms: N_3  and  C_4
REMARK    4  A    between atoms: N_3  and  C_6
REMARK    5  A    between atoms: C_4  and  C_5
REMARK    6  A    between atoms: C_9  and  C_12
REMARK    7  A    between atoms: C_12  and  N_13
REMARK    8  A    between atoms: C_15  and  N_24
REMARK    9  A    between atoms: C_18  and  C_20
REMARK   10  A    between atoms: N_22  and  C_23
REMARK   11  A    between atoms: N_24  and  C_25
REMARK                            x       y       z     vdW  Elec       q    Type
REMARK                         _______ _______ _______ _____ _____    ______ ____
ROOT
ATOM      1  N   UNL     1      -4.696  -0.309   5.378  0.00  0.00    +0.391 N 
ATOM      2  C   UNL     1      -3.722   0.754   5.686  0.00  0.00    -0.059 C 
ATOM      3  C   UNL     1      -3.930   1.151   7.163  0.00  0.00    +0.036 C 
ATOM      4  C   UNL     1      -5.385   0.693   7.446  0.00  0.00    +0.010 C 
ATOM      5  C   UNL     1      -5.476  -0.601   6.599  0.00  0.00    +0.021 C 
ATOM      6  H   UNL     1      -5.316   0.003   4.646  0.00  0.00    -0.080 HD
ENDROOT
BRANCH   5   7
ATOM      7  C   UNL     1      -6.911  -0.898   6.247  0.00  0.00    +0.199 C 
ATOM      8  O   UNL     1      -7.268  -0.873   5.088  0.00  0.00    -0.278 OA
ATOM      9  N   UNL     1      -7.797  -1.192   7.219  0.00  0.00    -0.320 N 
ATOM     10  C   UNL     1      -9.191  -1.480   6.876  0.00  0.00    +0.128 C 
ATOM     11  H   UNL     1      -7.511  -1.212   8.146  0.00  0.00    +0.148 HD
ENDBRANCH   5   7
BRANCH   3  12
ATOM     12  N   UNL     1      -3.797   2.604   7.334  0.00  0.00    -0.312 NA
ATOM     13  H   UNL     1      -3.144   2.988   6.668  0.00  0.00    +0.122 HD
BRANCH  12  14
ATOM     14  C   UNL     1      -3.404   2.938   8.710  0.00  0.00    +0.054 C 
ATOM     15  C   UNL     1      -4.651   3.015   9.593  0.00  0.00    +0.019 C 
ATOM     16  C   UNL     1      -4.237   2.964  11.065  0.00  0.00    +0.002 C 
ATOM     17  C   UNL     1      -3.175   1.881  11.260  0.00  0.00    +0.000 C 
ATOM     18  C   UNL     1      -1.843   2.534  11.636  0.00  0.00    +0.000 C 
ATOM     19  C   UNL     1      -1.211   3.156  10.388  0.00  0.00    +0.000 C 
ATOM     20  C   UNL     1      -1.937   4.458  10.044  0.00  0.00    +0.002 C 
ATOM     21  C   UNL     1      -2.687   4.290   8.721  0.00  0.00    +0.019 C 
ENDBRANCH  12  14
ENDBRANCH   3  12
BRANCH   1  22
ATOM     22  C   UNL     1      -3.986  -1.519   4.943  0.00  0.00    -0.042 C 
BRANCH  22  26
ATOM     23  C   UNL     1      -2.016  -0.759   1.227  0.00  0.00    +0.030 A 
ATOM     24  C   UNL     1      -1.356  -0.520   2.426  0.00  0.00    +0.023 A 
ATOM     25  C   UNL     1      -1.996  -0.767   3.625  0.00  0.00    +0.003 A 
ATOM     26  C   UNL     1      -3.291  -1.251   3.633  0.00  0.00    -0.064 A 
ATOM     27  C   UNL     1      -3.951  -1.490   2.441  0.00  0.00    +0.003 A 
ATOM     28  C   UNL     1      -3.319  -1.240   1.239  0.00  0.00    +0.023 A 
BRANCH  23  29
ATOM     29  N   UNL     1      -1.372  -0.511   0.012  0.00  0.00    -0.330 N 
BRANCH  29  31
ATOM     30  C   UNL     1      -0.019   1.526   0.010  0.00  0.00    +0.024 C 
ATOM     31  C   UNL     1       0.002  -0.004   0.002  0.00  0.00    +0.102 C 
ENDBRANCH  29  31
BRANCH  29  32
ATOM     32  C   UNL     1      -2.072  -0.758  -1.251  0.00  0.00    +0.102 C 
ATOM     33  C   UNL     1      -1.816  -2.197  -1.703  0.00  0.00    +0.024 C 
ENDBRANCH  29  32
ENDBRANCH  23  29
ENDBRANCH  22  26
ENDBRANCH   1  22
TORSDOF 8
