REMARK  Name = ZINC39362688
REMARK  7 active torsions:
REMARK  status: ('A' for Active; 'I' for Inactive)
REMARK    1  A    between atoms: C_1  and  C_2
REMARK    2  A    between atoms: C_2  and  C_3
REMARK    3  A    between atoms: C_2  and  S_4
REMARK    4  A    between atoms: S_4  and  C_5
REMARK    5  A    between atoms: C_9  and  C_19
REMARK    6  A    between atoms: N_11  and  C_12
REMARK    7  A    between atoms: C_19  and  C_20
REMARK                            x       y       z     vdW  Elec       q    Type
REMARK                         _______ _______ _______ _____ _____    ______ ____
ROOT
ATOM      1  C   UNL     1      -1.143  -2.423  -0.558  0.00  0.00    +0.275 C 
ATOM      2  N   UNL     1      -0.408  -2.642  -1.805  0.00  0.00    -0.156 NA
ATOM      3  N   UNL     1       0.659  -3.220  -1.611  0.00  0.00    -0.166 NA
ATOM      4  C   UNL     1       0.870  -3.513  -0.193  0.00  0.00    +0.222 C 
ATOM      5  N   UNL     1      -0.313  -2.993   0.518  0.00  0.00    -0.274 N 
ENDROOT
BRANCH   5   6
ATOM      6  C   UNL     1      -0.583  -3.030   1.890  0.00  0.00    +0.034 A 
ATOM      7  C   UNL     1       0.329  -3.609   2.763  0.00  0.00    +0.026 A 
ATOM      8  C   UNL     1       0.059  -3.644   4.117  0.00  0.00    +0.040 A 
ATOM      9  C   UNL     1      -1.119  -3.104   4.604  0.00  0.00    +0.124 A 
ATOM     10  C   UNL     1      -2.029  -2.526   3.736  0.00  0.00    +0.040 A 
ATOM     11  C   UNL     1      -1.762  -2.484   2.381  0.00  0.00    +0.026 A 
ATOM     12  F   UNL     1      -1.380  -3.140   5.929  0.00  0.00    -0.205 F 
ENDBRANCH   5   6
BRANCH   1  13
ATOM     13  S   UNL     1      -1.386  -0.646  -0.283  0.00  0.00    -0.111 S 
BRANCH  13  15
ATOM     14  C   UNL     1      -3.213   1.218  -1.100  0.00  0.00    +0.019 C 
ATOM     15  C   UNL     1      -2.764  -0.217  -1.382  0.00  0.00    +0.044 C 
ATOM     16  C   UNL     1      -2.308  -0.331  -2.838  0.00  0.00    +0.019 C 
ENDBRANCH  13  15
ENDBRANCH   1  13
BRANCH   4  17
ATOM     17  C   UNL     1       2.135  -2.812   0.306  0.00  0.00    +0.102 C 
BRANCH  17  18
ATOM     18  C   UNL     1       3.335  -3.366  -0.418  0.00  0.00    +0.029 A 
ATOM     19  N   UNL     1       3.943  -4.506   0.031  0.00  0.00    -0.311 N 
ATOM     20  C   UNL     1       5.014  -5.010  -0.609  0.00  0.00    +0.327 A 
ATOM     21  O   UNL     1       5.539  -6.024  -0.192  0.00  0.00    -0.247 OA
ATOM     22  N   UNL     1       5.513  -4.406  -1.703  0.00  0.00    -0.275 N 
ATOM     23  C   UNL     1       4.943  -3.280  -2.178  0.00  0.00    +0.254 A 
ATOM     24  O   UNL     1       5.393  -2.733  -3.168  0.00  0.00    -0.268 OA
ATOM     25  C   UNL     1       3.812  -2.743  -1.517  0.00  0.00    +0.091 A 
ATOM     26  H   UNL     1       6.286  -4.782  -2.152  0.00  0.00    +0.173 HD
ATOM     27  H   UNL     1       3.598  -4.956   0.818  0.00  0.00    +0.170 HD
ENDBRANCH  17  18
ENDBRANCH   4  17
TORSDOF 5
