REMARK  Name = ZINC36595849
REMARK  12 active torsions:
REMARK  status: ('A' for Active; 'I' for Inactive)
REMARK    1  A    between atoms: C_1  and  C_2
REMARK    2  A    between atoms: C_2  and  C_3
REMARK    3  A    between atoms: C_3  and  C_4
REMARK    4  A    between atoms: C_4  and  N_5
REMARK    5  A    between atoms: C_6  and  C_8
REMARK    6  A    between atoms: C_8  and  C_10
REMARK    7  A    between atoms: C_8  and  N_20
REMARK    8  A    between atoms: C_12  and  N_17
REMARK    9  A    between atoms: N_20  and  C_21
REMARK   10  A    between atoms: C_21  and  C_22
REMARK   11  A    between atoms: C_25  and  C_27
REMARK   12  A    between atoms: C_28  and  C_30
REMARK                            x       y       z     vdW  Elec       q    Type
REMARK                         _______ _______ _______ _____ _____    ______ ____
ROOT
ATOM      1  C   UNL     1      -3.842  -4.590   0.338  0.00  0.00    +0.194 C 
ENDROOT
BRANCH   1   2
ATOM      2  C   UNL     1      -4.655  -3.744  -0.607  0.00  0.00    +0.002 A 
ATOM      3  C   UNL     1      -5.391  -4.343  -1.612  0.00  0.00    +0.040 A 
ATOM      4  C   UNL     1      -6.137  -3.567  -2.479  0.00  0.00    +0.127 A 
ATOM      5  C   UNL     1      -6.147  -2.191  -2.342  0.00  0.00    +0.034 A 
ATOM      6  C   UNL     1      -5.412  -1.591  -1.337  0.00  0.00    +0.022 A 
ATOM      7  C   UNL     1      -4.670  -2.368  -0.465  0.00  0.00    +0.047 A 
ATOM      8 CL   UNL     1      -3.752  -1.616   0.802  0.00  0.00    -0.083 Cl
BRANCH   4   9
ATOM      9  N   UNL     1      -6.925  -4.209  -3.555  0.00  0.00    +0.056 N 
ATOM     10  O   UNL     1      -6.916  -5.412  -3.676  0.00  0.00    -0.126 OA
ATOM     11  O   UNL     1      -7.577  -3.530  -4.314  0.00  0.00    -0.126 OA
ENDBRANCH   4   9
ENDBRANCH   1   2
BRANCH   1  13
ATOM     12  N   UNL     1      -1.768  -3.447  -0.376  0.00  0.00    -0.313 N 
ATOM     13  C   UNL     1      -2.404  -4.606  -0.112  0.00  0.00    +0.238 C 
ATOM     14  O   UNL     1      -1.819  -5.661  -0.237  0.00  0.00    -0.273 OA
ATOM     15  H   UNL     1      -2.252  -2.608  -0.335  0.00  0.00    +0.149 HD
BRANCH  12  16
ATOM     16  C   UNL     1      -0.345  -3.455  -0.725  0.00  0.00    +0.104 C 
BRANCH  16  17
ATOM     17  C   UNL     1       0.128  -2.022  -0.975  0.00  0.00    +0.018 C 
BRANCH  17  19
ATOM     18  C   UNL     1       2.086  -0.597  -1.588  0.00  0.00    +0.004 C 
ATOM     19  C   UNL     1       1.613  -2.031  -1.339  0.00  0.00    -0.002 C 
ENDBRANCH  17  19
ENDBRANCH  16  17
ENDBRANCH  12  16
ENDBRANCH   1  13
BRANCH   1  20
ATOM     20  N   UNL     1      -4.366  -5.958   0.344  0.00  0.00    -0.272 N 
ATOM     21  C   UNL     1      -4.255  -6.727  -0.758  0.00  0.00    +0.283 C 
ATOM     22  O   UNL     1      -4.714  -7.854  -0.762  0.00  0.00    -0.267 OA
BRANCH  21  23
ATOM     23  C   UNL     1      -3.582  -6.205  -1.951  0.00  0.00    +0.189 A 
ATOM     24  C   UNL     1      -3.265  -6.920  -3.071  0.00  0.00    +0.054 A 
ATOM     25  C   UNL     1      -2.636  -6.028  -3.954  0.00  0.00    +0.042 A 
ATOM     26  C   UNL     1      -2.596  -4.824  -3.342  0.00  0.00    +0.196 A 
ATOM     27  O   UNL     1      -3.172  -4.933  -2.138  0.00  0.00    -0.458 OA
ENDBRANCH  21  23
BRANCH  20  28
ATOM     28  C   UNL     1      -5.012  -6.490   1.546  0.00  0.00    +0.183 C 
BRANCH  28  29
ATOM     29  C   UNL     1      -6.488  -6.193   1.497  0.00  0.00    +0.122 A 
ATOM     30  C   UNL     1      -7.434  -6.988   0.964  0.00  0.00    +0.046 A 
ATOM     31  C   UNL     1      -8.670  -6.324   1.134  0.00  0.00    +0.045 A 
ATOM     32  C   UNL     1      -8.407  -5.164   1.761  0.00  0.00    +0.102 A 
ATOM     33  O   UNL     1      -7.085  -5.092   1.984  0.00  0.00    -0.463 OA
ATOM     34  C   UNL     1      -9.424  -4.123   2.153  0.00  0.00    +0.086 C 
ENDBRANCH  28  29
ENDBRANCH  20  28
ENDBRANCH   1  20
TORSDOF 10
