REMARK  Name = ZINC65182405
REMARK  9 active torsions:
REMARK  status: ('A' for Active; 'I' for Inactive)
REMARK    1  A    between atoms: C_1  and  C_2
REMARK    2  A    between atoms: C_2  and  C_3
REMARK    3  A    between atoms: C_6  and  C_33
REMARK    4  A    between atoms: C_11  and  C_13
REMARK    5  A    between atoms: C_16  and  C_19
REMARK    6  A    between atoms: C_19  and  C_20
REMARK    7  A    between atoms: C_20  and  N_21
REMARK    8  A    between atoms: N_21  and  C_22
REMARK    9  A    between atoms: C_23  and  C_25
REMARK                            x       y       z     vdW  Elec       q    Type
REMARK                         _______ _______ _______ _____ _____    ______ ____
ROOT
ATOM      1  C   UNL     1      -0.254  -2.628  -1.677  0.00  0.00    +0.318 C 
ATOM      2  N   UNL     1      -0.062  -4.035  -2.067  0.00  0.00    -0.291 N 
ATOM      3  C   UNL     1      -0.635  -4.803  -1.080  0.00  0.00    +0.139 C 
ATOM      4  N   UNL     1      -1.143  -4.076  -0.153  0.00  0.00    -0.072 NA
ATOM      5  O   UNL     1      -0.961  -2.697  -0.429  0.00  0.00    -0.367 OA
ATOM      6  H   UNL     1       0.382  -4.358  -2.866  0.00  0.00    +0.151 HD
ENDROOT
BRANCH   1  15
ATOM      7  C   UNL     1       0.894  -0.505  -1.045  0.00  0.00    -0.033 C 
ATOM      8  C   UNL     1       1.455   0.267  -2.003  0.00  0.00    -0.000 A 
ATOM      9  C   UNL     1       1.590   1.721  -2.156  0.00  0.00    +0.013 A 
ATOM     10  C   UNL     1       2.217   2.210  -3.250  0.00  0.00    -0.050 A 
ATOM     11  C   UNL     1       2.739   1.366  -4.239  0.00  0.00    +0.005 A 
ATOM     12  C   UNL     1       2.654   0.020  -4.170  0.00  0.00    +0.026 A 
ATOM     13  C   UNL     1       2.015  -0.603  -3.062  0.00  0.00    +0.043 A 
ATOM     14  N   UNL     1       1.809  -1.864  -2.770  0.00  0.00    -0.373 N 
ATOM     15  C   UNL     1       1.098  -1.937  -1.488  0.00  0.00    +0.169 C 
ATOM     16  C   UNL     1       2.357   3.702  -3.409  0.00  0.00    +0.044 C 
ATOM     17  H   UNL     1       2.083  -2.622  -3.309  0.00  0.00    +0.160 HD
BRANCH   7  19
ATOM     18  C   UNL     1       0.227   1.494   0.261  0.00  0.00    +0.008 C 
ATOM     19  C   UNL     1       0.209  -0.035   0.212  0.00  0.00    +0.030 C 
ENDBRANCH   7  19
ENDBRANCH   1  15
BRANCH   3  20
ATOM     20  C   UNL     1      -0.662  -6.309  -1.087  0.00  0.00    +0.094 C 
BRANCH  20  21
ATOM     21  C   UNL     1      -1.380  -6.813   0.167  0.00  0.00    +0.115 C 
BRANCH  21  22
ATOM     22  N   UNL     1      -1.406  -8.277   0.160  0.00  0.00    -0.300 N 
ATOM     23  C   UNL     1      -0.315  -9.033   0.780  0.00  0.00    +0.132 C 
ATOM     24  C   UNL     1      -2.435  -8.930  -0.417  0.00  0.00    +0.246 C 
ATOM     25  O   UNL     1      -3.286  -8.309  -1.023  0.00  0.00    -0.270 OA
BRANCH  24  26
ATOM     26  C   UNL     1      -2.528 -10.401  -0.312  0.00  0.00    +0.040 A 
ATOM     27  C   UNL     1      -2.108 -11.048   0.852  0.00  0.00    +0.016 A 
ATOM     28  C   UNL     1      -2.197 -12.420   0.946  0.00  0.00    +0.042 A 
ATOM     29  C   UNL     1      -2.702 -13.159  -0.112  0.00  0.00    +0.158 A 
ATOM     30  C   UNL     1      -3.121 -12.522  -1.272  0.00  0.00    +0.159 A 
ATOM     31  C   UNL     1      -3.042 -11.147  -1.374  0.00  0.00    +0.054 A 
ATOM     32  F   UNL     1      -3.612 -13.247  -2.301  0.00  0.00    -0.202 F 
ATOM     33  F   UNL     1      -2.787 -14.504  -0.015  0.00  0.00    -0.202 F 
ENDBRANCH  24  26
ENDBRANCH  21  22
ENDBRANCH  20  21
ENDBRANCH   3  20
TORSDOF 6
