REMARK  Name = ZINC67369158
REMARK  8 active torsions:
REMARK  status: ('A' for Active; 'I' for Inactive)
REMARK    1  A    between atoms: C_1  and  C_2
REMARK    2  A    between atoms: C_2  and  C_3
REMARK    3  A    between atoms: C_2  and  C_4
REMARK    4  A    between atoms: C_2  and  O_5
REMARK    5  A    between atoms: O_5  and  C_6
REMARK    6  A    between atoms: N_8  and  C_9
REMARK    7  A    between atoms: N_8  and  C_10
REMARK    8  A    between atoms: C_10  and  C_11
REMARK                            x       y       z     vdW  Elec       q    Type
REMARK                         _______ _______ _______ _____ _____    ______ ____
ROOT
ATOM      1  C   UNL     1       4.960  -1.103  -1.952  0.00  0.00    +0.024 C 
ATOM      2  C   UNL     1       6.407  -0.612  -2.029  0.00  0.00    +0.008 C 
ATOM      3  C   UNL     1       7.329  -1.628  -1.351  0.00  0.00    +0.019 C 
ATOM      4  C   UNL     1       7.234  -2.968  -2.086  0.00  0.00    +0.108 C 
ATOM      5  N   UNL     1       5.824  -3.377  -2.144  0.00  0.00    -0.299 N 
ATOM      6  C   UNL     1       4.837  -2.438  -2.694  0.00  0.00    +0.113 C 
ATOM      7  C   UNL     1       5.432  -4.624  -1.688  0.00  0.00    +0.218 A 
ATOM      8  N   UNL     1       4.154  -4.966  -1.758  0.00  0.00    -0.222 NA
ATOM      9  C   UNL     1       3.745  -6.150  -1.331  0.00  0.00    +0.131 A 
ATOM     10  C   UNL     1       4.674  -7.036  -0.806  0.00  0.00    +0.054 A 
ATOM     11  C   UNL     1       6.003  -6.646  -0.748  0.00  0.00    +0.131 A 
ATOM     12  N   UNL     1       6.345  -5.449  -1.197  0.00  0.00    -0.222 NA
ATOM     13 BR   UNL     1       4.138  -8.739  -0.183  0.00  0.00    -0.047 Br
ENDROOT
BRANCH   1  14
ATOM     14  C   UNL     1       4.035  -0.071  -2.601  0.00  0.00    +0.115 C 
BRANCH  14  17
ATOM     15  C   UNL     1       1.952  -0.085  -1.337  0.00  0.00    +0.403 C 
ATOM     16  O   UNL     1       2.488   0.619  -0.503  0.00  0.00    -0.226 OA
ATOM     17  N   UNL     1       2.641  -0.485  -2.424  0.00  0.00    -0.270 N 
ATOM     18  C   UNL     1       1.995  -1.333  -3.429  0.00  0.00    +0.135 C 
BRANCH  15  19
ATOM     19  O   UNL     1       0.671  -0.465  -1.174  0.00  0.00    -0.445 OA
BRANCH  19  21
ATOM     20  C   UNL     1      -0.019   1.526   0.010  0.00  0.00    +0.055 C 
ATOM     21  C   UNL     1       0.002  -0.004   0.002  0.00  0.00    +0.107 C 
ATOM     22  C   UNL     1       0.742  -0.511   1.242  0.00  0.00    +0.055 C 
ATOM     23  C   UNL     1      -1.433  -0.534   0.013  0.00  0.00    +0.055 C 
ENDBRANCH  19  21
ENDBRANCH  15  19
ENDBRANCH  14  17
ENDBRANCH   1  14
TORSDOF 4
