REMARK  Name = ZINC12752005
REMARK  15 active torsions:
REMARK  status: ('A' for Active; 'I' for Inactive)
REMARK    1  A    between atoms: C_1  and  C_2
REMARK    2  A    between atoms: C_2  and  C_4
REMARK    3  A    between atoms: C_2  and  S_16
REMARK    4  A    between atoms: N_6  and  N_7
REMARK    5  A    between atoms: C_8  and  C_10
REMARK    6  A    between atoms: S_16  and  C_17
REMARK    7  A    between atoms: N_27  and  C_28
REMARK    8  A    between atoms: C_28  and  C_29
REMARK    9  A    between atoms: C_29  and  N_30
REMARK   10  A    between atoms: N_30  and  C_31
REMARK   11  A    between atoms: N_30  and  C_34
REMARK   12  A    between atoms: C_31  and  C_32
REMARK   13  A    between atoms: C_31  and  C_33
REMARK   14  A    between atoms: C_34  and  C_35
REMARK   15  A    between atoms: C_34  and  C_36
REMARK                            x       y       z     vdW  Elec       q    Type
REMARK                         _______ _______ _______ _____ _____    ______ ____
ROOT
ATOM      1  C   UNL     1      -0.631  -0.608   3.628  0.00  0.00    +0.173 A 
ATOM      2  N   UNL     1      -1.829  -0.105   3.462  0.00  0.00    -0.223 NA
ATOM      3  C   UNL     1      -2.546   0.370   4.500  0.00  0.00    +0.079 A 
ATOM      4  C   UNL     1      -3.825   0.906   4.322  0.00  0.00    +0.028 A 
ATOM      5  C   UNL     1      -4.517   1.377   5.403  0.00  0.00    +0.002 A 
ATOM      6  C   UNL     1      -3.968   1.331   6.678  0.00  0.00    +0.001 A 
ATOM      7  C   UNL     1      -2.719   0.813   6.883  0.00  0.00    +0.015 A 
ATOM      8  C   UNL     1      -1.991   0.325   5.799  0.00  0.00    +0.065 A 
ATOM      9  C   UNL     1      -0.646  -0.243   5.960  0.00  0.00    +0.262 A 
ATOM     10  O   UNL     1      -0.115  -0.310   7.053  0.00  0.00    -0.267 OA
ATOM     11  N   UNL     1      -0.022  -0.696   4.847  0.00  0.00    -0.289 N 
ENDROOT
BRANCH   1  12
ATOM     12  S   UNL     1       0.233  -1.206   2.213  0.00  0.00    -0.075 S 
BRANCH  12  14
ATOM     13  C   UNL     1      -1.111   0.604   0.664  0.00  0.00    +0.029 C 
ATOM     14  C   UNL     1      -0.912  -0.903   0.840  0.00  0.00    +0.138 C 
BRANCH  14  15
ATOM     15  C   UNL     1      -0.342  -1.485  -0.428  0.00  0.00    +0.242 C 
ATOM     16  O   UNL     1       0.846  -1.718  -0.508  0.00  0.00    -0.273 OA
ATOM     17  N   UNL     1      -1.151  -1.748  -1.473  0.00  0.00    -0.233 N 
ATOM     18  H   UNL     1      -2.101  -1.562  -1.409  0.00  0.00    +0.173 HD
BRANCH  17  19
ATOM     19  N   UNL     1      -0.621  -2.289  -2.651  0.00  0.00    -0.230 N 
ATOM     20  C   UNL     1      -1.430  -2.551  -3.697  0.00  0.00    +0.260 C 
ATOM     21  O   UNL     1      -2.621  -2.319  -3.617  0.00  0.00    -0.269 OA
ATOM     22  H   UNL     1       0.329  -2.475  -2.715  0.00  0.00    +0.173 HD
BRANCH  20  23
ATOM     23  C   UNL     1      -0.870  -3.123  -4.940  0.00  0.00    +0.038 A 
ATOM     24  C   UNL     1       0.495  -3.397  -5.033  0.00  0.00    +0.013 A 
ATOM     25  C   UNL     1       1.011  -3.930  -6.196  0.00  0.00    +0.001 A 
ATOM     26  C   UNL     1       0.178  -4.193  -7.269  0.00  0.00    +0.000 A 
ATOM     27  C   UNL     1      -1.176  -3.923  -7.184  0.00  0.00    +0.001 A 
ATOM     28  C   UNL     1      -1.706  -3.396  -6.024  0.00  0.00    +0.013 A 
ENDBRANCH  20  23
ENDBRANCH  17  19
ENDBRANCH  14  15
ENDBRANCH  12  14
ENDBRANCH   1  12
BRANCH  11  29
ATOM     29  C   UNL     1       1.319  -1.277   4.951  0.00  0.00    +0.109 C 
BRANCH  29  30
ATOM     30  C   UNL     1       2.367  -0.175   4.790  0.00  0.00    -0.056 C 
BRANCH  30  31
ATOM     31  N   UNL     1       3.705  -0.731   5.035  0.00  0.00    +0.384 N 
ATOM     32  H   UNL     1       3.721  -1.183   5.938  0.00  0.00    -0.081 HD
BRANCH  31  33
ATOM     33  C   UNL     1       4.026  -1.713   3.991  0.00  0.00    -0.074 C 
ATOM     34  C   UNL     1       4.587  -0.989   2.765  0.00  0.00    -0.014 C 
ATOM     35  C   UNL     1       5.067  -2.700   4.522  0.00  0.00    -0.014 C 
ENDBRANCH  31  33
BRANCH  31  36
ATOM     36  C   UNL     1       4.697   0.351   5.011  0.00  0.00    -0.074 C 
ATOM     37  C   UNL     1       4.284   1.444   5.999  0.00  0.00    -0.014 C 
ATOM     38  C   UNL     1       6.067  -0.204   5.408  0.00  0.00    -0.014 C 
ENDBRANCH  31  36
ENDBRANCH  30  31
ENDBRANCH  29  30
ENDBRANCH  11  29
TORSDOF 10
