REMARK  Name = ZINC19802799
REMARK  3 active torsions:
REMARK  status: ('A' for Active; 'I' for Inactive)
REMARK    1  A    between atoms: C_10  and  C_17
REMARK    2  A    between atoms: N_12  and  S_13
REMARK    3  A    between atoms: S_13  and  N_16
REMARK                            x       y       z     vdW  Elec       q    Type
REMARK                         _______ _______ _______ _____ _____    ______ ____
ROOT
ATOM      1  C   UNL     1       0.420   2.281  -0.610  0.00  0.00    +0.000 C 
ATOM      2  C   UNL     1       1.928   2.509  -0.453  0.00  0.00    +0.002 C 
ATOM      3  C   UNL     1       2.641   1.859  -1.638  0.00  0.00    +0.021 C 
ATOM      4  C   UNL     1       2.352   0.377  -1.706  0.00  0.00    +0.085 C 
ATOM      5  C   UNL     1       0.846   0.057  -1.705  0.00  0.00    +0.010 C 
ATOM      6  C   UNL     1       0.144   0.780  -0.554  0.00  0.00    +0.005 C 
ATOM      7  C   UNL     1       0.876  -1.456  -1.328  0.00  0.00    +0.037 C 
ATOM      8  C   UNL     1       2.044  -1.530  -0.320  0.00  0.00    +0.194 C 
ATOM      9  N   UNL     1       2.902  -0.367  -0.569  0.00  0.00    -0.150 NA
ENDROOT
BRANCH   9  10
ATOM     10  S   UNL     1       4.265   0.027   0.284  0.00  0.00    +0.096 S 
ATOM     11  O   UNL     1       4.361   1.444   0.265  0.00  0.00    -0.141 OA
ATOM     12  O   UNL     1       4.216  -0.717   1.494  0.00  0.00    -0.141 OA
BRANCH  10  13
ATOM     13  N   UNL     1       5.561  -0.547  -0.572  0.00  0.00    -0.193 NA
ATOM     14  H   UNL     1       5.418  -1.073  -1.374  0.00  0.00    +0.145 HD
ATOM     15  H   UNL     1       6.464  -0.357  -0.271  0.00  0.00    +0.145 HD
ENDBRANCH  10  13
ENDBRANCH   9  10
BRANCH   8  16
ATOM     16  C   UNL     1       1.511  -1.474   1.089  0.00  0.00    +0.375 C 
ATOM     17  O   UNL     1       0.909  -2.428   1.551  0.00  0.00    -0.245 OA
ATOM     18  O   UNL     1       1.683  -0.475   1.766  0.00  0.00    -0.245 OA
ENDBRANCH   8  16
TORSDOF 3
