REMARK  Name = ZINC12569137
REMARK  7 active torsions:
REMARK  status: ('A' for Active; 'I' for Inactive)
REMARK    1  A    between atoms: C_1  and  C_2
REMARK    2  A    between atoms: N_11  and  C_15
REMARK    3  A    between atoms: C_15  and  C_16
REMARK    4  A    between atoms: C_16  and  C_18
REMARK    5  A    between atoms: C_16  and  C_22
REMARK    6  A    between atoms: C_18  and  C_19
REMARK    7  A    between atoms: C_19  and  C_20
REMARK                            x       y       z     vdW  Elec       q    Type
REMARK                         _______ _______ _______ _____ _____    ______ ____
ROOT
ATOM      1  C   UNL     1      -0.026   1.117  -2.491  0.00  0.00    +0.010 C 
ATOM      2  C   UNL     1      -0.754   1.593  -1.232  0.00  0.00    +0.018 C 
ATOM      3  C   UNL     1      -0.013   1.086   0.008  0.00  0.00    +0.006 C 
ATOM      4  C   UNL     1      -0.729   1.579   1.266  0.00  0.00    +0.000 C 
ATOM      5  C   UNL     1      -0.743   3.109   1.282  0.00  0.00    +0.003 C 
ATOM      6  C   UNL     1      -1.486   3.624   0.046  0.00  0.00    +0.035 C 
ATOM      7  C   UNL     1      -0.793   3.117  -1.214  0.00  0.00    +0.115 C 
ATOM      8  C   UNL     1      -1.491   3.642  -2.447  0.00  0.00    +0.247 C 
ATOM      9  O   UNL     1      -2.638   3.440  -2.784  0.00  0.00    -0.273 OA
ATOM     10  N   UNL     1      -0.568   4.383  -3.095  0.00  0.00    -0.223 N 
ATOM     11  C   UNL     1       0.601   4.394  -2.443  0.00  0.00    +0.309 C 
ATOM     12  O   UNL     1       1.586   4.993  -2.831  0.00  0.00    -0.252 OA
ATOM     13  N   UNL     1       0.565   3.668  -1.310  0.00  0.00    -0.285 N 
ATOM     14  H   UNL     1       1.292   3.534  -0.682  0.00  0.00    +0.151 HD
ENDROOT
BRANCH  10  15
ATOM     15  C   UNL     1      -0.815   5.087  -4.356  0.00  0.00    +0.136 C 
BRANCH  15  16
ATOM     16  C   UNL     1      -0.480   4.165  -5.530  0.00  0.00    +0.110 C 
BRANCH  16  17
ATOM     17  C   UNL     1       0.962   3.868  -5.525  0.00  0.00    +0.067 C 
ATOM     18  N   UNL     1       2.075   3.639  -5.521  0.00  0.00    -0.196 NA
ENDBRANCH  16  17
BRANCH  16  19
ATOM     19  C   UNL     1      -0.854   4.854  -6.843  0.00  0.00    +0.034 C 
BRANCH  19  20
ATOM     20  C   UNL     1      -0.636   3.886  -8.008  0.00  0.00    +0.120 C 
BRANCH  20  21
ATOM     21  C   UNL     1      -0.997   4.549  -9.271  0.00  0.00    +0.063 C 
ATOM     22  N   UNL     1      -1.275   5.061 -10.247  0.00  0.00    -0.197 NA
ENDBRANCH  20  21
ENDBRANCH  19  20
ENDBRANCH  16  19
ENDBRANCH  15  16
ENDBRANCH  10  15
TORSDOF 6
