REMARK  Name = ZINC65260253
REMARK  4 active torsions:
REMARK  status: ('A' for Active; 'I' for Inactive)
REMARK    1  A    between atoms: C_1  and  C_2
REMARK    2  A    between atoms: C_4  and  C_9
REMARK    3  A    between atoms: N_7  and  C_8
REMARK    4  A    between atoms: C_18  and  C_22
REMARK                            x       y       z     vdW  Elec       q    Type
REMARK                         _______ _______ _______ _____ _____    ______ ____
ROOT
ATOM      1  C   UNL     1      -1.200  -2.905  -1.141  0.00  0.00    +0.238 C 
ATOM      2  O   UNL     1      -2.134  -3.090  -0.391  0.00  0.00    -0.273 OA
ATOM      3  N   UNL     1      -1.260  -3.343  -2.414  0.00  0.00    -0.294 N 
ATOM      4  C   UNL     1      -2.452  -4.042  -2.912  0.00  0.00    +0.109 C 
ATOM      5  C   UNL     1      -2.986  -3.326  -4.157  0.00  0.00    +0.038 C 
ATOM      6  C   UNL     1      -1.904  -3.310  -5.238  0.00  0.00    +0.124 C 
ATOM      7  C   UNL     1      -0.703  -2.609  -4.631  0.00  0.00    +0.050 C 
ATOM      8  N   UNL     1      -0.227  -1.570  -5.231  0.00  0.00    -0.236 NA
ATOM      9  C   UNL     1      -0.786  -1.082  -6.361  0.00  0.00    +0.152 C 
ATOM     10  N   UNL     1      -1.862  -1.571  -6.941  0.00  0.00    -0.160 NA
ATOM     11  C   UNL     1      -2.502  -2.669  -6.476  0.00  0.00    +0.247 C 
ATOM     12  O   UNL     1      -3.500  -3.117  -7.005  0.00  0.00    -0.273 OA
ATOM     13  C   UNL     1      -0.134  -3.127  -3.341  0.00  0.00    +0.159 C 
ENDROOT
BRANCH   1  17
ATOM     14  C   UNL     1      -0.018   1.503   0.010  0.00  0.00    +0.061 C 
ATOM     15  C   UNL     1       0.002  -0.004   0.002  0.00  0.00    +0.017 C 
ATOM     16  C   UNL     1       0.007  -0.737  -1.093  0.00  0.00    +0.022 C 
ATOM     17  C   UNL     1       0.029  -2.184  -0.650  0.00  0.00    +0.183 C 
ATOM     18  N   UNL     1       0.035  -2.114   0.825  0.00  0.00    -0.225 NA
ATOM     19  N   UNL     1       0.024  -0.785   1.141  0.00  0.00    -0.274 N 
ATOM     20  C   UNL     1       0.030  -0.258   2.507  0.00  0.00    +0.149 C 
ATOM     21  H   UNL     1      -0.767  -2.588   1.213  0.00  0.00    +0.146 HD
ENDBRANCH   1  17
BRANCH   9  22
ATOM     22  C   UNL     1      -0.143   0.087  -6.991  0.00  0.00    +0.017 A 
ATOM     23  C   UNL     1       1.005   0.647  -6.423  0.00  0.00    +0.014 A 
ATOM     24  C   UNL     1       1.601   1.739  -7.016  0.00  0.00    +0.039 A 
ATOM     25  C   UNL     1       1.064   2.282  -8.174  0.00  0.00    +0.123 A 
ATOM     26  C   UNL     1      -0.076   1.732  -8.741  0.00  0.00    +0.039 A 
ATOM     27  C   UNL     1      -0.677   0.636  -8.161  0.00  0.00    +0.014 A 
ATOM     28  F   UNL     1       1.653   3.353  -8.750  0.00  0.00    -0.205 F 
ENDBRANCH   9  22
TORSDOF 2
