REMARK  Name = ZINC39467714
REMARK  6 active torsions:
REMARK  status: ('A' for Active; 'I' for Inactive)
REMARK    1  A    between atoms: C_5  and  C_7
REMARK    2  A    between atoms: C_7  and  N_8
REMARK    3  A    between atoms: C_21  and  N_25
REMARK    4  A    between atoms: N_25  and  C_26
REMARK    5  A    between atoms: C_26  and  C_27
REMARK    6  A    between atoms: C_27  and  C_28
REMARK                            x       y       z     vdW  Elec       q    Type
REMARK                         _______ _______ _______ _____ _____    ______ ____
ROOT
ATOM      1  N   UNL     1       1.488  -2.679   1.333  0.00  0.00    -0.257 N 
ATOM      2  C   UNL     1       2.779  -2.888   1.754  0.00  0.00    +0.186 C 
ATOM      3  N   UNL     1       3.078  -2.946   3.000  0.00  0.00    -0.261 NA
ATOM      4  C   UNL     1       2.085  -2.803   4.061  0.00  0.00    +0.184 C 
ATOM      5  C   UNL     1       0.714  -3.336   3.574  0.00  0.00    +0.137 C 
ATOM      6  C   UNL     1       0.461  -2.923   2.171  0.00  0.00    +0.231 C 
ATOM      7  O   UNL     1      -0.679  -2.792   1.780  0.00  0.00    -0.274 OA
ATOM      8  C   UNL     1       0.668  -4.842   3.656  0.00  0.00    -0.046 C 
ATOM      9  C   UNL     1       1.490  -5.426   4.524  0.00  0.00    -0.014 C 
ATOM     10  S   UNL     1       2.432  -4.096   5.336  0.00  0.00    -0.102 S 
ATOM     11  C   UNL     1       1.618  -6.896   4.800  0.00  0.00    +0.026 C 
ATOM     12  C   UNL     1       0.406  -7.617   4.198  0.00  0.00    -0.067 C 
ATOM     13  C   UNL     1       0.207  -7.118   2.763  0.00  0.00    -0.011 C 
ATOM     14  C   UNL     1      -0.276  -5.668   2.789  0.00  0.00    +0.031 C 
ENDROOT
BRANCH  12  15
ATOM     15  N   UNL     1       0.647  -9.066   4.191  0.00  0.00    +0.381 N 
ATOM     16  H   UNL     1      -0.115  -9.532   3.721  0.00  0.00    -0.086 HD
ATOM     17  H   UNL     1       1.510  -9.261   3.708  0.00  0.00    -0.086 HD
BRANCH  15  18
ATOM     18  C   UNL     1       0.739  -9.553   5.574  0.00  0.00    -0.077 C 
BRANCH  18  19
ATOM     19  C   UNL     1       0.989 -11.062   5.568  0.00  0.00    +0.018 C 
BRANCH  19  20
ATOM     20  C   UNL     1       1.083 -11.562   6.987  0.00  0.00    -0.024 A 
ATOM     21  C   UNL     1      -0.035 -11.948   7.851  0.00  0.00    +0.003 A 
ATOM     22  C   UNL     1      -1.420 -11.985   7.686  0.00  0.00    +0.010 A 
ATOM     23  C   UNL     1      -2.215 -12.408   8.714  0.00  0.00    +0.001 A 
ATOM     24  C   UNL     1      -1.655 -12.799   9.923  0.00  0.00    +0.002 A 
ATOM     25  C   UNL     1      -0.290 -12.770  10.107  0.00  0.00    +0.026 A 
ATOM     26  C   UNL     1       0.538 -12.344   9.074  0.00  0.00    +0.047 A 
ATOM     27  N   UNL     1       1.902 -12.204   8.948  0.00  0.00    -0.360 N 
ATOM     28  C   UNL     1       2.208 -11.743   7.696  0.00  0.00    +0.087 A 
ATOM     29  H   UNL     1       2.549 -12.407   9.641  0.00  0.00    +0.165 HD
ENDBRANCH  19  20
ENDBRANCH  18  19
ENDBRANCH  15  18
ENDBRANCH  12  15
BRANCH   1  30
ATOM     30  C   UNL     1       1.228  -2.186  -0.022  0.00  0.00    +0.152 C 
BRANCH  30  35
ATOM     31  C   UNL     1      -0.017   1.378   0.010  0.00  0.00    +0.000 A 
ATOM     32  C   UNL     1       1.171   2.087   0.002  0.00  0.00    +0.003 A 
ATOM     33  C   UNL     1       2.377   1.414  -0.013  0.00  0.00    +0.038 A 
ATOM     34  C   UNL     1       2.397   0.029  -0.021  0.00  0.00    +0.128 A 
ATOM     35  C   UNL     1       1.208  -0.679  -0.013  0.00  0.00    +0.005 A 
ATOM     36  C   UNL     1       0.002  -0.004   0.002  0.00  0.00    +0.008 A 
ATOM     37  F   UNL     1       3.577  -0.630  -0.036  0.00  0.00    -0.205 F 
ENDBRANCH  30  35
ENDBRANCH   1  30
TORSDOF 6
