REMARK  Name = ZINC01371661
REMARK  8 active torsions:
REMARK  status: ('A' for Active; 'I' for Inactive)
REMARK    1  A    between atoms: C_1  and  C_2
REMARK    2  A    between atoms: C_5  and  C_33
REMARK    3  A    between atoms: C_9  and  C_14
REMARK    4  A    between atoms: C_14  and  N_15
REMARK    5  A    between atoms: N_15  and  C_16
REMARK    6  A    between atoms: C_16  and  C_17
REMARK    7  A    between atoms: C_17  and  C_18
REMARK    8  A    between atoms: N_26  and  C_27
REMARK                            x       y       z     vdW  Elec       q    Type
REMARK                         _______ _______ _______ _____ _____    ______ ____
ROOT
ATOM      1  N   UNL     1       0.043  -1.987   1.434  0.00  0.00    -0.281 N 
ATOM      2  C   UNL     1      -1.115  -2.676   1.441  0.00  0.00    +0.303 C 
ATOM      3  O   UNL     1      -1.099  -3.892   1.434  0.00  0.00    -0.253 OA
ATOM      4  N   UNL     1      -2.291  -2.018   1.456  0.00  0.00    -0.296 N 
ATOM      5  H   UNL     1      -2.306  -0.918   1.462  0.00  0.00    +0.151 HD
ENDROOT
BRANCH   4   6
ATOM      6  C   UNL     1      -3.550  -2.768   1.464  0.00  0.00    +0.074 C 
ATOM      7  C   UNL     1      -3.938  -3.129   0.028  0.00  0.00    +0.022 C 
ATOM      8  C   UNL     1      -5.252  -3.912   0.037  0.00  0.00    +0.002 C 
ATOM      9  C   UNL     1      -6.353  -3.053   0.661  0.00  0.00    +0.000 C 
ATOM     10  C   UNL     1      -5.966  -2.692   2.097  0.00  0.00    +0.002 C 
ATOM     11  C   UNL     1      -4.651  -1.909   2.088  0.00  0.00    +0.022 C 
ENDBRANCH   4   6
BRANCH   1  12
ATOM     12  C   UNL     1       1.321  -2.702   1.417  0.00  0.00    +0.150 C 
BRANCH  12  21
ATOM     13  C   UNL     1       0.915  -6.651   4.787  0.00  0.00    +0.044 C 
ATOM     14  C   UNL     1       1.677  -5.550   5.478  0.00  0.00    -0.041 A 
ATOM     15  C   UNL     1       2.115  -5.719   6.761  0.00  0.00    +0.004 A 
ATOM     16  C   UNL     1       2.818  -4.712   7.406  0.00  0.00    +0.005 A 
ATOM     17  C   UNL     1       3.090  -3.522   6.765  0.00  0.00    -0.026 A 
ATOM     18  C   UNL     1       2.654  -3.327   5.458  0.00  0.00    +0.052 A 
ATOM     19  C   UNL     1       1.941  -4.351   4.807  0.00  0.00    +0.002 A 
ATOM     20  C   UNL     1       1.488  -4.137   3.432  0.00  0.00    +0.020 A 
ATOM     21  C   UNL     1       1.773  -2.955   2.833  0.00  0.00    +0.035 A 
ATOM     22  C   UNL     1       2.497  -1.962   3.528  0.00  0.00    +0.254 A 
ATOM     23  O   UNL     1       2.747  -0.908   2.969  0.00  0.00    -0.268 OA
ATOM     24  N   UNL     1       2.912  -2.147   4.793  0.00  0.00    -0.322 N 
ATOM     25  H   UNL     1       3.465  -1.341   5.297  0.00  0.00    +0.169 HD
ATOM     26  C   UNL     1       3.855  -2.437   7.477  0.00  0.00    +0.046 C 
ENDBRANCH  12  21
ENDBRANCH   1  12
BRANCH   1  27
ATOM     27  C   UNL     1       0.023  -0.522   1.442  0.00  0.00    +0.114 C 
BRANCH  27  28
ATOM     28  C   UNL     1       0.002  -0.004   0.002  0.00  0.00    +0.054 C 
BRANCH  28  29
ATOM     29  C   UNL     1      -0.018   1.503   0.010  0.00  0.00    -0.046 A 
ATOM     30  C   UNL     1      -1.225   2.178   0.020  0.00  0.00    +0.004 A 
ATOM     31  C   UNL     1      -1.244   3.560   0.032  0.00  0.00    +0.000 A 
ATOM     32  C   UNL     1      -0.056   4.267   0.025  0.00  0.00    +0.000 A 
ATOM     33  C   UNL     1       1.151   3.592   0.010  0.00  0.00    +0.000 A 
ATOM     34  C   UNL     1       1.169   2.210   0.003  0.00  0.00    +0.004 A 
ENDBRANCH  28  29
ENDBRANCH  27  28
ENDBRANCH   1  27
TORSDOF 6
