REMARK  Name = ZINC09473378
REMARK  13 active torsions:
REMARK  status: ('A' for Active; 'I' for Inactive)
REMARK    1  A    between atoms: C_1  and  C_2
REMARK    2  A    between atoms: C_2  and  C_3
REMARK    3  A    between atoms: C_3  and  C_5
REMARK    4  A    between atoms: C_3  and  N_6
REMARK    5  A    between atoms: C_7  and  C_9
REMARK    6  A    between atoms: C_9  and  S_10
REMARK    7  A    between atoms: S_10  and  C_11
REMARK    8  A    between atoms: N_21  and  C_22
REMARK    9  A    between atoms: C_22  and  C_23
REMARK   10  A    between atoms: C_26  and  C_29
REMARK   11  A    between atoms: N_31  and  C_32
REMARK   12  A    between atoms: C_32  and  C_33
REMARK   13  A    between atoms: C_33  and  C_34
REMARK                            x       y       z     vdW  Elec       q    Type
REMARK                         _______ _______ _______ _____ _____    ______ ____
ROOT
ATOM      1  C   UNL     1      -1.118  -2.037   0.003  0.00  0.00    +0.173 A 
ATOM      2  N   UNL     1      -1.136  -0.727   0.009  0.00  0.00    -0.223 NA
ATOM      3  C   UNL     1       0.002  -0.004   0.002  0.00  0.00    +0.079 A 
ATOM      4  C   UNL     1      -0.017   1.394   0.010  0.00  0.00    +0.028 A 
ATOM      5  C   UNL     1       1.161   2.086   0.002  0.00  0.00    +0.002 A 
ATOM      6  C   UNL     1       2.381   1.422  -0.013  0.00  0.00    +0.001 A 
ATOM      7  C   UNL     1       2.432   0.055  -0.021  0.00  0.00    +0.015 A 
ATOM      8  C   UNL     1       1.245  -0.677  -0.013  0.00  0.00    +0.065 A 
ATOM      9  C   UNL     1       1.240  -2.146  -0.021  0.00  0.00    +0.262 A 
ATOM     10  O   UNL     1       2.278  -2.781  -0.034  0.00  0.00    -0.267 OA
ATOM     11  N   UNL     1       0.037  -2.766  -0.012  0.00  0.00    -0.287 N 
ENDROOT
BRANCH   1  12
ATOM     12  S   UNL     1      -2.655  -2.898   0.014  0.00  0.00    -0.078 S 
BRANCH  12  13
ATOM     13  C   UNL     1      -3.800  -1.496   0.033  0.00  0.00    +0.173 C 
BRANCH  13  15
ATOM     14  N   UNL     1      -6.248  -1.137   0.059  0.00  0.00    -0.312 N 
ATOM     15  C   UNL     1      -5.218  -2.007   0.044  0.00  0.00    +0.224 C 
ATOM     16  O   UNL     1      -5.434  -3.200   0.041  0.00  0.00    -0.275 OA
ATOM     17  H   UNL     1      -6.075  -0.182   0.062  0.00  0.00    +0.149 HD
BRANCH  14  18
ATOM     18  C   UNL     1      -7.626  -1.632   0.070  0.00  0.00    +0.070 C 
ATOM     19  C   UNL     1      -8.078  -1.916  -1.363  0.00  0.00    +0.028 C 
BRANCH  18  21
ATOM     20  C   UNL     1      -8.169  -0.385   2.166  0.00  0.00    +0.005 C 
ATOM     21  C   UNL     1      -8.542  -0.578   0.695  0.00  0.00    +0.018 C 
ENDBRANCH  18  21
ENDBRANCH  14  18
ENDBRANCH  13  15
ENDBRANCH  12  13
ENDBRANCH   1  12
BRANCH  11  22
ATOM     22  C   UNL     1      -0.027  -4.229  -0.019  0.00  0.00    +0.131 C 
BRANCH  22  23
ATOM     23  C   UNL     1      -0.063  -4.731  -1.464  0.00  0.00    +0.009 C 
ATOM     24  C   UNL     1      -1.358  -4.266  -2.134  0.00  0.00    +0.006 C 
ATOM     25  C   UNL     1      -1.394  -4.768  -3.579  0.00  0.00    +0.013 C 
ATOM     26  C   UNL     1      -1.335  -6.297  -3.589  0.00  0.00    +0.075 C 
ATOM     27  C   UNL     1      -0.040  -6.762  -2.920  0.00  0.00    +0.013 C 
ATOM     28  C   UNL     1      -0.004  -6.260  -1.475  0.00  0.00    +0.006 C 
BRANCH  26  29
ATOM     29  C   UNL     1      -1.371  -6.791  -5.012  0.00  0.00    +0.216 C 
ATOM     30  O   UNL     1      -0.451  -7.450  -5.448  0.00  0.00    -0.276 OA
ATOM     31  N   UNL     1      -2.425  -6.500  -5.801  0.00  0.00    -0.315 N 
ATOM     32  H   UNL     1      -3.160  -5.973  -5.452  0.00  0.00    +0.149 HD
BRANCH  31  33
ATOM     33  C   UNL     1      -2.459  -6.981  -7.184  0.00  0.00    +0.109 C 
BRANCH  33  34
ATOM     34  C   UNL     1      -3.754  -6.516  -7.853  0.00  0.00    +0.054 C 
BRANCH  34  35
ATOM     35  C   UNL     1      -3.789  -7.010  -9.277  0.00  0.00    -0.046 A 
ATOM     36  C   UNL     1      -3.264  -6.232 -10.292  0.00  0.00    +0.004 A 
ATOM     37  C   UNL     1      -3.292  -6.688 -11.596  0.00  0.00    +0.000 A 
ATOM     38  C   UNL     1      -3.855  -7.917 -11.888  0.00  0.00    +0.000 A 
ATOM     39  C   UNL     1      -4.385  -8.692 -10.873  0.00  0.00    +0.000 A 
ATOM     40  C   UNL     1      -4.352  -8.239  -9.568  0.00  0.00    +0.004 A 
ENDBRANCH  34  35
ENDBRANCH  33  34
ENDBRANCH  31  33
ENDBRANCH  26  29
ENDBRANCH  22  23
ENDBRANCH  11  22
TORSDOF 11
