REMARK  Name = ZINC66825767
REMARK  6 active torsions:
REMARK  status: ('A' for Active; 'I' for Inactive)
REMARK    1  A    between atoms: C_1  and  C_2
REMARK    2  A    between atoms: C_2  and  C_4
REMARK    3  A    between atoms: C_2  and  N_16
REMARK    4  A    between atoms: N_6  and  C_7
REMARK    5  A    between atoms: C_10  and  N_14
REMARK    6  A    between atoms: C_17  and  C_19
REMARK                            x       y       z     vdW  Elec       q    Type
REMARK                         _______ _______ _______ _____ _____    ______ ____
ROOT
ATOM      1  C   UNL     1       0.730  -0.502   1.224  0.00  0.00    +0.237 C 
ATOM      2  O   UNL     1       0.155  -1.204   2.028  0.00  0.00    -0.273 OA
ATOM      3  N   UNL     1       2.019  -0.161   1.426  0.00  0.00    -0.284 N 
ATOM      4  H   UNL     1       2.498   0.344   0.751  0.00  0.00    +0.155 HD
ENDROOT
BRANCH   3   5
ATOM      5  C   UNL     1       2.665  -0.537   2.611  0.00  0.00    +0.036 A 
ATOM      6  C   UNL     1       3.603   0.308   3.188  0.00  0.00    +0.045 A 
ATOM      7  C   UNL     1       4.240  -0.062   4.357  0.00  0.00    +0.065 A 
ATOM      8  C   UNL     1       3.944  -1.281   4.954  0.00  0.00    +0.062 A 
ATOM      9  C   UNL     1       3.006  -2.127   4.375  0.00  0.00    +0.065 A 
ATOM     10  C   UNL     1       2.364  -1.753   3.210  0.00  0.00    +0.045 A 
ATOM     11 CL   UNL     1       2.634  -3.651   5.120  0.00  0.00    -0.082 Cl
ATOM     12 CL   UNL     1       5.413   0.995   5.079  0.00  0.00    -0.082 Cl
BRANCH   8  13
ATOM     13  N   UNL     1       4.590  -1.657   6.138  0.00  0.00    -0.356 N 
ATOM     14  H   UNL     1       5.245  -1.067   6.541  0.00  0.00    +0.142 HD
ATOM     15  H   UNL     1       4.383  -2.508   6.554  0.00  0.00    +0.142 HD
ENDBRANCH   8  13
ENDBRANCH   3   5
BRANCH   1  17
ATOM     16  C   UNL     1      -0.013   1.521  -0.004  0.00  0.00    +0.038 C 
ATOM     17  C   UNL     1       0.004  -0.009  -0.002  0.00  0.00    +0.156 C 
BRANCH  17  18
ATOM     18  N   UNL     1      -1.371  -0.513   0.011  0.00  0.00    -0.304 N 
ATOM     19  C   UNL     1      -2.049  -0.651  -1.146  0.00  0.00    +0.217 C 
ATOM     20  O   UNL     1      -1.520  -0.358  -2.197  0.00  0.00    -0.275 OA
ATOM     21  H   UNL     1      -1.795  -0.747   0.852  0.00  0.00    +0.149 HD
BRANCH  19  22
ATOM     22  C   UNL     1      -3.464  -1.169  -1.134  0.00  0.00    +0.079 C 
ATOM     23  C   UNL     1      -3.489  -2.578  -0.531  0.00  0.00    +0.041 C 
ATOM     24  C   UNL     1      -4.916  -3.126  -0.595  0.00  0.00    +0.160 C 
ATOM     25  O   UNL     1      -5.365  -3.127  -1.952  0.00  0.00    -0.380 OA
ATOM     26  C   UNL     1      -5.408  -1.831  -2.552  0.00  0.00    +0.160 C 
ATOM     27  C   UNL     1      -4.000  -1.230  -2.567  0.00  0.00    +0.041 C 
ENDBRANCH  19  22
ENDBRANCH  17  18
ENDBRANCH   1  17
TORSDOF 5
