REMARK  Name = ZINC36799852
REMARK  5 active torsions:
REMARK  status: ('A' for Active; 'I' for Inactive)
REMARK    1  A    between atoms: C_2  and  C_3
REMARK    2  A    between atoms: C_3  and  N_4
REMARK    3  A    between atoms: C_13  and  S_14
REMARK    4  A    between atoms: S_14  and  C_15
REMARK    5  A    between atoms: C_15  and  N_16
REMARK                            x       y       z     vdW  Elec       q    Type
REMARK                         _______ _______ _______ _____ _____    ______ ____
ROOT
ATOM      1  N   UNL     1      -1.134  -1.643  -1.167  0.00  0.00    -0.283 N 
ATOM      2  C   UNL     1      -1.516  -1.190  -2.376  0.00  0.00    +0.263 A 
ATOM      3  O   UNL     1      -1.930  -0.051  -2.506  0.00  0.00    -0.267 OA
ATOM      4  C   UNL     1      -1.429  -2.063  -3.506  0.00  0.00    +0.072 A 
ATOM      5  C   UNL     1      -1.777  -1.809  -4.893  0.00  0.00    +0.023 A 
ATOM      6  C   UNL     1      -1.613  -2.784  -5.799  0.00  0.00    +0.048 A 
ATOM      7  S   UNL     1      -0.969  -4.139  -4.837  0.00  0.00    -0.077 S 
ATOM      8  C   UNL     1      -0.938  -3.357  -3.245  0.00  0.00    +0.116 A 
ATOM      9  N   UNL     1      -0.577  -3.740  -2.026  0.00  0.00    -0.216 NA
ATOM     10  C   UNL     1      -0.662  -2.913  -1.004  0.00  0.00    +0.175 A 
ENDROOT
BRANCH   1  11
ATOM     11  C   UNL     1      -1.220  -0.753  -0.007  0.00  0.00    +0.154 C 
BRANCH  11  13
ATOM     12  C   UNL     1       0.057   1.319   0.184  0.00  0.00    +0.005 C 
ATOM     13  C   UNL     1       0.071   0.009   0.139  0.00  0.00    -0.013 C 
ENDBRANCH  11  13
ENDBRANCH   1  11
BRANCH  10  14
ATOM     14  S   UNL     1      -0.167  -3.457   0.598  0.00  0.00    -0.064 S 
BRANCH  14  15
ATOM     15  C   UNL     1       0.216  -5.215   0.365  0.00  0.00    +0.226 C 
BRANCH  15  16
ATOM     16  N   UNL     1      -1.031  -5.977   0.265  0.00  0.00    -0.200 N 
ATOM     17  C   UNL     1      -1.666  -6.385   1.389  0.00  0.00    +0.279 A 
ATOM     18  O   UNL     1      -1.223  -6.131   2.494  0.00  0.00    -0.265 OA
ATOM     19  C   UNL     1      -2.914  -7.146   1.222  0.00  0.00    +0.068 A 
ATOM     20  C   UNL     1      -3.641  -7.609   2.317  0.00  0.00    +0.015 A 
ATOM     21  C   UNL     1      -4.804  -8.318   2.110  0.00  0.00    +0.001 A 
ATOM     22  C   UNL     1      -5.255  -8.574   0.822  0.00  0.00    +0.002 A 
ATOM     23  C   UNL     1      -4.552  -8.126  -0.273  0.00  0.00    +0.030 A 
ATOM     24  C   UNL     1      -3.369  -7.404  -0.089  0.00  0.00    +0.100 A 
ATOM     25  N   UNL     1      -2.651  -6.947  -1.145  0.00  0.00    -0.131 NA
ATOM     26  N   UNL     1      -1.566  -6.278  -0.991  0.00  0.00    -0.061 NA
ENDBRANCH  15  16
ENDBRANCH  14  15
ENDBRANCH  10  14
TORSDOF 5
