REMARK  Name = ZINC63908294
REMARK  6 active torsions:
REMARK  status: ('A' for Active; 'I' for Inactive)
REMARK    1  A    between atoms: C_1  and  C_2
REMARK    2  A    between atoms: C_3  and  C_16
REMARK    3  A    between atoms: C_4  and  C_8
REMARK    4  A    between atoms: N_18  and  C_19
REMARK    5  A    between atoms: C_19  and  C_20
REMARK    6  A    between atoms: C_20  and  C_21
REMARK                            x       y       z     vdW  Elec       q    Type
REMARK                         _______ _______ _______ _____ _____    ______ ____
ROOT
ATOM      1  C   UNL     1      -2.229  -0.083  -0.238  0.00  0.00    +0.245 C 
ATOM      2  O   UNL     1      -2.322   1.131  -0.238  0.00  0.00    -0.270 OA
ATOM      3  N   UNL     1      -3.336  -0.844  -0.343  0.00  0.00    -0.311 N 
ATOM      4  H   UNL     1      -3.269  -1.809  -0.275  0.00  0.00    +0.149 HD
ENDROOT
BRANCH   1   7
ATOM      5  C   UNL     1       0.392   1.433  -0.158  0.00  0.00    +0.089 C 
ATOM      6  C   UNL     1       0.231  -0.063  -0.084  0.00  0.00    +0.132 C 
ATOM      7  C   UNL     1      -0.955  -0.695  -0.127  0.00  0.00    +0.078 C 
ATOM      8  C   UNL     1      -0.679  -2.184  -0.036  0.00  0.00    +0.165 C 
ATOM      9  N   UNL     1       0.771  -2.266  -0.345  0.00  0.00    -0.143 NA
ATOM     10  O   UNL     1       1.257  -0.927   0.027  0.00  0.00    -0.410 OA
ATOM     11  H   UNL     1       1.219  -2.982   0.206  0.00  0.00    +0.168 HD
BRANCH   8  12
ATOM     12  C   UNL     1      -1.491  -2.942  -1.055  0.00  0.00    +0.031 A 
ATOM     13  C   UNL     1      -1.170  -2.856  -2.399  0.00  0.00    +0.130 A 
ATOM     14  C   UNL     1      -1.916  -3.552  -3.334  0.00  0.00    +0.039 A 
ATOM     15  C   UNL     1      -2.982  -4.332  -2.926  0.00  0.00    +0.004 A 
ATOM     16  C   UNL     1      -3.303  -4.418  -1.584  0.00  0.00    +0.020 A 
ATOM     17  C   UNL     1      -2.554  -3.727  -0.648  0.00  0.00    +0.049 A 
ATOM     18 CL   UNL     1      -2.954  -3.841   1.038  0.00  0.00    -0.083 Cl
ATOM     19  F   UNL     1      -0.129  -2.093  -2.797  0.00  0.00    -0.205 F 
ENDBRANCH   8  12
ENDBRANCH   1   7
BRANCH   3  20
ATOM     20  C   UNL     1      -4.640  -0.214  -0.559  0.00  0.00    +0.109 C 
BRANCH  20  21
ATOM     21  C   UNL     1      -5.721  -1.294  -0.641  0.00  0.00    +0.052 C 
BRANCH  21  22
ATOM     22  C   UNL     1      -7.063  -0.646  -0.864  0.00  0.00    -0.040 C 
ATOM     23  C   UNL     1      -7.685  -0.451  -2.049  0.00  0.00    -0.001 A 
ATOM     24  C   UNL     1      -7.312  -0.770  -3.432  0.00  0.00    +0.010 A 
ATOM     25  C   UNL     1      -8.162  -0.443  -4.433  0.00  0.00    +0.001 A 
ATOM     26  C   UNL     1      -9.386   0.192  -4.182  0.00  0.00    +0.002 A 
ATOM     27  C   UNL     1      -9.798   0.518  -2.939  0.00  0.00    +0.026 A 
ATOM     28  C   UNL     1      -8.984   0.220  -1.811  0.00  0.00    +0.043 A 
ATOM     29  N   UNL     1      -9.157   0.431  -0.529  0.00  0.00    -0.380 N 
ATOM     30  C   UNL     1      -7.990  -0.088   0.193  0.00  0.00    +0.144 C 
ATOM     31  H   UNL     1      -9.930   0.856  -0.125  0.00  0.00    +0.160 HD
ENDBRANCH  21  22
ENDBRANCH  20  21
ENDBRANCH   3  20
TORSDOF 5
