REMARK  Name = ZINC38485156
REMARK  8 active torsions:
REMARK  status: ('A' for Active; 'I' for Inactive)
REMARK    1  A    between atoms: C_1  and  C_2
REMARK    2  A    between atoms: C_2  and  O_3
REMARK    3  A    between atoms: O_3  and  C_4
REMARK    4  A    between atoms: C_4  and  C_6
REMARK    5  A    between atoms: C_14  and  C_16
REMARK    6  A    between atoms: N_18  and  C_32
REMARK    7  A    between atoms: N_23  and  C_26
REMARK    8  A    between atoms: C_32  and  C_33
REMARK                            x       y       z     vdW  Elec       q    Type
REMARK                         _______ _______ _______ _____ _____    ______ ____
ROOT
ATOM      1  C   UNL     1       3.740  -8.613   3.371  0.00  0.00    +0.081 A 
ATOM      2  C   UNL     1       3.666  -9.974   3.422  0.00  0.00    +0.101 A 
ATOM      3  N   UNL     1       4.237 -10.685   4.426  0.00  0.00    -0.349 N 
ATOM      4  C   UNL     1       4.914 -10.120   5.443  0.00  0.00    +0.101 A 
ATOM      5  C   UNL     1       5.064  -8.759   5.515  0.00  0.00    +0.085 A 
ATOM      6  C   UNL     1       5.706  -7.819   6.429  0.00  0.00    +0.283 A 
ATOM      7  O   UNL     1       6.320  -8.090   7.448  0.00  0.00    -0.265 OA
ATOM      8  N   UNL     1       5.483  -6.588   5.919  0.00  0.00    -0.196 N 
ATOM      9  N   UNL     1       4.741  -6.678   4.739  0.00  0.00    -0.162 NA
ATOM     10  C   UNL     1       4.472  -7.919   4.449  0.00  0.00    +0.112 A 
ENDROOT
BRANCH   1  19
ATOM     11  C   UNL     1      -2.130  -8.234   1.683  0.00  0.00    +0.324 C 
ATOM     12  O   UNL     1      -2.785  -8.451   2.681  0.00  0.00    -0.263 OA
ATOM     13  N   UNL     1      -0.795  -8.415   1.701  0.00  0.00    -0.289 N 
ATOM     14  C   UNL     1       0.035  -7.969   0.573  0.00  0.00    +0.127 C 
ATOM     15  C   UNL     1       1.126  -7.033   1.107  0.00  0.00    +0.127 C 
ATOM     16  N   UNL     1       1.778  -7.679   2.255  0.00  0.00    -0.294 N 
ATOM     17  C   UNL     1       0.948  -8.125   3.383  0.00  0.00    +0.127 C 
ATOM     18  C   UNL     1      -0.142  -9.056   2.851  0.00  0.00    +0.127 C 
ATOM     19  C   UNL     1       3.114  -7.860   2.273  0.00  0.00    +0.250 C 
ATOM     20  O   UNL     1       3.802  -7.401   1.381  0.00  0.00    -0.270 OA
BRANCH  11  21
ATOM     21  C   UNL     1      -2.805  -7.767   0.434  0.00  0.00    +0.395 C 
ATOM     22  O   UNL     1      -2.171  -7.663  -0.594  0.00  0.00    -0.240 OA
BRANCH  21  23
ATOM     23  O   UNL     1      -4.115  -7.461   0.451  0.00  0.00    -0.458 OA
BRANCH  23  25
ATOM     24  C   UNL     1      -6.179  -6.722  -0.565  0.00  0.00    +0.048 C 
ATOM     25  C   UNL     1      -4.694  -7.021  -0.779  0.00  0.00    +0.229 C 
ENDBRANCH  23  25
ENDBRANCH  21  23
ENDBRANCH  11  21
ENDBRANCH   1  19
BRANCH   8  26
ATOM     26  C   UNL     1       5.931  -5.392   6.492  0.00  0.00    +0.069 A 
ATOM     27  C   UNL     1       6.791  -5.422   7.583  0.00  0.00    +0.028 A 
ATOM     28  C   UNL     1       7.232  -4.241   8.146  0.00  0.00    +0.002 A 
ATOM     29  C   UNL     1       6.819  -3.028   7.625  0.00  0.00    +0.000 A 
ATOM     30  C   UNL     1       5.963  -2.995   6.539  0.00  0.00    +0.002 A 
ATOM     31  C   UNL     1       5.523  -4.173   5.968  0.00  0.00    +0.028 A 
ENDBRANCH   8  26
BRANCH   3  32
ATOM     32  C   UNL     1       4.110 -12.144   4.403  0.00  0.00    +0.152 C 
BRANCH  32  33
ATOM     33  C   UNL     1       5.287 -12.746   3.633  0.00  0.00    +0.138 C 
ATOM     34  C   UNL     1       5.153 -14.289   3.567  0.00  0.00    +0.035 C 
ATOM     35  C   UNL     1       5.981 -14.602   2.291  0.00  0.00    +0.031 C 
ATOM     36  C   UNL     1       5.696 -13.370   1.405  0.00  0.00    +0.160 C 
ATOM     37  O   UNL     1       5.266 -12.307   2.266  0.00  0.00    -0.375 OA
ENDBRANCH  32  33
ENDBRANCH   3  32
TORSDOF 7
