REMARK  Name = ZINC36492628
REMARK  8 active torsions:
REMARK  status: ('A' for Active; 'I' for Inactive)
REMARK    1  A    between atoms: C_1  and  C_2
REMARK    2  A    between atoms: C_7  and  C_8
REMARK    3  A    between atoms: C_8  and  C_10
REMARK    4  A    between atoms: C_8  and  N_19
REMARK    5  A    between atoms: N_12  and  C_13
REMARK    6  A    between atoms: N_19  and  C_20
REMARK    7  A    between atoms: C_26  and  C_28
REMARK    8  A    between atoms: C_31  and  N_34
REMARK                            x       y       z     vdW  Elec       q    Type
REMARK                         _______ _______ _______ _____ _____    ______ ____
ROOT
ATOM      1  C   UNL     1      -0.251   0.259   3.238  0.00  0.00    +0.193 C 
ENDROOT
BRANCH   1   8
ATOM      2  C   UNL     1       0.560  -1.985   1.609  0.00  0.00    +0.044 C 
ATOM      3  C   UNL     1      -0.871  -1.865   2.069  0.00  0.00    -0.045 A 
ATOM      4  C   UNL     1      -1.793  -2.832   1.716  0.00  0.00    +0.004 A 
ATOM      5  C   UNL     1      -3.105  -2.723   2.137  0.00  0.00    +0.000 A 
ATOM      6  C   UNL     1      -3.494  -1.646   2.912  0.00  0.00    +0.000 A 
ATOM      7  C   UNL     1      -2.572  -0.680   3.266  0.00  0.00    +0.006 A 
ATOM      8  C   UNL     1      -1.258  -0.792   2.848  0.00  0.00    -0.015 A 
ENDBRANCH   1   8
BRANCH   1   9
ATOM      9  C   UNL     1      -0.957   1.402   3.921  0.00  0.00    +0.238 C 
ATOM     10  O   UNL     1      -0.627   1.738   5.039  0.00  0.00    -0.273 OA
ATOM     11  N   UNL     1      -1.955   2.052   3.290  0.00  0.00    -0.311 N 
ATOM     12  H   UNL     1      -2.269   1.737   2.428  0.00  0.00    +0.149 HD
BRANCH  11  13
ATOM     13  C   UNL     1      -2.564   3.233   3.905  0.00  0.00    +0.073 C 
ATOM     14  C   UNL     1      -3.662   2.793   4.876  0.00  0.00    +0.022 C 
ATOM     15  C   UNL     1      -4.299   4.027   5.519  0.00  0.00    +0.002 C 
ATOM     16  C   UNL     1      -4.906   4.914   4.429  0.00  0.00    +0.000 C 
ATOM     17  C   UNL     1      -3.808   5.354   3.459  0.00  0.00    +0.002 C 
ATOM     18  C   UNL     1      -3.171   4.120   2.816  0.00  0.00    +0.022 C 
ENDBRANCH  11  13
ENDBRANCH   1   9
BRANCH   1  19
ATOM     19  N   UNL     1       0.733  -0.324   4.154  0.00  0.00    -0.279 N 
ATOM     20  C   UNL     1       2.041  -0.323   3.827  0.00  0.00    +0.248 C 
ATOM     21  O   UNL     1       2.416   0.254   2.825  0.00  0.00    -0.270 OA
BRANCH  19  22
ATOM     22  C   UNL     1       0.296  -0.908   5.424  0.00  0.00    +0.077 C 
ATOM     23  C   UNL     1      -1.221  -1.107   5.399  0.00  0.00    +0.022 C 
ATOM     24  C   UNL     1      -1.678  -1.717   6.726  0.00  0.00    +0.002 C 
ATOM     25  C   UNL     1      -1.306  -0.777   7.874  0.00  0.00    +0.000 C 
ATOM     26  C   UNL     1       0.211  -0.578   7.899  0.00  0.00    +0.002 C 
ATOM     27  C   UNL     1       0.667   0.032   6.572  0.00  0.00    +0.022 C 
ENDBRANCH  19  22
BRANCH  20  28
ATOM     28  C   UNL     1       3.018  -1.024   4.687  0.00  0.00    +0.037 A 
ATOM     29  C   UNL     1       2.840  -2.373   4.995  0.00  0.00    +0.015 A 
ATOM     30  C   UNL     1       3.756  -3.021   5.798  0.00  0.00    +0.033 A 
ATOM     31  C   UNL     1       4.849  -2.336   6.298  0.00  0.00    +0.126 A 
ATOM     32  C   UNL     1       5.031  -0.998   5.997  0.00  0.00    +0.033 A 
ATOM     33  C   UNL     1       4.126  -0.340   5.190  0.00  0.00    +0.015 A 
BRANCH  31  34
ATOM     34  N   UNL     1       5.827  -3.037   7.159  0.00  0.00    +0.056 N 
ATOM     35  O   UNL     1       5.670  -4.206   7.424  0.00  0.00    -0.126 OA
ATOM     36  O   UNL     1       6.783  -2.441   7.597  0.00  0.00    -0.126 OA
ENDBRANCH  31  34
ENDBRANCH  20  28
ENDBRANCH   1  19
TORSDOF 7
