REMARK  Name = ZINC15224340
REMARK  11 active torsions:
REMARK  status: ('A' for Active; 'I' for Inactive)
REMARK    1  A    between atoms: C_1  and  C_2
REMARK    2  A    between atoms: C_2  and  O_3
REMARK    3  A    between atoms: O_3  and  C_4
REMARK    4  A    between atoms: C_4  and  C_6
REMARK    5  A    between atoms: C_7  and  C_35
REMARK    6  A    between atoms: C_8  and  C_34
REMARK    7  A    between atoms: C_10  and  N_11
REMARK    8  A    between atoms: N_11  and  C_12
REMARK    9  A    between atoms: C_12  and  N_14
REMARK   10  A    between atoms: C_15  and  C_17
REMARK   11  A    between atoms: C_17  and  N_18
REMARK                            x       y       z     vdW  Elec       q    Type
REMARK                         _______ _______ _______ _____ _____    ______ ____
ROOT
ATOM      1  N   UNL     1       5.918  -2.549   0.546  0.00  0.00    -0.266 N 
ATOM      2  C   UNL     1       7.220  -2.861   0.702  0.00  0.00    +0.236 C 
ATOM      3  O   UNL     1       7.611  -3.318   1.754  0.00  0.00    -0.274 OA
ATOM      4  H   UNL     1       5.604  -2.183  -0.296  0.00  0.00    +0.157 HD
ENDROOT
BRANCH   1   5
ATOM      5  C   UNL     1       5.052  -2.744   1.560  0.00  0.00    +0.141 C 
ATOM      6  S   UNL     1       5.605  -3.389   3.046  0.00  0.00    -0.018 S 
BRANCH   5   7
ATOM      7  N   UNL     1       3.750  -2.431   1.404  0.00  0.00    -0.290 N 
ATOM      8  H   UNL     1       3.436  -2.066   0.562  0.00  0.00    +0.154 HD
BRANCH   7  13
ATOM      9  C   UNL     1       1.496  -2.371   2.466  0.00  0.00    +0.091 A 
ATOM     10  C   UNL     1       0.798  -2.683   3.693  0.00  0.00    -0.025 A 
ATOM     11  C   UNL     1       1.552  -3.189   4.685  0.00  0.00    -0.008 A 
ATOM     12  S   UNL     1       3.182  -3.244   3.975  0.00  0.00    -0.078 S 
ATOM     13  C   UNL     1       2.860  -2.632   2.446  0.00  0.00    +0.086 A 
ATOM     14  C   UNL     1       1.120  -3.608   6.067  0.00  0.00    +0.052 C 
ATOM     15  C   UNL     1      -0.684  -2.455   3.851  0.00  0.00    +0.045 C 
BRANCH   9  16
ATOM     16  C   UNL     1       0.801  -1.814   1.305  0.00  0.00    +0.342 C 
ATOM     17  O   UNL     1       0.321  -2.557   0.470  0.00  0.00    -0.245 OA
BRANCH  16  18
ATOM     18  O   UNL     1       0.693  -0.477   1.160  0.00  0.00    -0.461 OA
BRANCH  18  20
ATOM     19  C   UNL     1      -0.019   1.526   0.010  0.00  0.00    +0.048 C 
ATOM     20  C   UNL     1       0.002  -0.004   0.002  0.00  0.00    +0.229 C 
ENDBRANCH  18  20
ENDBRANCH  16  18
ENDBRANCH   9  16
ENDBRANCH   7  13
ENDBRANCH   5   7
ENDBRANCH   1   5
BRANCH   2  21
ATOM     21  C   UNL     1       8.188  -2.643  -0.432  0.00  0.00    +0.212 C 
BRANCH  21  22
ATOM     22  N   UNL     1       9.530  -3.058  -0.015  0.00  0.00    -0.233 N 
ATOM     23  C   UNL     1      10.435  -2.218   0.589  0.00  0.00    +0.227 C 
ATOM     24  O   UNL     1      10.216  -1.154   1.127  0.00  0.00    -0.275 OA
ATOM     25  C   UNL     1      11.759  -2.915   0.435  0.00  0.00    +0.095 C 
ATOM     26  C   UNL     1      12.820  -2.916   1.540  0.00  0.00    +0.025 C 
ATOM     27  C   UNL     1      13.558  -4.237   1.027  0.00  0.00    +0.016 C 
ATOM     28  C   UNL     1      12.289  -5.153   1.276  0.00  0.00    +0.025 C 
ATOM     29  C   UNL     1      11.144  -4.346   0.724  0.00  0.00    +0.095 C 
ATOM     30  C   UNL     1      10.025  -4.341  -0.180  0.00  0.00    +0.227 C 
ATOM     31  O   UNL     1       9.622  -5.230  -0.899  0.00  0.00    -0.275 OA
ATOM     32  C   UNL     1      12.091  -4.780   2.780  0.00  0.00    -0.027 C 
ATOM     33  C   UNL     1      12.320  -3.462   2.863  0.00  0.00    -0.027 C 
ENDBRANCH  21  22
ENDBRANCH   2  21
TORSDOF 8
