REMARK  Name = ZINC04251541
REMARK  10 active torsions:
REMARK  status: ('A' for Active; 'I' for Inactive)
REMARK    1  A    between atoms: C_1  and  C_2
REMARK    2  A    between atoms: C_2  and  O_3
REMARK    3  A    between atoms: O_3  and  C_4
REMARK    4  A    between atoms: C_7  and  C_10
REMARK    5  A    between atoms: C_10  and  O_12
REMARK    6  A    between atoms: O_12  and  C_13
REMARK    7  A    between atoms: C_15  and  N_28
REMARK    8  A    between atoms: N_16  and  S_18
REMARK    9  A    between atoms: S_18  and  C_21
REMARK   10  A    between atoms: C_24  and  C_27
REMARK                            x       y       z     vdW  Elec       q    Type
REMARK                         _______ _______ _______ _____ _____    ______ ____
ROOT
ATOM      1  C   UNL     1      -3.408   2.115   0.030  0.00  0.00    +0.246 A 
ATOM      2  C   UNL     1      -2.464   1.080   0.020  0.00  0.00    +0.114 A 
ATOM      3  C   UNL     1      -1.226   1.645   0.017  0.00  0.00    +0.143 A 
ATOM      4  N   UNL     1      -1.391   2.993   0.030  0.00  0.00    -0.112 N 
ATOM      5  N   UNL     1      -2.767   3.259   0.033  0.00  0.00    -0.110 NA
ENDROOT
BRANCH   4   6
ATOM      6  S   UNL     1      -0.181   4.123   0.040  0.00  0.00    +0.101 S 
ATOM      7  O   UNL     1      -0.733   5.305   0.603  0.00  0.00    -0.146 OA
ATOM      8  O   UNL     1       0.967   3.485   0.582  0.00  0.00    -0.146 OA
BRANCH   6   9
ATOM      9  C   UNL     1       0.197   4.495  -1.641  0.00  0.00    +0.113 A 
ATOM     10  C   UNL     1       1.166   3.770  -2.308  0.00  0.00    +0.029 A 
ATOM     11  C   UNL     1       1.460   4.060  -3.628  0.00  0.00    +0.005 A 
ATOM     12  C   UNL     1       0.790   5.080  -4.277  0.00  0.00    -0.050 A 
ATOM     13  C   UNL     1      -0.175   5.808  -3.608  0.00  0.00    +0.005 A 
ATOM     14  C   UNL     1      -0.472   5.516  -2.290  0.00  0.00    +0.029 A 
ATOM     15  C   UNL     1       1.113   5.398  -5.714  0.00  0.00    +0.044 C 
ENDBRANCH   6   9
ENDBRANCH   4   6
BRANCH   3  16
ATOM     16  N   UNL     1      -0.011   0.966   0.007  0.00  0.00    -0.342 N 
ATOM     17  H   UNL     1       0.002  -0.004   0.002  0.00  0.00    +0.144 HD
ATOM     18  H   UNL     1       0.822   1.462   0.002  0.00  0.00    +0.144 HD
ENDBRANCH   3  16
BRANCH   1  19
ATOM     19  O   UNL     1      -4.759   1.961   0.035  0.00  0.00    -0.402 OA
BRANCH  19  20
ATOM     20  C   UNL     1      -5.504   3.084   0.045  0.00  0.00    +0.346 C 
ATOM     21  O   UNL     1      -4.962   4.172   0.048  0.00  0.00    -0.244 OA
BRANCH  20  25
ATOM     22  C   UNL     1      -9.741   2.822   0.062  0.00  0.00    +0.121 A 
ATOM     23  C   UNL     1      -9.123   4.068   0.067  0.00  0.00    +0.046 A 
ATOM     24  C   UNL     1      -7.750   4.157   0.061  0.00  0.00    +0.018 A 
ATOM     25  C   UNL     1      -6.975   2.993   0.051  0.00  0.00    +0.060 A 
ATOM     26  C   UNL     1      -7.601   1.743   0.042  0.00  0.00    +0.018 A 
ATOM     27  C   UNL     1      -8.975   1.663   0.053  0.00  0.00    +0.046 A 
BRANCH  22  28
ATOM     28  O   UNL     1     -11.095   2.739   0.067  0.00  0.00    -0.492 OA
BRANCH  28  30
ATOM     29  C   UNL     1     -13.191   1.535   0.068  0.00  0.00    +0.048 C 
ATOM     30  C   UNL     1     -11.665   1.428   0.062  0.00  0.00    +0.225 C 
ENDBRANCH  28  30
ENDBRANCH  22  28
ENDBRANCH  20  25
ENDBRANCH  19  20
ENDBRANCH   1  19
TORSDOF 8
