REMARK  Name = ZINC38931051
REMARK  10 active torsions:
REMARK  status: ('A' for Active; 'I' for Inactive)
REMARK    1  A    between atoms: C_1  and  C_2
REMARK    2  A    between atoms: C_2  and  O_3
REMARK    3  A    between atoms: O_3  and  C_4
REMARK    4  A    between atoms: C_4  and  C_6
REMARK    5  A    between atoms: N_14  and  C_15
REMARK    6  A    between atoms: C_15  and  C_17
REMARK    7  A    between atoms: N_27  and  C_28
REMARK    8  A    between atoms: C_28  and  C_29
REMARK    9  A    between atoms: C_29  and  O_31
REMARK   10  A    between atoms: O_31  and  C_32
REMARK                            x       y       z     vdW  Elec       q    Type
REMARK                         _______ _______ _______ _____ _____    ______ ____
ROOT
ATOM      1  C   UNL     1       1.454  -2.347  -2.525  0.00  0.00    +0.060 A 
ATOM      2  C   UNL     1       1.997  -1.493  -3.491  0.00  0.00    +0.017 A 
ATOM      3  C   UNL     1       2.625  -1.984  -4.592  0.00  0.00    +0.028 A 
ATOM      4  C   UNL     1       2.752  -3.371  -4.803  0.00  0.00    +0.058 A 
ATOM      5  C   UNL     1       2.200  -4.212  -3.822  0.00  0.00    +0.040 A 
ATOM      6  C   UNL     1       1.570  -3.730  -2.704  0.00  0.00    +0.032 A 
ATOM      7  S   UNL     1       2.555  -5.842  -4.431  0.00  0.00    -0.052 S 
ATOM      8  C   UNL     1       3.402  -5.365  -5.929  0.00  0.00    +0.167 A 
ATOM      9  N   UNL     1       3.937  -6.139  -6.865  0.00  0.00    -0.152 NA
ATOM     10  N   UNL     1       3.360  -4.003  -5.868  0.00  0.00    -0.310 N 
ENDROOT
BRANCH   1  11
ATOM     11  C   UNL     1       0.776  -1.799  -1.335  0.00  0.00    +0.339 C 
ATOM     12  O   UNL     1       0.312  -2.550  -0.500  0.00  0.00    -0.245 OA
BRANCH  11  13
ATOM     13  O   UNL     1       0.671  -0.465  -1.174  0.00  0.00    -0.461 OA
BRANCH  13  15
ATOM     14  C   UNL     1      -0.019   1.526   0.010  0.00  0.00    +0.048 C 
ATOM     15  C   UNL     1       0.002  -0.004   0.002  0.00  0.00    +0.229 C 
ENDBRANCH  13  15
ENDBRANCH  11  13
ENDBRANCH   1  11
BRANCH   9  16
ATOM     16  C   UNL     1       3.877  -7.473  -6.746  0.00  0.00    +0.271 C 
ATOM     17  O   UNL     1       3.331  -7.975  -5.778  0.00  0.00    -0.268 OA
BRANCH  16  18
ATOM     18  C   UNL     1       4.471  -8.332  -7.785  0.00  0.00    +0.064 A 
ATOM     19  C   UNL     1       5.115  -7.921  -8.912  0.00  0.00    +0.096 A 
ATOM     20  N   UNL     1       5.524  -9.000  -9.626  0.00  0.00    -0.360 N 
ATOM     21  H   UNL     1       6.005  -8.957 -10.468  0.00  0.00    +0.165 HD
ATOM     22  C   UNL     1       5.159 -10.166  -8.986  0.00  0.00    +0.047 A 
ATOM     23  C   UNL     1       4.491  -9.806  -7.805  0.00  0.00    +0.012 A 
ATOM     24  C   UNL     1       4.009 -10.791  -6.947  0.00  0.00    +0.011 A 
ATOM     25  C   UNL     1       4.194 -12.120  -7.262  0.00  0.00    +0.001 A 
ATOM     26  C   UNL     1       4.858 -12.477  -8.426  0.00  0.00    +0.002 A 
ATOM     27  C   UNL     1       5.333 -11.512  -9.288  0.00  0.00    +0.026 A 
ENDBRANCH  16  18
ENDBRANCH   9  16
BRANCH  10  28
ATOM     28  C   UNL     1       3.963  -3.207  -6.939  0.00  0.00    +0.244 C 
BRANCH  28  29
ATOM     29  C   UNL     1       5.406  -2.927  -6.606  0.00  0.00    +0.327 C 
ATOM     30  O   UNL     1       5.881  -3.349  -5.578  0.00  0.00    -0.249 OA
BRANCH  29  31
ATOM     31  O   UNL     1       6.163  -2.209  -7.450  0.00  0.00    -0.467 OA
ATOM     32  C   UNL     1       7.522  -1.982  -7.070  0.00  0.00    +0.280 C 
ENDBRANCH  29  31
ENDBRANCH  28  29
ENDBRANCH  10  28
TORSDOF 8
