REMARK  Name = ZINC44840311
REMARK  9 active torsions:
REMARK  status: ('A' for Active; 'I' for Inactive)
REMARK    1  A    between atoms: C_1  and  C_2
REMARK    2  A    between atoms: N_6  and  C_7
REMARK    3  A    between atoms: C_12  and  C_13
REMARK    4  A    between atoms: C_13  and  N_14
REMARK    5  A    between atoms: C_15  and  C_17
REMARK    6  A    between atoms: C_17  and  N_18
REMARK    7  A    between atoms: N_18  and  C_19
REMARK    8  A    between atoms: N_18  and  S_26
REMARK    9  A    between atoms: S_26  and  C_29
REMARK                            x       y       z     vdW  Elec       q    Type
REMARK                         _______ _______ _______ _____ _____    ______ ____
ROOT
ATOM      1  N   UNL     1      -3.010  -0.515   1.736  0.00  0.00    -0.310 N 
ATOM      2  C   UNL     1      -4.165  -0.564   1.044  0.00  0.00    +0.232 C 
ATOM      3  O   UNL     1      -4.486   0.364   0.333  0.00  0.00    -0.274 OA
ATOM      4  H   UNL     1      -2.753  -1.258   2.305  0.00  0.00    +0.149 HD
ENDROOT
BRANCH   1   5
ATOM      5  C   UNL     1      -2.141   0.660   1.629  0.00  0.00    +0.141 C 
BRANCH   5  11
ATOM      6  C   UNL     1       0.133  -0.314   2.043  0.00  0.00    +0.052 A 
ATOM      7  C   UNL     1       1.256  -0.487   2.841  0.00  0.00    +0.026 A 
ATOM      8  C   UNL     1       1.316   0.111   4.085  0.00  0.00    +0.002 A 
ATOM      9  C   UNL     1       0.260   0.881   4.535  0.00  0.00    +0.000 A 
ATOM     10  C   UNL     1      -0.859   1.056   3.742  0.00  0.00    +0.007 A 
ATOM     11  C   UNL     1      -0.923   0.465   2.495  0.00  0.00    -0.006 A 
BRANCH   6  17
ATOM     12  C   UNL     1       0.050   1.210  -0.625  0.00  0.00    +0.084 C 
ATOM     13  C   UNL     1       0.031  -0.283  -0.420  0.00  0.00    +0.088 A 
ATOM     14  N   UNL     1      -0.020  -1.182  -1.365  0.00  0.00    -0.350 N 
ATOM     15  C   UNL     1      -0.022  -2.405  -0.816  0.00  0.00    +0.102 A 
ATOM     16  C   UNL     1       0.029  -2.266   0.522  0.00  0.00    +0.110 A 
ATOM     17  N   UNL     1       0.069  -0.920   0.780  0.00  0.00    -0.305 N 
ATOM     18  H   UNL     1      -0.051  -0.994  -2.316  0.00  0.00    +0.166 HD
ENDBRANCH   6  17
ENDBRANCH   5  11
ENDBRANCH   1   5
BRANCH   2  19
ATOM     19  C   UNL     1      -5.058  -1.773   1.154  0.00  0.00    +0.226 C 
BRANCH  19  20
ATOM     20  N   UNL     1      -6.306  -1.526   0.427  0.00  0.00    -0.198 N 
BRANCH  20  21
ATOM     21  C   UNL     1      -7.368  -0.877   1.063  0.00  0.00    +0.065 A 
ATOM     22  C   UNL     1      -7.439   0.510   1.060  0.00  0.00    +0.026 A 
ATOM     23  C   UNL     1      -8.490   1.148   1.689  0.00  0.00    +0.002 A 
ATOM     24  C   UNL     1      -9.472   0.407   2.321  0.00  0.00    +0.001 A 
ATOM     25  C   UNL     1      -9.406  -0.974   2.326  0.00  0.00    +0.017 A 
ATOM     26  C   UNL     1      -8.359  -1.619   1.694  0.00  0.00    +0.040 A 
ATOM     27 BR   UNL     1      -8.273  -3.508   1.695  0.00  0.00    -0.048 Br
ENDBRANCH  20  21
BRANCH  20  28
ATOM     28  S   UNL     1      -6.458  -2.015  -1.148  0.00  0.00    +0.043 S 
ATOM     29  O   UNL     1      -7.355  -1.081  -1.733  0.00  0.00    -0.155 OA
ATOM     30  O   UNL     1      -5.123  -2.132  -1.621  0.00  0.00    -0.155 OA
ATOM     31  C   UNL     1      -7.233  -3.652  -1.055  0.00  0.00    +0.218 C 
ENDBRANCH  20  28
ENDBRANCH  19  20
ENDBRANCH   2  19
TORSDOF 7
