REMARK  Name = ZINC59459432
REMARK  8 active torsions:
REMARK  status: ('A' for Active; 'I' for Inactive)
REMARK    1  A    between atoms: C_1  and  C_2
REMARK    2  A    between atoms: C_5  and  C_26
REMARK    3  A    between atoms: C_6  and  N_8
REMARK    4  A    between atoms: C_14  and  C_15
REMARK    5  A    between atoms: C_18  and  C_21
REMARK    6  A    between atoms: C_21  and  C_22
REMARK    7  A    between atoms: C_21  and  C_23
REMARK    8  A    between atoms: C_21  and  C_24
REMARK                            x       y       z     vdW  Elec       q    Type
REMARK                         _______ _______ _______ _____ _____    ______ ____
ROOT
ATOM      1  N   UNL     1      -1.242  -2.841   2.729  0.00  0.00    -0.225 NA
ATOM      2  C   UNL     1      -0.821  -2.182   3.785  0.00  0.00    +0.166 C 
ATOM      3  N   UNL     1      -0.478  -2.677   5.024  0.00  0.00    -0.260 N 
ATOM      4  C   UNL     1      -0.070  -1.866   5.985  0.00  0.00    +0.256 C 
ATOM      5  O   UNL     1       0.237  -2.286   7.085  0.00  0.00    -0.269 OA
ATOM      6  C   UNL     1      -0.002  -0.426   5.661  0.00  0.00    +0.078 C 
ATOM      7  C   UNL     1       0.377   0.615   6.444  0.00  0.00    +0.028 C 
ATOM      8  S   UNL     1      -0.546  -0.426   3.959  0.00  0.00    -0.049 S 
ATOM      9  H   UNL     1      -0.538  -3.630   5.193  0.00  0.00    +0.157 HD
ENDROOT
BRANCH   1  15
ATOM     10  C   UNL     1      -3.782   0.830   0.721  0.00  0.00    +0.044 C 
ATOM     11  C   UNL     1      -2.878  -0.369   0.597  0.00  0.00    -0.048 A 
ATOM     12  C   UNL     1      -2.449  -0.784  -0.652  0.00  0.00    +0.004 A 
ATOM     13  C   UNL     1      -1.619  -1.883  -0.775  0.00  0.00    +0.006 A 
ATOM     14  C   UNL     1      -1.212  -2.574   0.348  0.00  0.00    -0.025 A 
ATOM     15  C   UNL     1      -1.641  -2.161   1.611  0.00  0.00    +0.070 A 
ATOM     16  C   UNL     1      -2.475  -1.047   1.728  0.00  0.00    +0.031 A 
ATOM     17  C   UNL     1      -0.308  -3.772   0.212  0.00  0.00    +0.046 C 
ENDBRANCH   1  15
BRANCH   7  18
ATOM     18  C   UNL     1       0.194   1.995   5.970  0.00  0.00    -0.024 A 
ATOM     19  C   UNL     1      -0.540   2.248   4.806  0.00  0.00    +0.008 A 
ATOM     20  C   UNL     1      -0.706   3.544   4.368  0.00  0.00    +0.005 A 
ATOM     21  C   UNL     1      -0.150   4.595   5.078  0.00  0.00    -0.042 A 
ATOM     22  C   UNL     1       0.578   4.353   6.230  0.00  0.00    +0.005 A 
ATOM     23  C   UNL     1       0.748   3.063   6.684  0.00  0.00    +0.008 A 
BRANCH  21  24
ATOM     24  C   UNL     1      -0.337   6.009   4.592  0.00  0.00    -0.013 C 
ATOM     25  C   UNL     1      -1.830   6.340   4.548  0.00  0.00    +0.015 C 
ATOM     26  C   UNL     1       0.371   6.974   5.546  0.00  0.00    +0.015 C 
ATOM     27  C   UNL     1       0.259   6.150   3.190  0.00  0.00    +0.015 C 
ENDBRANCH  21  24
ENDBRANCH   7  18
TORSDOF 3
