REMARK  Name = ZINC23990040
REMARK  9 active torsions:
REMARK  status: ('A' for Active; 'I' for Inactive)
REMARK    1  A    between atoms: C_1  and  C_2
REMARK    2  A    between atoms: C_2  and  C_3
REMARK    3  A    between atoms: C_3  and  C_4
REMARK    4  A    between atoms: C_4  and  N_5
REMARK    5  A    between atoms: C_9  and  S_31
REMARK    6  A    between atoms: C_13  and  C_14
REMARK    7  A    between atoms: C_14  and  N_15
REMARK    8  A    between atoms: C_19  and  C_22
REMARK    9  A    between atoms: S_31  and  N_34
REMARK                            x       y       z     vdW  Elec       q    Type
REMARK                         _______ _______ _______ _____ _____    ______ ____
ROOT
ATOM      1  N   UNL     1      -2.807  11.686   3.176  0.00  0.00    -0.326 N 
ATOM      2  C   UNL     1      -2.959  13.052   3.046  0.00  0.00    +0.069 A 
ATOM      3  C   UNL     1      -3.951  13.953   3.409  0.00  0.00    +0.030 A 
ATOM      4  C   UNL     1      -3.793  15.293   3.126  0.00  0.00    +0.030 A 
ATOM      5  C   UNL     1      -2.649  15.746   2.483  0.00  0.00    +0.107 A 
ATOM      6  C   UNL     1      -1.663  14.874   2.120  0.00  0.00    +0.058 A 
ATOM      7  C   UNL     1      -1.802  13.511   2.395  0.00  0.00    +0.091 A 
ATOM      8  N   UNL     1      -1.018  12.425   2.171  0.00  0.00    -0.231 NA
ATOM      9  C   UNL     1      -1.608  11.358   2.624  0.00  0.00    +0.125 A 
ENDROOT
BRANCH   5  10
ATOM     10  S   UNL     1      -2.468  17.463   2.133  0.00  0.00    +0.056 S 
ATOM     11  O   UNL     1      -1.563  17.562   1.041  0.00  0.00    -0.153 OA
ATOM     12  O   UNL     1      -3.779  18.009   2.087  0.00  0.00    -0.153 OA
BRANCH  10  13
ATOM     13  N   UNL     1      -1.714  18.152   3.436  0.00  0.00    -0.204 NA
ATOM     14  H   UNL     1      -1.581  19.229   3.256  0.00  0.00    +0.144 HD
ATOM     15  H   UNL     1      -0.730  17.681   3.582  0.00  0.00    +0.144 HD
ENDBRANCH  10  13
ENDBRANCH   5  10
BRANCH   1  16
ATOM     16  C   UNL     1      -3.760  10.761   3.795  0.00  0.00    +0.123 C 
BRANCH  16  17
ATOM     17  C   UNL     1      -3.450  10.633   5.288  0.00  0.00    +0.021 C 
BRANCH  17  19
ATOM     18  C   UNL     1      -4.135   9.539   7.427  0.00  0.00    +0.004 C 
ATOM     19  C   UNL     1      -4.445   9.667   5.935  0.00  0.00    -0.002 C 
ENDBRANCH  17  19
ENDBRANCH  16  17
ENDBRANCH   1  16
BRANCH   9  20
ATOM     20  C   UNL     1      -1.044   9.963   2.552  0.00  0.00    +0.158 C 
BRANCH  20  21
ATOM     21  N   UNL     1      -1.477   9.323   1.302  0.00  0.00    -0.295 NA
ATOM     22  C   UNL     1      -0.897  10.001   0.136  0.00  0.00    +0.085 C 
ATOM     23  C   UNL     1      -1.481   9.403  -1.146  0.00  0.00    +0.016 C 
ATOM     24  C   UNL     1      -1.167   7.905  -1.194  0.00  0.00    +0.013 C 
ATOM     25  C   UNL     1      -1.740   7.231   0.055  0.00  0.00    +0.059 C 
ATOM     26  C   UNL     1      -1.148   7.892   1.302  0.00  0.00    +0.095 C 
BRANCH  25  27
ATOM     27  C   UNL     1      -1.385   5.767   0.045  0.00  0.00    +0.084 A 
ATOM     28  N   UNL     1      -0.201   5.223   0.031  0.00  0.00    -0.244 NA
ATOM     29  C   UNL     1      -0.017   3.886   0.022  0.00  0.00    +0.078 A 
ATOM     30  C   UNL     1       1.190   3.152   0.007  0.00  0.00    +0.029 A 
ATOM     31  C   UNL     1       1.176   1.792   0.001  0.00  0.00    +0.002 A 
ATOM     32  C   UNL     1      -0.013   1.076   0.008  0.00  0.00    +0.001 A 
ATOM     33  C   UNL     1      -1.215   1.757   0.017  0.00  0.00    +0.017 A 
ATOM     34  C   UNL     1      -1.212   3.130   0.030  0.00  0.00    +0.039 A 
ATOM     35  S   UNL     1      -2.454   4.399   0.048  0.00  0.00    -0.072 S 
ENDBRANCH  25  27
ENDBRANCH  20  21
ENDBRANCH   9  20
TORSDOF 8
