REMARK  Name = ZINC59126769
REMARK  6 active torsions:
REMARK  status: ('A' for Active; 'I' for Inactive)
REMARK    1  A    between atoms: C_1  and  C_2
REMARK    2  A    between atoms: C_5  and  N_8
REMARK    3  A    between atoms: C_13  and  C_15
REMARK    4  A    between atoms: N_17  and  C_18
REMARK    5  A    between atoms: N_26  and  C_29
REMARK    6  A    between atoms: C_34  and  C_35
REMARK                            x       y       z     vdW  Elec       q    Type
REMARK                         _______ _______ _______ _____ _____    ______ ____
ROOT
ATOM      1  N   UNL     1       0.033  -4.178  -0.016  0.00  0.00    -0.236 N 
ATOM      2  C   UNL     1       0.149  -5.094   1.120  0.00  0.00    +0.217 C 
ATOM      3  C   UNL     1       0.869  -6.294   0.490  0.00  0.00    +0.073 C 
ATOM      4  H   UNL     1      -0.497  -4.849  -1.968  0.00  0.00    +0.170 HD
ATOM      5  C   UNL     1       0.595  -6.229  -0.820  0.00  0.00    +0.117 C 
ATOM      6  N   UNL     1      -0.055  -5.049  -1.128  0.00  0.00    -0.258 N 
ATOM      7  C   UNL     1       1.593  -6.829   1.640  0.00  0.00    +0.258 C 
ATOM      8  O   UNL     1       1.906  -7.992   1.814  0.00  0.00    -0.269 OA
ATOM      9  N   UNL     1       1.852  -5.799   2.477  0.00  0.00    -0.204 N 
ATOM     10  C   UNL     1       1.149  -4.670   2.167  0.00  0.00    +0.253 C 
ATOM     11  O   UNL     1       1.296  -3.558   2.627  0.00  0.00    -0.272 OA
ENDROOT
BRANCH   9  12
ATOM     12  C   UNL     1       2.740  -5.882   3.558  0.00  0.00    +0.049 A 
ATOM     13  C   UNL     1       4.080  -5.564   3.382  0.00  0.00    +0.024 A 
ATOM     14  C   UNL     1       4.954  -5.647   4.449  0.00  0.00    +0.003 A 
ATOM     15  C   UNL     1       4.495  -6.046   5.691  0.00  0.00    +0.020 A 
ATOM     16  C   UNL     1       3.160  -6.364   5.869  0.00  0.00    +0.046 A 
ATOM     17  C   UNL     1       2.280  -6.277   4.806  0.00  0.00    -0.010 A 
ATOM     18  C   UNL     1       0.825  -6.616   5.002  0.00  0.00    +0.047 C 
ATOM     19 CL   UNL     1       2.589  -6.866   7.430  0.00  0.00    -0.083 Cl
ENDBRANCH   9  12
BRANCH   1  24
ATOM     20  C   UNL     1      -0.068   1.492   0.030  0.00  0.00    +0.044 C 
ATOM     21  C   UNL     1      -0.041  -0.015   0.017  0.00  0.00    -0.050 A 
ATOM     22  C   UNL     1       0.576  -0.686  -1.022  0.00  0.00    +0.005 A 
ATOM     23  C   UNL     1       0.603  -2.066  -1.036  0.00  0.00    +0.025 A 
ATOM     24  C   UNL     1       0.008  -2.781  -0.004  0.00  0.00    +0.049 A 
ATOM     25  C   UNL     1      -0.611  -2.104   1.038  0.00  0.00    +0.025 A 
ATOM     26  C   UNL     1      -0.629  -0.724   1.049  0.00  0.00    +0.005 A 
ENDBRANCH   1  24
BRANCH   5  27
ATOM     27  C   UNL     1       0.938  -7.282  -1.806  0.00  0.00    +0.264 C 
ATOM     28  O   UNL     1       1.508  -8.292  -1.442  0.00  0.00    -0.268 OA
ATOM     29  N   UNL     1       0.618  -7.120  -3.105  0.00  0.00    -0.280 N 
ATOM     30  H   UNL     1       0.235  -6.283  -3.409  0.00  0.00    +0.155 HD
BRANCH  29  31
ATOM     31  C   UNL     1       0.838  -8.159  -4.013  0.00  0.00    +0.034 A 
ATOM     32  C   UNL     1       0.674  -9.480  -3.614  0.00  0.00    +0.023 A 
ATOM     33  C   UNL     1       0.892 -10.504  -4.514  0.00  0.00    +0.002 A 
ATOM     34  C   UNL     1       1.273 -10.216  -5.812  0.00  0.00    +0.000 A 
ATOM     35  C   UNL     1       1.436  -8.903  -6.213  0.00  0.00    +0.002 A 
ATOM     36  C   UNL     1       1.214  -7.874  -5.320  0.00  0.00    +0.023 A 
ENDBRANCH  29  31
ENDBRANCH   5  27
TORSDOF 4
