REMARK  Name = ZINC36602767
REMARK  14 active torsions:
REMARK  status: ('A' for Active; 'I' for Inactive)
REMARK    1  A    between atoms: C_1  and  C_2
REMARK    2  A    between atoms: C_2  and  C_3
REMARK    3  A    between atoms: C_3  and  C_4
REMARK    4  A    between atoms: C_4  and  N_5
REMARK    5  A    between atoms: C_6  and  C_8
REMARK    6  A    between atoms: C_8  and  C_10
REMARK    7  A    between atoms: C_8  and  N_19
REMARK    8  A    between atoms: C_11  and  O_18
REMARK    9  A    between atoms: C_13  and  O_17
REMARK   10  A    between atoms: C_15  and  O_16
REMARK   11  A    between atoms: N_19  and  C_20
REMARK   12  A    between atoms: C_20  and  C_21
REMARK   13  A    between atoms: C_24  and  C_26
REMARK   14  A    between atoms: C_27  and  C_29
REMARK                            x       y       z     vdW  Elec       q    Type
REMARK                         _______ _______ _______ _____ _____    ______ ____
ROOT
ATOM      1  C   UNL     1      -5.652  -5.780   0.857  0.00  0.00    +0.200 C 
ENDROOT
BRANCH   1   2
ATOM      2  C   UNL     1      -7.068  -6.032   0.405  0.00  0.00    +0.065 A 
ATOM      3  C   UNL     1      -7.782  -7.101   0.925  0.00  0.00    +0.129 A 
ATOM      4  C   UNL     1      -9.084  -7.333   0.509  0.00  0.00    +0.091 A 
ATOM      5  C   UNL     1      -9.673  -6.495  -0.427  0.00  0.00    +0.124 A 
ATOM      6  C   UNL     1      -8.959  -5.426  -0.947  0.00  0.00    +0.091 A 
ATOM      7  C   UNL     1      -7.658  -5.191  -0.527  0.00  0.00    +0.129 A 
BRANCH   7   8
ATOM      8  O   UNL     1      -6.960  -4.141  -1.033  0.00  0.00    -0.506 OA
ATOM      9  H   UNL     1      -6.458  -4.350  -1.832  0.00  0.00    +0.292 HD
ENDBRANCH   7   8
BRANCH   5  10
ATOM     10  O   UNL     1     -10.949  -6.723  -0.835  0.00  0.00    -0.507 OA
ATOM     11  H   UNL     1     -11.618  -6.273  -0.303  0.00  0.00    +0.292 HD
ENDBRANCH   5  10
BRANCH   3  12
ATOM     12  O   UNL     1      -7.205  -7.921   1.842  0.00  0.00    -0.506 OA
ATOM     13  H   UNL     1      -7.274  -7.603   2.753  0.00  0.00    +0.292 HD
ENDBRANCH   3  12
ENDBRANCH   1   2
BRANCH   1  15
ATOM     14  N   UNL     1      -5.547  -3.341   1.257  0.00  0.00    -0.313 N 
ATOM     15  C   UNL     1      -5.240  -4.385   0.462  0.00  0.00    +0.238 C 
ATOM     16  O   UNL     1      -4.632  -4.202  -0.571  0.00  0.00    -0.273 OA
ATOM     17  H   UNL     1      -6.033  -3.487   2.083  0.00  0.00    +0.149 HD
BRANCH  14  18
ATOM     18  C   UNL     1      -5.146  -1.985   0.873  0.00  0.00    +0.104 C 
BRANCH  18  19
ATOM     19  C   UNL     1      -5.614  -0.993   1.940  0.00  0.00    +0.018 C 
BRANCH  19  21
ATOM     20  C   UNL     1      -5.662   1.414   2.606  0.00  0.00    +0.004 C 
ATOM     21  C   UNL     1      -5.195   0.422   1.539  0.00  0.00    -0.002 C 
ENDBRANCH  19  21
ENDBRANCH  18  19
ENDBRANCH  14  18
ENDBRANCH   1  15
BRANCH   1  22
ATOM     22  N   UNL     1      -4.757  -6.751   0.224  0.00  0.00    -0.274 N 
ATOM     23  C   UNL     1      -3.514  -6.939   0.711  0.00  0.00    +0.248 C 
ATOM     24  O   UNL     1      -2.639  -7.376  -0.011  0.00  0.00    -0.270 OA
BRANCH  23  25
ATOM     25  C   UNL     1      -3.216  -6.614   2.120  0.00  0.00    +0.037 A 
ATOM     26  C   UNL     1      -3.704  -5.434   2.686  0.00  0.00    +0.016 A 
ATOM     27  C   UNL     1      -3.423  -5.135   4.002  0.00  0.00    +0.039 A 
ATOM     28  C   UNL     1      -2.656  -6.004   4.763  0.00  0.00    +0.123 A 
ATOM     29  C   UNL     1      -2.169  -7.177   4.207  0.00  0.00    +0.039 A 
ATOM     30  C   UNL     1      -2.450  -7.488   2.894  0.00  0.00    +0.016 A 
ATOM     31  F   UNL     1      -2.383  -5.706   6.053  0.00  0.00    -0.205 F 
ENDBRANCH  23  25
BRANCH  22  32
ATOM     32  C   UNL     1      -5.213  -7.519  -0.938  0.00  0.00    +0.183 C 
BRANCH  32  33
ATOM     33  C   UNL     1      -4.466  -7.064  -2.165  0.00  0.00    +0.122 A 
ATOM     34  C   UNL     1      -3.274  -7.532  -2.579  0.00  0.00    +0.046 A 
ATOM     35  C   UNL     1      -2.949  -6.831  -3.763  0.00  0.00    +0.045 A 
ATOM     36  C   UNL     1      -3.960  -5.978  -4.002  0.00  0.00    +0.102 A 
ATOM     37  O   UNL     1      -4.879  -6.127  -3.034  0.00  0.00    -0.463 OA
ATOM     38  C   UNL     1      -4.050  -5.020  -5.162  0.00  0.00    +0.086 C 
ENDBRANCH  32  33
ENDBRANCH  22  32
ENDBRANCH   1  22
TORSDOF 12
