REMARK  Name = ZINC24916116
REMARK  9 active torsions:
REMARK  status: ('A' for Active; 'I' for Inactive)
REMARK    1  A    between atoms: C_1  and  C_2
REMARK    2  A    between atoms: C_2  and  C_3
REMARK    3  A    between atoms: C_10  and  C_12
REMARK    4  A    between atoms: C_15  and  S_18
REMARK    5  A    between atoms: N_16  and  C_17
REMARK    6  A    between atoms: S_18  and  C_19
REMARK    7  A    between atoms: C_19  and  C_21
REMARK    8  A    between atoms: C_19  and  C_22
REMARK    9  A    between atoms: C_24  and  C_27
REMARK                            x       y       z     vdW  Elec       q    Type
REMARK                         _______ _______ _______ _____ _____    ______ ____
ROOT
ATOM      1  C   UNL     1       2.913   4.712   1.571  0.00  0.00    +0.171 A 
ATOM      2  N   UNL     1       3.074   3.406   1.575  0.00  0.00    -0.128 NA
ATOM      3  N   UNL     1       1.932   2.824   1.482  0.00  0.00    -0.122 NA
ATOM      4  C   UNL     1       0.972   3.718   1.413  0.00  0.00    +0.192 A 
ATOM      5  N   UNL     1       1.561   4.951   1.462  0.00  0.00    -0.305 N 
ATOM      6  C   UNL     1       0.894   6.254   1.411  0.00  0.00    +0.153 C 
ENDROOT
BRANCH   1  13
ATOM      7  C   UNL     1       8.315   7.826   2.096  0.00  0.00    -0.007 C 
ATOM      8  C   UNL     1       7.662   9.103   1.560  0.00  0.00    +0.009 C 
ATOM      9  C   UNL     1       6.231   9.194   2.111  0.00  0.00    +0.043 C 
ATOM     10  C   UNL     1       5.568   7.867   1.919  0.00  0.00    -0.006 A 
ATOM     11  C   UNL     1       6.164   6.678   1.619  0.00  0.00    -0.036 A 
ATOM     12  C   UNL     1       5.328   5.575   1.494  0.00  0.00    +0.023 A 
ATOM     13  C   UNL     1       3.977   5.725   1.661  0.00  0.00    +0.057 A 
ATOM     14  S   UNL     1       3.844   7.469   2.022  0.00  0.00    -0.090 S 
ATOM     15  C   UNL     1       7.678   6.598   1.444  0.00  0.00    +0.039 C 
BRANCH   7  17
ATOM     16  C   UNL     1      10.490   6.645   2.435  0.00  0.00    +0.004 C 
ATOM     17  C   UNL     1       9.812   7.850   1.780  0.00  0.00    +0.000 C 
ENDBRANCH   7  17
ENDBRANCH   1  13
BRANCH   4  18
ATOM     18  S   UNL     1      -0.753   3.389   1.277  0.00  0.00    -0.073 S 
BRANCH  18  19
ATOM     19  C   UNL     1      -0.729   1.579   1.267  0.00  0.00    +0.140 C 
ATOM     20  C   UNL     1      -0.013   1.086   0.008  0.00  0.00    +0.029 C 
BRANCH  19  21
ATOM     21  C   UNL     1      -2.143   1.058   1.278  0.00  0.00    +0.240 A 
ATOM     22  N   UNL     1      -2.609   0.081   2.018  0.00  0.00    -0.195 NA
ATOM     23  C   UNL     1      -3.909  -0.030   1.693  0.00  0.00    +0.169 A 
ATOM     24  N   UNL     1      -4.161   0.863   0.783  0.00  0.00    -0.062 NA
ATOM     25  O   UNL     1      -3.159   1.498   0.530  0.00  0.00    -0.337 OA
ATOM     26  C   UNL     1      -4.893  -1.014   2.273  0.00  0.00    +0.091 C 
ENDBRANCH  19  21
ENDBRANCH  18  19
ENDBRANCH   4  18
TORSDOF 5
