REMARK  Name = ZINC44714366
REMARK  7 active torsions:
REMARK  status: ('A' for Active; 'I' for Inactive)
REMARK    1  A    between atoms: C_1  and  C_2
REMARK    2  A    between atoms: C_3  and  C_14
REMARK    3  A    between atoms: C_6  and  C_12
REMARK    4  A    between atoms: C_14  and  C_15
REMARK    5  A    between atoms: C_15  and  N_16
REMARK    6  A    between atoms: C_17  and  C_19
REMARK    7  A    between atoms: C_30  and  C_32
REMARK                            x       y       z     vdW  Elec       q    Type
REMARK                         _______ _______ _______ _____ _____    ______ ____
ROOT
ATOM      1  C   UNL     1       2.556   1.088  -6.476  0.00  0.00    +0.100 C 
ATOM      2  C   UNL     1       2.031  -0.022  -7.415  0.00  0.00    +0.121 C 
ATOM      3  N   UNL     1       2.845   0.114  -8.646  0.00  0.00    -0.296 N 
ATOM      4  C   UNL     1       4.210   0.420  -8.154  0.00  0.00    +0.115 C 
ATOM      5  C   UNL     1       3.986   1.374  -6.964  0.00  0.00    -0.004 C 
ATOM      6  C   UNL     1       4.991   1.078  -5.855  0.00  0.00    -0.010 C 
ATOM      7  C   UNL     1       6.400   1.426  -6.343  0.00  0.00    -0.082 C 
ATOM      8  N   UNL     1       6.455   2.845  -6.715  0.00  0.00    +0.379 N 
ATOM      9  C   UNL     1       5.553   3.102  -7.845  0.00  0.00    -0.082 C 
ATOM     10  C   UNL     1       4.108   2.825  -7.420  0.00  0.00    -0.010 C 
ATOM     11  C   UNL     1       2.437  -0.013  -9.924  0.00  0.00    +0.248 C 
ATOM     12  O   UNL     1       1.258  -0.170 -10.173  0.00  0.00    -0.270 OA
ATOM     13  H   UNL     1       6.174   3.409  -5.927  0.00  0.00    -0.086 HD
ATOM     14  H   UNL     1       7.399   3.086  -6.979  0.00  0.00    -0.086 HD
ENDROOT
BRANCH  11  15
ATOM     15  C   UNL     1       3.424   0.040 -11.023  0.00  0.00    +0.055 A 
ATOM     16  C   UNL     1       4.701  -0.496 -10.846  0.00  0.00    +0.014 A 
ATOM     17  C   UNL     1       5.616  -0.444 -11.876  0.00  0.00    +0.001 A 
ATOM     18  C   UNL     1       5.273   0.138 -13.084  0.00  0.00    +0.001 A 
ATOM     19  C   UNL     1       4.010   0.672 -13.267  0.00  0.00    +0.021 A 
ATOM     20  C   UNL     1       3.081   0.621 -12.246  0.00  0.00    +0.053 A 
ATOM     21 CL   UNL     1       1.494   1.284 -12.481  0.00  0.00    -0.083 Cl
ENDBRANCH  11  15
BRANCH   1  23
ATOM     22  N   UNL     1       2.590   1.490  -4.036  0.00  0.00    -0.315 N 
ATOM     23  C   UNL     1       2.575   0.602  -5.050  0.00  0.00    +0.218 C 
ATOM     24  O   UNL     1       2.577  -0.588  -4.814  0.00  0.00    -0.275 OA
ATOM     25  H   UNL     1       2.588   2.442  -4.224  0.00  0.00    +0.149 HD
BRANCH  22  26
ATOM     26  C   UNL     1       2.609   1.018  -2.649  0.00  0.00    +0.109 C 
BRANCH  26  27
ATOM     27  C   UNL     1       2.623   2.219  -1.702  0.00  0.00    +0.056 C 
BRANCH  27  30
ATOM     28  C   UNL     1       5.154   1.627  -0.005  0.00  0.00    +0.063 C 
ATOM     29  C   UNL     1       3.731   1.476   0.466  0.00  0.00    +0.017 A 
ATOM     30  C   UNL     1       2.642   1.734  -0.275  0.00  0.00    -0.018 A 
ATOM     31  C   UNL     1       1.476   1.454   0.567  0.00  0.00    +0.004 A 
ATOM     32  C   UNL     1       0.099   1.530   0.368  0.00  0.00    +0.029 A 
ATOM     33  C   UNL     1      -0.761   1.182   1.406  0.00  0.00    +0.052 A 
ATOM     34  C   UNL     1      -0.241   0.761   2.638  0.00  0.00    +0.021 A 
ATOM     35  C   UNL     1       1.106   0.686   2.834  0.00  0.00    +0.027 A 
ATOM     36  C   UNL     1       1.986   1.029   1.810  0.00  0.00    +0.047 A 
ATOM     37  N   UNL     1       3.357   1.049   1.712  0.00  0.00    -0.358 N 
ATOM     38  H   UNL     1       3.969   0.799   2.422  0.00  0.00    +0.166 HD
BRANCH  33  39
ATOM     39  C   UNL     1      -2.179   1.256   1.215  0.00  0.00    +0.099 C 
ATOM     40  N   UNL     1      -3.303   1.314   1.064  0.00  0.00    -0.191 NA
ENDBRANCH  33  39
ENDBRANCH  27  30
ENDBRANCH  26  27
ENDBRANCH  22  26
ENDBRANCH   1  23
TORSDOF 6
