REMARK  Name = ZINC09010856
REMARK  6 active torsions:
REMARK  status: ('A' for Active; 'I' for Inactive)
REMARK    1  A    between atoms: N_9  and  C_22
REMARK    2  A    between atoms: C_10  and  S_12
REMARK    3  A    between atoms: S_12  and  C_13
REMARK    4  A    between atoms: C_13  and  C_14
REMARK    5  A    between atoms: C_14  and  C_16
REMARK    6  A    between atoms: C_22  and  C_23
REMARK                            x       y       z     vdW  Elec       q    Type
REMARK                         _______ _______ _______ _____ _____    ______ ____
ROOT
ATOM      1  C   UNL     1      -2.234   5.717   0.054  0.00  0.00    +0.001 A 
ATOM      2  C   UNL     1      -0.995   6.345   0.046  0.00  0.00    +0.002 A 
ATOM      3  C   UNL     1       0.161   5.617   0.031  0.00  0.00    +0.028 A 
ATOM      4  C   UNL     1       0.100   4.220   0.024  0.00  0.00    +0.079 A 
ATOM      5  C   UNL     1      -1.163   3.585   0.032  0.00  0.00    +0.065 A 
ATOM      6  C   UNL     1      -2.327   4.353   0.048  0.00  0.00    +0.015 A 
ATOM      7  C   UNL     1      -1.202   2.117   0.019  0.00  0.00    +0.263 A 
ATOM      8  O   UNL     1      -2.258   1.513   0.021  0.00  0.00    -0.267 OA
ATOM      9  N   UNL     1      -0.018   1.461   0.010  0.00  0.00    -0.280 N 
ATOM     10  C   UNL     1       1.158   2.155   0.003  0.00  0.00    +0.173 A 
ATOM     11  N   UNL     1       1.216   3.464   0.009  0.00  0.00    -0.223 NA
ENDROOT
BRANCH  10  12
ATOM     12  S   UNL     1       2.669   1.248  -0.017  0.00  0.00    -0.080 S 
BRANCH  12  13
ATOM     13  C   UNL     1       3.856   2.614  -0.021  0.00  0.00    +0.158 C 
BRANCH  13  14
ATOM     14  C   UNL     1       5.258   2.062  -0.038  0.00  0.00    +0.189 C 
ATOM     15  O   UNL     1       5.437   0.861  -0.046  0.00  0.00    -0.290 OA
BRANCH  14  16
ATOM     16  C   UNL     1       6.364   2.942  -0.044  0.00  0.00    +0.083 A 
ATOM     17  C   UNL     1       6.311   4.325  -0.041  0.00  0.00    +0.030 A 
ATOM     18  C   UNL     1       7.630   4.782  -0.045  0.00  0.00    +0.020 A 
ATOM     19  C   UNL     1       8.447   3.699  -0.060  0.00  0.00    +0.083 A 
ATOM     20  N   UNL     1       7.694   2.580  -0.059  0.00  0.00    -0.358 N 
ATOM     21  H   UNL     1       8.033   1.671  -0.067  0.00  0.00    +0.165 HD
ENDBRANCH  14  16
ENDBRANCH  13  14
ENDBRANCH  12  13
ENDBRANCH  10  12
BRANCH   9  22
ATOM     22  C   UNL     1       0.002  -0.004   0.002  0.00  0.00    +0.201 C 
BRANCH  22  23
ATOM     23  C   UNL     1       0.022  -0.514   1.420  0.00  0.00    +0.125 A 
ATOM     24  C   UNL     1      -1.058  -0.790   2.172  0.00  0.00    +0.046 A 
ATOM     25  C   UNL     1      -0.581  -1.241   3.425  0.00  0.00    +0.041 A 
ATOM     26  C   UNL     1       0.763  -1.205   3.365  0.00  0.00    +0.195 A 
ATOM     27  O   UNL     1       1.122  -0.764   2.149  0.00  0.00    -0.466 OA
ENDBRANCH  22  23
ENDBRANCH   9  22
TORSDOF 6
