REMARK  Name = ZINC63279943
REMARK  6 active torsions:
REMARK  status: ('A' for Active; 'I' for Inactive)
REMARK    1  A    between atoms: C_1  and  C_2
REMARK    2  A    between atoms: N_4  and  C_5
REMARK    3  A    between atoms: C_11  and  C_15
REMARK    4  A    between atoms: N_17  and  C_18
REMARK    5  A    between atoms: C_18  and  C_19
REMARK    6  A    between atoms: C_19  and  C_20
REMARK                            x       y       z     vdW  Elec       q    Type
REMARK                         _______ _______ _______ _____ _____    ______ ____
ROOT
ATOM      1  C   UNL     1      -3.880  -5.816  -4.745  0.00  0.00    +0.244 C 
ATOM      2  O   UNL     1      -4.890  -6.007  -4.095  0.00  0.00    -0.270 OA
ATOM      3  N   UNL     1      -3.760  -6.351  -5.976  0.00  0.00    -0.311 N 
ATOM      4  H   UNL     1      -2.954  -6.199  -6.494  0.00  0.00    +0.149 HD
ENDROOT
BRANCH   1  10
ATOM      5  C   UNL     1       0.020  -2.136  -1.177  0.00  0.00    +0.224 C 
ATOM      6  N   UNL     1       0.290  -2.654  -2.525  0.00  0.00    -0.316 N 
ATOM      7  C   UNL     1      -0.689  -3.434  -3.125  0.00  0.00    +0.043 A 
ATOM      8  C   UNL     1      -0.601  -4.011  -4.408  0.00  0.00    +0.025 A 
ATOM      9  C   UNL     1      -1.620  -4.770  -4.921  0.00  0.00    +0.015 A 
ATOM     10  C   UNL     1      -2.787  -4.998  -4.186  0.00  0.00    +0.038 A 
ATOM     11  C   UNL     1      -2.897  -4.435  -2.909  0.00  0.00    +0.029 A 
ATOM     12  C   UNL     1      -1.869  -3.677  -2.408  0.00  0.00    +0.033 A 
ATOM     13  S   UNL     1      -1.655  -2.822  -0.861  0.00  0.00    -0.082 S 
ATOM     14  H   UNL     1       1.123  -2.457  -2.980  0.00  0.00    +0.149 HD
BRANCH   5  18
ATOM     15  C   UNL     1      -0.018   1.503   0.010  0.00  0.00    +0.109 C 
ATOM     16  C   UNL     1       0.002  -0.004   0.002  0.00  0.00    +0.212 C 
ATOM     17  O   UNL     1       0.020  -0.616   1.049  0.00  0.00    -0.276 OA
ATOM     18  N   UNL     1       0.000  -0.672  -1.169  0.00  0.00    -0.288 N 
ATOM     19  H   UNL     1      -0.015  -0.182  -2.006  0.00  0.00    +0.151 HD
ENDBRANCH   5  18
ENDBRANCH   1  10
BRANCH   3  20
ATOM     20  C   UNL     1      -4.845  -7.163  -6.531  0.00  0.00    +0.109 C 
BRANCH  20  21
ATOM     21  C   UNL     1      -4.457  -7.646  -7.929  0.00  0.00    +0.052 C 
BRANCH  21  22
ATOM     22  C   UNL     1      -5.574  -8.482  -8.500  0.00  0.00    -0.040 C 
ATOM     23  C   UNL     1      -6.566  -8.063  -9.319  0.00  0.00    -0.001 A 
ATOM     24  C   UNL     1      -6.890  -6.755  -9.900  0.00  0.00    +0.010 A 
ATOM     25  C   UNL     1      -7.974  -6.643 -10.701  0.00  0.00    +0.001 A 
ATOM     26  C   UNL     1      -8.794  -7.743 -10.990  0.00  0.00    +0.002 A 
ATOM     27  C   UNL     1      -8.561  -8.976 -10.493  0.00  0.00    +0.026 A 
ATOM     28  C   UNL     1      -7.447  -9.209  -9.639  0.00  0.00    +0.043 A 
ATOM     29  N   UNL     1      -7.017 -10.293  -9.042  0.00  0.00    -0.380 N 
ATOM     30  C   UNL     1      -5.809  -9.959  -8.279  0.00  0.00    +0.144 C 
ATOM     31  H   UNL     1      -7.426 -11.171  -9.098  0.00  0.00    +0.160 HD
ENDBRANCH  21  22
ENDBRANCH  20  21
ENDBRANCH   3  20
TORSDOF 5
