REMARK  Name = ZINC63752075
REMARK  7 active torsions:
REMARK  status: ('A' for Active; 'I' for Inactive)
REMARK    1  A    between atoms: C_1  and  C_2
REMARK    2  A    between atoms: C_2  and  C_3
REMARK    3  A    between atoms: C_9  and  S_11
REMARK    4  A    between atoms: S_11  and  C_12
REMARK    5  A    between atoms: C_12  and  C_13
REMARK    6  A    between atoms: C_20  and  C_26
REMARK    7  A    between atoms: C_21  and  C_25
REMARK                            x       y       z     vdW  Elec       q    Type
REMARK                         _______ _______ _______ _____ _____    ______ ____
ROOT
ATOM      1  C   UNL     1       4.053  -3.870  -8.067  0.00  0.00    +0.176 C 
ATOM      2  C   UNL     1       4.851  -2.808  -8.790  0.00  0.00    +0.240 C 
ATOM      3  O   UNL     1       5.548  -2.031  -8.168  0.00  0.00    -0.273 OA
ATOM      4  N   UNL     1       4.778  -2.735 -10.121  0.00  0.00    -0.282 N 
ATOM      5  C   UNL     1       4.027  -3.568 -10.821  0.00  0.00    +0.057 A 
ATOM      6  C   UNL     1       3.974  -3.463 -12.229  0.00  0.00    +0.029 A 
ATOM      7  C   UNL     1       3.207  -4.313 -12.951  0.00  0.00    -0.046 A 
ATOM      8  C   UNL     1       2.435  -5.328 -12.361  0.00  0.00    -0.045 A 
ATOM      9  C   UNL     1       2.413  -5.515 -11.023  0.00  0.00    +0.030 A 
ATOM     10  C   UNL     1       3.222  -4.631 -10.168  0.00  0.00    +0.058 A 
ATOM     11  N   UNL     1       3.228  -4.780  -8.876  0.00  0.00    -0.372 N 
ATOM     12  C   UNL     1       1.609  -6.229 -13.243  0.00  0.00    +0.044 C 
ATOM     13  C   UNL     1       3.180  -4.165 -14.451  0.00  0.00    +0.044 C 
ATOM     14  H   UNL     1       2.700  -5.476  -8.455  0.00  0.00    +0.160 HD
ATOM     15  H   UNL     1       5.289  -2.054 -10.586  0.00  0.00    +0.155 HD
ENDROOT
BRANCH   1  16
ATOM     16  C   UNL     1       3.131  -3.163  -7.072  0.00  0.00    +0.110 C 
BRANCH  16  17
ATOM     17  S   UNL     1       2.349  -4.395  -5.993  0.00  0.00    -0.094 S 
BRANCH  17  24
ATOM     18  C   UNL     1      -1.474  -0.601  -1.992  0.00  0.00    +0.218 C 
ATOM     19  O   UNL     1      -0.957   0.223  -2.716  0.00  0.00    -0.275 OA
ATOM     20  N   UNL     1      -1.190  -1.909  -2.148  0.00  0.00    -0.263 N 
ATOM     21  C   UNL     1      -0.301  -2.314  -3.141  0.00  0.00    +0.189 A 
ATOM     22  N   UNL     1       0.371  -1.596  -4.025  0.00  0.00    -0.125 NA
ATOM     23  N   UNL     1       1.145  -2.126  -4.868  0.00  0.00    -0.133 NA
ATOM     24  C   UNL     1       1.333  -3.437  -4.919  0.00  0.00    +0.160 A 
ATOM     25  S   UNL     1       0.262  -3.956  -3.581  0.00  0.00    -0.024 S 
ATOM     26  H   UNL     1      -1.603  -2.568  -1.569  0.00  0.00    +0.157 HD
BRANCH  18  28
ATOM     27  C   UNL     1      -2.582   1.360  -0.954  0.00  0.00    +0.013 C 
ATOM     28  C   UNL     1      -2.436  -0.162  -0.917  0.00  0.00    +0.093 C 
ENDBRANCH  18  28
ENDBRANCH  17  24
ENDBRANCH  16  17
ENDBRANCH   1  16
TORSDOF 4
