REMARK  Name = ZINC15087873
REMARK  6 active torsions:
REMARK  status: ('A' for Active; 'I' for Inactive)
REMARK    1  A    between atoms: C_1  and  C_2
REMARK    2  A    between atoms: C_3  and  N_15
REMARK    3  A    between atoms: N_6  and  C_9
REMARK    4  A    between atoms: N_7  and  C_8
REMARK    5  A    between atoms: C_19  and  C_20
REMARK    6  A    between atoms: C_25  and  O_26
REMARK                            x       y       z     vdW  Elec       q    Type
REMARK                         _______ _______ _______ _____ _____    ______ ____
ROOT
ATOM      1  N   UNL     1      -2.287  -0.635   0.519  0.00  0.00    -0.208 N 
ATOM      2  C   UNL     1      -2.529  -0.829   1.804  0.00  0.00    +0.264 C 
ATOM      3  O   UNL     1      -1.630  -1.049   2.595  0.00  0.00    -0.269 OA
ATOM      4  C   UNL     1      -3.938  -0.767   2.236  0.00  0.00    +0.079 C 
ATOM      5  C   UNL     1      -4.465  -0.926   3.477  0.00  0.00    +0.032 C 
ATOM      6  S   UNL     1      -4.764  -0.426   0.689  0.00  0.00    -0.049 S 
ATOM      7  C   UNL     1      -3.321  -0.381  -0.361  0.00  0.00    +0.165 C 
ATOM      8  N   UNL     1      -3.259  -0.164  -1.646  0.00  0.00    -0.279 NA
ATOM      9  H   UNL     1      -4.071   0.003  -2.149  0.00  0.00    +0.189 HD
ENDROOT
BRANCH   1  12
ATOM     10  C   UNL     1      -0.793   1.749  -0.694  0.00  0.00    +0.067 C 
ATOM     11  C   UNL     1      -0.273   0.349  -0.496  0.00  0.00    +0.060 A 
ATOM     12  C   UNL     1      -0.960  -0.682   0.043  0.00  0.00    +0.130 A 
ATOM     13  C   UNL     1      -0.113  -1.820   0.047  0.00  0.00    +0.294 A 
ATOM     14  O   UNL     1      -0.400  -2.929   0.460  0.00  0.00    -0.264 OA
ATOM     15  N   UNL     1       1.068  -1.452  -0.490  0.00  0.00    -0.216 N 
ATOM     16  N   UNL     1       0.977  -0.098  -0.839  0.00  0.00    -0.282 N 
ATOM     17  C   UNL     1       2.035   0.702  -1.460  0.00  0.00    +0.171 C 
BRANCH  15  18
ATOM     18  C   UNL     1       2.183  -2.276  -0.672  0.00  0.00    +0.067 A 
ATOM     19  C   UNL     1       3.438  -1.851  -0.258  0.00  0.00    +0.028 A 
ATOM     20  C   UNL     1       4.538  -2.667  -0.439  0.00  0.00    +0.002 A 
ATOM     21  C   UNL     1       4.389  -3.907  -1.032  0.00  0.00    +0.000 A 
ATOM     22  C   UNL     1       3.141  -4.334  -1.446  0.00  0.00    +0.002 A 
ATOM     23  C   UNL     1       2.037  -3.525  -1.262  0.00  0.00    +0.028 A 
ENDBRANCH  15  18
ENDBRANCH   1  12
BRANCH   5  24
ATOM     24  C   UNL     1      -5.894  -0.676   3.704  0.00  0.00    +0.019 A 
ATOM     25  C   UNL     1      -6.580   0.258   2.920  0.00  0.00    +0.026 A 
ATOM     26  C   UNL     1      -7.921   0.487   3.139  0.00  0.00    +0.019 A 
ATOM     27  C   UNL     1      -8.595  -0.204   4.135  0.00  0.00    +0.019 A 
ATOM     28  C   UNL     1      -7.930  -1.129   4.917  0.00  0.00    +0.047 A 
ATOM     29  C   UNL     1      -6.583  -1.377   4.707  0.00  0.00    +0.124 A 
ATOM     30 BR   UNL     1      -8.847   1.749   2.079  0.00  0.00    -0.050 Br
BRANCH  29  31
ATOM     31  O   UNL     1      -5.931  -2.289   5.472  0.00  0.00    -0.506 OA
ATOM     32  H   UNL     1      -5.538  -1.921   6.276  0.00  0.00    +0.292 HD
ENDBRANCH  29  31
ENDBRANCH   5  24
TORSDOF 4
