REMARK  Name = ZINC00789005
REMARK  9 active torsions:
REMARK  status: ('A' for Active; 'I' for Inactive)
REMARK    1  A    between atoms: C_1  and  C_2
REMARK    2  A    between atoms: C_3  and  C_24
REMARK    3  A    between atoms: C_5  and  C_7
REMARK    4  A    between atoms: C_9  and  C_22
REMARK    5  A    between atoms: C_10  and  N_21
REMARK    6  A    between atoms: C_17  and  C_19
REMARK    7  A    between atoms: C_17  and  C_20
REMARK    8  A    between atoms: C_24  and  O_25
REMARK    9  A    between atoms: O_25  and  C_26
REMARK                            x       y       z     vdW  Elec       q    Type
REMARK                         _______ _______ _______ _____ _____    ______ ____
ROOT
ATOM      1  C   UNL     1      -6.153  -1.808   0.053  0.00  0.00    +0.108 C 
ATOM      2  C   UNL     1      -6.901  -2.230   1.286  0.00  0.00    +0.099 C 
ATOM      3  C   UNL     1      -7.872  -3.173   1.210  0.00  0.00    +0.198 C 
ATOM      4  O   UNL     1      -8.189  -3.757   0.044  0.00  0.00    -0.445 OA
ATOM      5  C   UNL     1      -7.882  -3.148  -1.117  0.00  0.00    +0.115 C 
ATOM      6  C   UNL     1      -6.923  -2.207  -1.183  0.00  0.00    +0.046 C 
ATOM      7  C   UNL     1      -6.608  -1.566  -2.396  0.00  0.00    +0.164 C 
ATOM      8  O   UNL     1      -5.724  -0.733  -2.419  0.00  0.00    -0.292 OA
ATOM      9  C   UNL     1      -7.346  -1.895  -3.665  0.00  0.00    +0.086 C 
ATOM     10  C   UNL     1      -8.759  -2.367  -3.308  0.00  0.00    -0.021 C 
ATOM     11  C   UNL     1      -8.646  -3.558  -2.354  0.00  0.00    +0.081 C 
ATOM     12  C   UNL     1      -9.523  -1.232  -2.623  0.00  0.00    +0.012 C 
ATOM     13  C   UNL     1      -9.497  -2.790  -4.580  0.00  0.00    +0.012 C 
ENDROOT
BRANCH   1  18
ATOM     14  C   UNL     1      -1.583  -5.155  -0.022  0.00  0.00    +0.052 C 
ATOM     15  C   UNL     1      -2.625  -4.066   0.001  0.00  0.00    -0.007 A 
ATOM     16  C   UNL     1      -2.455  -2.722   0.012  0.00  0.00    -0.000 A 
ATOM     17  C   UNL     1      -3.570  -1.905   0.027  0.00  0.00    +0.019 A 
ATOM     18  C   UNL     1      -4.801  -2.473   0.036  0.00  0.00    +0.003 A 
ATOM     19  S   UNL     1      -4.404  -4.213   0.024  0.00  0.00    -0.097 S 
BRANCH  16  20
ATOM     20  C   UNL     1      -1.071  -2.126   0.001  0.00  0.00    +0.265 C 
BRANCH  20  21
ATOM     21  O   UNL     1      -1.165  -0.700   0.010  0.00  0.00    -0.487 OA
BRANCH  21  22
ATOM     22  C   UNL     1       0.002  -0.004   0.002  0.00  0.00    +0.121 A 
ATOM     23  C   UNL     1      -0.017   1.383   0.010  0.00  0.00    +0.048 A 
ATOM     24  C   UNL     1       1.171   2.089   0.002  0.00  0.00    +0.042 A 
ATOM     25  C   UNL     1       2.379   1.413  -0.013  0.00  0.00    +0.124 A 
ATOM     26  C   UNL     1       2.399   0.029  -0.021  0.00  0.00    +0.042 A 
ATOM     27  C   UNL     1       1.213  -0.680  -0.013  0.00  0.00    +0.048 A 
ATOM     28  F   UNL     1       3.539   2.105  -0.021  0.00  0.00    -0.205 F 
ENDBRANCH  21  22
ENDBRANCH  20  21
ENDBRANCH  16  20
ENDBRANCH   1  18
BRANCH   3  29
ATOM     29  N   UNL     1      -8.545  -3.538   2.349  0.00  0.00    -0.328 N 
ATOM     30  H   UNL     1      -8.324  -3.122   3.197  0.00  0.00    +0.145 HD
ATOM     31  H   UNL     1      -9.241  -4.211   2.306  0.00  0.00    +0.145 HD
ENDBRANCH   3  29
BRANCH   2  32
ATOM     32  C   UNL     1      -6.586  -1.633   2.550  0.00  0.00    +0.101 C 
ATOM     33  N   UNL     1      -6.336  -1.160   3.551  0.00  0.00    -0.191 NA
ENDBRANCH   2  32
TORSDOF 6
