REMARK  Name = ZINC16286671
REMARK  5 active torsions:
REMARK  status: ('A' for Active; 'I' for Inactive)
REMARK    1  A    between atoms: C_3  and  C_6
REMARK    2  A    between atoms: C_6  and  C_8
REMARK    3  A    between atoms: C_10  and  C_22
REMARK    4  A    between atoms: C_16  and  C_17
REMARK    5  A    between atoms: C_16  and  O_21
REMARK                            x       y       z     vdW  Elec       q    Type
REMARK                         _______ _______ _______ _____ _____    ______ ____
ROOT
ATOM      1  C   UNL     1      -1.448  -3.924   1.930  0.00  0.00    +0.144 C 
ATOM      2  C   UNL     1      -1.612  -2.970   0.743  0.00  0.00    +0.118 C 
ATOM      3  N   UNL     1      -1.504  -3.731  -0.503  0.00  0.00    -0.319 N 
ATOM      4  C   UNL     1      -1.862  -5.022  -0.566  0.00  0.00    +0.133 C 
ATOM      5  S   UNL     1      -1.722  -5.843  -2.061  0.00  0.00    -0.019 S 
ATOM      6  N   UNL     1      -2.327  -5.695   0.497  0.00  0.00    -0.291 N 
ATOM      7  C   UNL     1      -2.482  -5.047   1.801  0.00  0.00    +0.241 C 
ATOM      8  H   UNL     1      -1.165  -3.293  -1.300  0.00  0.00    +0.148 HD
ATOM      9  H   UNL     1      -2.564  -6.631   0.401  0.00  0.00    +0.151 HD
ENDROOT
BRANCH   2  10
ATOM     10  C   UNL     1      -0.532  -1.920   0.787  0.00  0.00    -0.023 A 
ATOM     11  C   UNL     1      -0.748  -0.736   1.467  0.00  0.00    +0.009 A 
ATOM     12  C   UNL     1       0.239   0.230   1.511  0.00  0.00    +0.050 A 
ATOM     13  C   UNL     1       1.449   0.014   0.872  0.00  0.00    +0.166 A 
ATOM     14  C   UNL     1       1.667  -1.178   0.186  0.00  0.00    +0.167 A 
ATOM     15  C   UNL     1       0.673  -2.142   0.147  0.00  0.00    +0.055 A 
ATOM     16  O   UNL     1       2.921  -1.149  -0.352  0.00  0.00    -0.453 OA
ATOM     17  C   UNL     1       3.315   0.236  -0.335  0.00  0.00    +0.466 C 
ATOM     18  O   UNL     1       2.567   0.790   0.764  0.00  0.00    -0.453 OA
ENDBRANCH   2  10
BRANCH   7  19
ATOM     19  C   UNL     1      -3.891  -4.460   1.915  0.00  0.00    +0.436 C 
ATOM     20  F   UNL     1      -4.090  -3.524   0.895  0.00  0.00    -0.166 F 
ATOM     21  F   UNL     1      -4.835  -5.487   1.796  0.00  0.00    -0.166 F 
ATOM     22  F   UNL     1      -4.036  -3.835   3.158  0.00  0.00    -0.166 F 
ENDBRANCH   7  19
BRANCH   1  23
ATOM     23  C   UNL     1      -0.060  -4.511   1.920  0.00  0.00    +0.179 C 
ATOM     24  O   UNL     1       0.481  -4.773   0.865  0.00  0.00    -0.291 OA
BRANCH  23  27
ATOM     25  C   UNL     1       2.293  -5.419   4.648  0.00  0.00    +0.008 A 
ATOM     26  C   UNL     1       1.879  -5.291   3.348  0.00  0.00    +0.019 A 
ATOM     27  C   UNL     1       0.612  -4.756   3.138  0.00  0.00    +0.055 A 
ATOM     28  S   UNL     1       0.054  -4.469   4.808  0.00  0.00    -0.094 S 
ATOM     29  C   UNL     1       1.459  -5.035   5.652  0.00  0.00    +0.046 A 
ENDBRANCH  23  27
ENDBRANCH   1  23
BRANCH   7  30
ATOM     30  O   UNL     1      -2.279  -6.006   2.840  0.00  0.00    -0.364 OA
ATOM     31  H   UNL     1      -2.900  -6.747   2.819  0.00  0.00    +0.212 HD
ENDBRANCH   7  30
TORSDOF 5
