REMARK  Name = ZINC32940285
REMARK  6 active torsions:
REMARK  status: ('A' for Active; 'I' for Inactive)
REMARK    1  A    between atoms: C_3  and  C_6
REMARK    2  A    between atoms: C_8  and  C_36
REMARK    3  A    between atoms: C_9  and  N_11
REMARK    4  A    between atoms: C_14  and  C_17
REMARK    5  A    between atoms: N_19  and  C_20
REMARK    6  A    between atoms: C_23  and  N_30
REMARK                            x       y       z     vdW  Elec       q    Type
REMARK                         _______ _______ _______ _____ _____    ______ ____
ROOT
ATOM      1  C   UNL     1       2.454   5.538  -0.092  0.00  0.00    +0.220 C 
ATOM      2  O   UNL     1       1.408   6.152  -0.079  0.00  0.00    -0.275 OA
ATOM      3  N   UNL     1       2.448   4.194   0.002  0.00  0.00    -0.285 N 
ATOM      4  H   UNL     1       3.397   3.642   0.065  0.00  0.00    +0.155 HD
ENDROOT
BRANCH   3   5
ATOM      5  C   UNL     1       1.234   3.500   0.020  0.00  0.00    +0.043 A 
ATOM      6  C   UNL     1       0.129   4.050   0.634  0.00  0.00    +0.026 A 
ATOM      7  C   UNL     1      -1.085   3.372   0.661  0.00  0.00    +0.025 A 
ATOM      8  C   UNL     1      -1.219   2.134   0.068  0.00  0.00    +0.038 A 
ATOM      9  C   UNL     1      -0.107   1.544  -0.562  0.00  0.00    +0.008 A 
ATOM     10  C   UNL     1       1.132   2.234  -0.590  0.00  0.00    +0.023 A 
ATOM     11  C   UNL     1       2.224   1.627  -1.229  0.00  0.00    +0.121 A 
ATOM     12  N   UNL     1       2.084   0.445  -1.784  0.00  0.00    -0.263 NA
ATOM     13  C   UNL     1       0.937  -0.221  -1.772  0.00  0.00    +0.111 A 
ATOM     14  C   UNL     1      -0.180   0.282  -1.178  0.00  0.00    +0.030 A 
BRANCH   8  15
ATOM     15  N   UNL     1      -2.446   1.468   0.097  0.00  0.00    -0.329 N 
ATOM     16  C   UNL     1      -3.466   2.211  -0.654  0.00  0.00    +0.105 C 
ATOM     17  C   UNL     1      -4.753   1.385  -0.724  0.00  0.00    +0.019 C 
ATOM     18  C   UNL     1      -5.247   1.099   0.697  0.00  0.00    +0.003 C 
ATOM     19  C   UNL     1      -4.148   0.368   1.474  0.00  0.00    +0.019 C 
ATOM     20  C   UNL     1      -2.879   1.223   1.479  0.00  0.00    +0.105 C 
ENDBRANCH   8  15
ENDBRANCH   3   5
BRANCH   1  24
ATOM     21  N   UNL     1       5.613   8.229   0.836  0.00  0.00    -0.299 N 
ATOM     22  C   UNL     1       4.822   8.534  -0.363  0.00  0.00    +0.109 C 
ATOM     23  C   UNL     1       3.490   7.783  -0.301  0.00  0.00    +0.032 C 
ATOM     24  C   UNL     1       3.761   6.279  -0.214  0.00  0.00    +0.078 C 
ATOM     25  C   UNL     1       4.627   5.993   1.016  0.00  0.00    +0.032 C 
ATOM     26  C   UNL     1       5.926   6.797   0.917  0.00  0.00    +0.109 C 
BRANCH  21  30
ATOM     27  C   UNL     1       8.331  10.419   0.368  0.00  0.00    +0.266 A 
ATOM     28  N   UNL     1       8.688   9.866   1.501  0.00  0.00    -0.194 NA
ATOM     29  C   UNL     1       7.738   8.962   1.861  0.00  0.00    +0.201 A 
ATOM     30  C   UNL     1       6.762   8.989   0.876  0.00  0.00    +0.228 A 
ATOM     31  O   UNL     1       7.157   9.895  -0.037  0.00  0.00    -0.417 OA
BRANCH  27  34
ATOM     32  C   UNL     1      10.649  12.926  -0.938  0.00  0.00    +0.042 A 
ATOM     33  C   UNL     1      10.284  11.985   0.043  0.00  0.00    +0.055 A 
ATOM     34  C   UNL     1       9.094  11.449  -0.351  0.00  0.00    +0.189 A 
ATOM     35  O   UNL     1       8.743  12.024  -1.519  0.00  0.00    -0.458 OA
ATOM     36  C   UNL     1       9.678  12.920  -1.873  0.00  0.00    +0.196 A 
ENDBRANCH  27  34
BRANCH  29  37
ATOM     37  C   UNL     1       7.743   8.140   3.033  0.00  0.00    +0.124 C 
ATOM     38  N   UNL     1       7.747   7.488   3.963  0.00  0.00    -0.189 NA
ENDBRANCH  29  37
ENDBRANCH  21  30
ENDBRANCH   1  24
TORSDOF 6
