REMARK  Name = ZINC18541151
REMARK  7 active torsions:
REMARK  status: ('A' for Active; 'I' for Inactive)
REMARK    1  A    between atoms: C_1  and  C_2
REMARK    2  A    between atoms: C_3  and  C_23
REMARK    3  A    between atoms: C_4  and  C_13
REMARK    4  A    between atoms: N_5  and  C_7
REMARK    5  A    between atoms: C_13  and  S_14
REMARK    6  A    between atoms: S_14  and  C_15
REMARK    7  A    between atoms: C_19  and  N_21
REMARK                            x       y       z     vdW  Elec       q    Type
REMARK                         _______ _______ _______ _____ _____    ______ ____
ROOT
ATOM      1  C   UNL     1       1.634   3.282   0.003  0.00  0.00    +0.069 C 
ATOM      2  C   UNL     1       1.212   1.835   0.000  0.00  0.00    +0.078 A 
ATOM      3  C   UNL     1       2.078   0.718  -0.014  0.00  0.00    +0.096 A 
ATOM      4  C   UNL     1       1.286  -0.412  -0.012  0.00  0.00    +0.073 A 
ATOM      5  N   UNL     1       0.002  -0.004   0.002  0.00  0.00    -0.234 N 
ATOM      6  N   UNL     1      -0.017   1.395   0.010  0.00  0.00    -0.170 NA
ENDROOT
BRANCH   5   7
ATOM      7  C   UNL     1      -1.123  -0.839   0.008  0.00  0.00    +0.066 A 
ATOM      8  C   UNL     1      -1.104  -2.038  -0.692  0.00  0.00    +0.028 A 
ATOM      9  C   UNL     1      -2.213  -2.861  -0.679  0.00  0.00    +0.002 A 
ATOM     10  C   UNL     1      -3.346  -2.487   0.020  0.00  0.00    +0.000 A 
ATOM     11  C   UNL     1      -3.370  -1.291   0.714  0.00  0.00    +0.002 A 
ATOM     12  C   UNL     1      -2.262  -0.466   0.710  0.00  0.00    +0.028 A 
ENDBRANCH   5   7
BRANCH   3  13
ATOM     13  C   UNL     1       3.509   0.753  -0.027  0.00  0.00    +0.103 C 
ATOM     14  N   UNL     1       4.645   0.780  -0.037  0.00  0.00    -0.191 NA
ENDBRANCH   3  13
BRANCH   4  15
ATOM     15  C   UNL     1       1.768  -1.840  -0.024  0.00  0.00    +0.134 C 
BRANCH  15  16
ATOM     16  S   UNL     1       1.945  -2.403  -1.735  0.00  0.00    -0.080 S 
BRANCH  16  17
ATOM     17  C   UNL     1       2.504  -4.051  -1.459  0.00  0.00    +0.192 A 
ATOM     18  N   UNL     1       2.663  -4.478  -0.215  0.00  0.00    -0.207 NA
ATOM     19  C   UNL     1       3.079  -5.718   0.032  0.00  0.00    +0.122 A 
ATOM     20  C   UNL     1       3.357  -6.565  -1.038  0.00  0.00    +0.086 A 
ATOM     21  C   UNL     1       3.182  -6.079  -2.330  0.00  0.00    +0.122 A 
ATOM     22  N   UNL     1       2.758  -4.829  -2.501  0.00  0.00    -0.207 NA
ATOM     23  N   UNL     1       3.238  -6.159   1.336  0.00  0.00    -0.343 N 
ATOM     24  H   UNL     1       3.544  -7.063   1.509  0.00  0.00    +0.144 HD
ATOM     25  H   UNL     1       3.042  -5.564   2.077  0.00  0.00    +0.144 HD
BRANCH  21  26
ATOM     26  N   UNL     1       3.446  -6.887  -3.425  0.00  0.00    -0.343 N 
ATOM     27  H   UNL     1       3.322  -6.542  -4.324  0.00  0.00    +0.144 HD
ATOM     28  H   UNL     1       3.754  -7.797  -3.294  0.00  0.00    +0.144 HD
ENDBRANCH  21  26
ENDBRANCH  16  17
ENDBRANCH  15  16
ENDBRANCH   4  15
TORSDOF 6
