REMARK  Name = ZINC37647580
REMARK  7 active torsions:
REMARK  status: ('A' for Active; 'I' for Inactive)
REMARK    1  A    between atoms: C_1  and  N_2
REMARK    2  A    between atoms: C_5  and  C_8
REMARK    3  A    between atoms: C_8  and  N_9
REMARK    4  A    between atoms: N_9  and  S_10
REMARK    5  A    between atoms: S_10  and  C_13
REMARK    6  A    between atoms: C_16  and  N_22
REMARK    7  A    between atoms: C_17  and  N_19
REMARK                            x       y       z     vdW  Elec       q    Type
REMARK                         _______ _______ _______ _____ _____    ______ ____
ROOT
ATOM      1  S   UNL     1       4.770  -4.724   1.613  0.00  0.00    +0.058 S 
ATOM      2  O   UNL     1       5.109  -6.064   1.286  0.00  0.00    -0.153 OA
ATOM      3  O   UNL     1       5.627  -3.628   1.324  0.00  0.00    -0.153 OA
ENDROOT
BRANCH   1   4
ATOM      4  C   UNL     1       4.476  -4.688   3.350  0.00  0.00    +0.108 A 
ATOM      5  C   UNL     1       4.605  -3.500   4.047  0.00  0.00    +0.030 A 
ATOM      6  C   UNL     1       4.375  -3.469   5.409  0.00  0.00    +0.027 A 
ATOM      7  C   UNL     1       4.013  -4.631   6.078  0.00  0.00    +0.055 A 
ATOM      8  C   UNL     1       3.885  -5.822   5.374  0.00  0.00    +0.149 A 
ATOM      9  C   UNL     1       4.112  -5.846   4.012  0.00  0.00    +0.063 A 
BRANCH   8  10
ATOM     10  N   UNL     1       3.501  -7.064   6.083  0.00  0.00    +0.058 N 
ATOM     11  O   UNL     1       3.930  -7.284   7.192  0.00  0.00    -0.126 OA
ATOM     12  O   UNL     1       2.759  -7.857   5.553  0.00  0.00    -0.126 OA
ENDBRANCH   8  10
BRANCH   7  13
ATOM     13  N   UNL     1       3.780  -4.603   7.455  0.00  0.00    -0.356 N 
ATOM     14  H   UNL     1       3.989  -3.805   7.965  0.00  0.00    +0.142 HD
ATOM     15  H   UNL     1       3.410  -5.381   7.900  0.00  0.00    +0.142 HD
ENDBRANCH   7  13
ENDBRANCH   1   4
BRANCH   1  16
ATOM     16  N   UNL     1       3.327  -4.405   0.866  0.00  0.00    -0.190 NA
ATOM     17  H   UNL     1       2.903  -5.085   0.319  0.00  0.00    +0.148 HD
BRANCH  16  18
ATOM     18  C   UNL     1       2.689  -3.096   1.031  0.00  0.00    +0.107 C 
BRANCH  18  23
ATOM     19  C   UNL     1       0.133   0.145  -1.436  0.00  0.00    -0.096 C 
ATOM     20  N   UNL     1       0.364  -1.292  -1.243  0.00  0.00    +0.378 N 
ATOM     21  C   UNL     1       1.401  -1.772  -2.182  0.00  0.00    -0.079 C 
ATOM     22  C   UNL     1       2.217  -2.849  -1.443  0.00  0.00    -0.016 C 
ATOM     23  C   UNL     1       1.599  -2.923  -0.028  0.00  0.00    -0.014 C 
ATOM     24  C   UNL     1       0.901  -1.547   0.118  0.00  0.00    -0.075 C 
ATOM     25  H   UNL     1      -0.494  -1.805  -1.380  0.00  0.00    -0.082 HD
ENDBRANCH  18  23
ENDBRANCH  16  18
ENDBRANCH   1  16
TORSDOF 6
