REMARK  Name = ZINC12750858
REMARK  10 active torsions:
REMARK  status: ('A' for Active; 'I' for Inactive)
REMARK    1  A    between atoms: C_1  and  C_2
REMARK    2  A    between atoms: C_3  and  C_29
REMARK    3  A    between atoms: C_4  and  C_28
REMARK    4  A    between atoms: C_7  and  C_8
REMARK    5  A    between atoms: C_13  and  C_16
REMARK    6  A    between atoms: C_16  and  C_18
REMARK    7  A    between atoms: C_29  and  O_31
REMARK    8  A    between atoms: O_31  and  C_32
REMARK    9  A    between atoms: C_32  and  C_33
REMARK   10  A    between atoms: C_32  and  C_34
REMARK                            x       y       z     vdW  Elec       q    Type
REMARK                         _______ _______ _______ _____ _____    ______ ____
ROOT
ATOM      1  C   UNL     1      -8.873   0.034   1.350  0.00  0.00    +0.263 C 
ATOM      2  O   UNL     1      -9.164   0.948   2.098  0.00  0.00    -0.268 OA
ATOM      3  N   UNL     1      -7.587  -0.349   1.222  0.00  0.00    -0.296 N 
ATOM      4  C   UNL     1      -7.233  -1.528   0.420  0.00  0.00    +0.109 C 
ATOM      5  C   UNL     1      -6.390  -2.475   1.280  0.00  0.00    +0.030 C 
ATOM      6  C   UNL     1      -5.187  -1.712   1.842  0.00  0.00    +0.063 C 
ATOM      7  C   UNL     1      -5.678  -0.564   2.726  0.00  0.00    +0.030 C 
ATOM      8  C   UNL     1      -6.513   0.405   1.882  0.00  0.00    +0.109 C 
ENDROOT
BRANCH   1  15
ATOM      9  C   UNL     1     -11.759  -0.561   2.372  0.00  0.00    +0.047 C 
ATOM     10  C   UNL     1     -11.186  -0.917   1.025  0.00  0.00    -0.006 A 
ATOM     11  C   UNL     1     -11.857  -1.584  -0.025  0.00  0.00    +0.083 A 
ATOM     12  C   UNL     1     -10.957  -1.707  -1.068  0.00  0.00    +0.028 A 
ATOM     13  N   UNL     1      -9.797  -1.146  -0.695  0.00  0.00    -0.354 N 
ATOM     14  H   UNL     1      -8.996  -1.095  -1.240  0.00  0.00    +0.166 HD
ATOM     15  C   UNL     1      -9.922  -0.653   0.586  0.00  0.00    +0.106 A 
ATOM     16  C   UNL     1     -11.233  -2.361  -2.397  0.00  0.00    +0.064 C 
BRANCH  11  17
ATOM     17  C   UNL     1     -13.249  -2.063  -0.009  0.00  0.00    +0.341 C 
ATOM     18  O   UNL     1     -13.502  -3.184   0.385  0.00  0.00    -0.245 OA
BRANCH  17  19
ATOM     19  O   UNL     1     -14.244  -1.257  -0.431  0.00  0.00    -0.458 OA
BRANCH  19  20
ATOM     20  C   UNL     1     -15.592  -1.795  -0.388  0.00  0.00    +0.171 C 
ATOM     21  C   UNL     1     -16.224  -1.477   0.969  0.00  0.00    +0.052 C 
ATOM     22  C   UNL     1     -16.429  -1.163  -1.501  0.00  0.00    +0.052 C 
ENDBRANCH  19  20
ENDBRANCH  17  19
ENDBRANCH  11  17
ENDBRANCH   1  15
BRANCH   6  23
ATOM     23  C   UNL     1      -4.337  -2.649   2.661  0.00  0.00    +0.166 C 
ATOM     24  O   UNL     1      -4.833  -3.634   3.165  0.00  0.00    -0.292 OA
BRANCH  23  25
ATOM     25  C   UNL     1      -2.908  -2.369   2.848  0.00  0.00    +0.021 A 
ATOM     26  C   UNL     1      -2.332  -1.233   2.267  0.00  0.00    +0.015 A 
ATOM     27  C   UNL     1      -0.991  -0.977   2.440  0.00  0.00    +0.050 A 
ATOM     28  C   UNL     1      -0.204  -1.839   3.198  0.00  0.00    +0.162 A 
ATOM     29  C   UNL     1      -0.771  -2.970   3.782  0.00  0.00    +0.163 A 
ATOM     30  C   UNL     1      -2.115  -3.237   3.608  0.00  0.00    +0.060 A 
ATOM     31  O   UNL     1      -0.014  -3.822   4.526  0.00  0.00    -0.485 OA
ATOM     32  C   UNL     1       1.406  -3.726   4.369  0.00  0.00    +0.270 C 
ATOM     33  C   UNL     1       1.794  -2.242   4.419  0.00  0.00    +0.270 C 
ATOM     34  O   UNL     1       1.118  -1.565   3.354  0.00  0.00    -0.485 OA
ENDBRANCH  23  25
ENDBRANCH   6  23
TORSDOF 6
