REMARK  Name = ZINC19955068
REMARK  6 active torsions:
REMARK  status: ('A' for Active; 'I' for Inactive)
REMARK    1  A    between atoms: C_1  and  C_2
REMARK    2  A    between atoms: C_2  and  C_3
REMARK    3  A    between atoms: C_3  and  C_5
REMARK    4  A    between atoms: C_3  and  S_8
REMARK    5  A    between atoms: S_8  and  C_9
REMARK    6  A    between atoms: C_20  and  C_24
REMARK                            x       y       z     vdW  Elec       q    Type
REMARK                         _______ _______ _______ _____ _____    ______ ____
ROOT
ATOM      1  C   UNL     1       3.102  -0.498  -2.760  0.00  0.00    +0.172 A 
ATOM      2  N   UNL     1       2.304  -1.088  -3.624  0.00  0.00    -0.185 NA
ATOM      3  C   UNL     1       2.724  -1.495  -4.825  0.00  0.00    +0.282 A 
ATOM      4  O   UNL     1       1.950  -2.038  -5.598  0.00  0.00    -0.265 OA
ATOM      5  C   UNL     1       4.139  -1.280  -5.210  0.00  0.00    +0.075 A 
ATOM      6  C   UNL     1       4.812  -1.638  -6.459  0.00  0.00    -0.023 A 
ATOM      7  C   UNL     1       6.121  -1.328  -6.559  0.00  0.00    -0.004 A 
ATOM      8  S   UNL     1       6.525  -0.554  -5.016  0.00  0.00    -0.075 S 
ATOM      9  C   UNL     1       4.930  -0.651  -4.247  0.00  0.00    +0.092 A 
ATOM     10  N   UNL     1       4.414  -0.264  -3.048  0.00  0.00    -0.328 N 
ATOM     11  C   UNL     1       7.029  -1.584  -7.722  0.00  0.00    +0.046 C 
ATOM     12  C   UNL     1       6.165  -1.922  -8.945  0.00  0.00    -0.009 C 
ATOM     13  C   UNL     1       5.121  -2.966  -8.536  0.00  0.00    +0.008 C 
ATOM     14  C   UNL     1       4.085  -2.330  -7.609  0.00  0.00    +0.037 C 
ATOM     15  C   UNL     1       7.049  -2.486 -10.059  0.00  0.00    +0.008 C 
ATOM     16  H   UNL     1       4.982   0.175  -2.396  0.00  0.00    +0.168 HD
ENDROOT
BRANCH   1  17
ATOM     17  S   UNL     1       2.460   0.006  -1.198  0.00  0.00    -0.073 S 
BRANCH  17  18
ATOM     18  C   UNL     1       0.718  -0.497  -1.257  0.00  0.00    +0.167 C 
BRANCH  18  19
ATOM     19  C   UNL     1       0.632  -2.000  -1.327  0.00  0.00    +0.369 C 
ATOM     20  O   UNL     1       0.345  -2.546  -2.380  0.00  0.00    -0.245 OA
ATOM     21  O   UNL     1       0.849  -2.671  -0.333  0.00  0.00    -0.245 OA
ENDBRANCH  18  19
BRANCH  18  23
ATOM     22  C   UNL     1      -0.019   1.526   0.010  0.00  0.00    +0.005 C 
ATOM     23  C   UNL     1       0.002  -0.004   0.002  0.00  0.00    +0.023 C 
ENDBRANCH  18  23
ENDBRANCH  17  18
ENDBRANCH   1  17
TORSDOF 4
