REMARK  Name = ZINC23447665
REMARK  7 active torsions:
REMARK  status: ('A' for Active; 'I' for Inactive)
REMARK    1  A    between atoms: C_1  and  C_2
REMARK    2  A    between atoms: C_2  and  C_3
REMARK    3  A    between atoms: C_2  and  C_4
REMARK    4  A    between atoms: C_2  and  C_5
REMARK    5  A    between atoms: C_10  and  N_11
REMARK    6  A    between atoms: C_12  and  C_14
REMARK    7  A    between atoms: C_14  and  N_15
REMARK                            x       y       z     vdW  Elec       q    Type
REMARK                         _______ _______ _______ _____ _____    ______ ____
ROOT
ATOM      1  N   UNL     1      -0.422  -6.358  -0.887  0.00  0.00    -0.215 N 
ATOM      2  C   UNL     1      -1.302  -6.862  -1.777  0.00  0.00    +0.251 C 
ATOM      3  O   UNL     1      -2.303  -6.327  -2.202  0.00  0.00    -0.272 OA
ATOM      4  C   UNL     1      -0.776  -8.235  -2.132  0.00  0.00    +0.138 C 
ATOM      5  C   UNL     1      -0.451  -8.307  -3.619  0.00  0.00    +0.040 C 
ATOM      6  C   UNL     1      -1.770  -8.342  -4.401  0.00  0.00    +0.008 C 
ATOM      7  C   UNL     1      -2.454  -9.682  -4.139  0.00  0.00    +0.035 C 
ATOM      8  C   UNL     1      -2.548  -9.953  -2.661  0.00  0.00    -0.042 A 
ATOM      9  C   UNL     1      -1.771  -9.290  -1.736  0.00  0.00    -0.012 A 
ATOM     10  C   UNL     1      -1.899  -9.593  -0.387  0.00  0.00    +0.006 A 
ATOM     11  C   UNL     1      -2.801 -10.548   0.035  0.00  0.00    +0.000 A 
ATOM     12  C   UNL     1      -3.584 -11.210  -0.893  0.00  0.00    +0.000 A 
ATOM     13  C   UNL     1      -3.457 -10.912  -2.234  0.00  0.00    +0.004 A 
ATOM     14  N   UNL     1       0.449  -8.364  -1.332  0.00  0.00    -0.281 N 
ATOM     15  C   UNL     1       0.576  -7.215  -0.642  0.00  0.00    +0.310 C 
ATOM     16  O   UNL     1       1.493  -6.983   0.122  0.00  0.00    -0.252 OA
ATOM     17  H   UNL     1       1.051  -9.124  -1.309  0.00  0.00    +0.152 HD
ENDROOT
BRANCH   1  18
ATOM     18  C   UNL     1      -0.542  -5.034  -0.271  0.00  0.00    +0.214 C 
BRANCH  18  20
ATOM     19  N   UNL     1       0.187  -2.720  -0.756  0.00  0.00    -0.284 N 
ATOM     20  C   UNL     1       0.165  -4.016  -1.128  0.00  0.00    +0.235 C 
ATOM     21  O   UNL     1       0.714  -4.362  -2.153  0.00  0.00    -0.274 OA
ATOM     22  H   UNL     1      -0.218  -2.450   0.083  0.00  0.00    +0.155 HD
BRANCH  19  28
ATOM     23  C   UNL     1       0.408  -0.434  -1.501  0.00  0.00    -0.021 A 
ATOM     24  C   UNL     1       1.011   0.507  -2.312  0.00  0.00    +0.006 A 
ATOM     25  C   UNL     1       1.993   0.123  -3.207  0.00  0.00    +0.000 A 
ATOM     26  C   UNL     1       2.374  -1.204  -3.292  0.00  0.00    +0.002 A 
ATOM     27  C   UNL     1       1.775  -2.149  -2.484  0.00  0.00    +0.023 A 
ATOM     28  C   UNL     1       0.792  -1.766  -1.581  0.00  0.00    +0.037 A 
BRANCH  23  30
ATOM     29  C   UNL     1      -1.018   1.455  -0.760  0.00  0.00    +0.015 C 
ATOM     30  C   UNL     1      -0.662  -0.014  -0.526  0.00  0.00    -0.011 C 
ATOM     31  C   UNL     1      -0.148  -0.193   0.904  0.00  0.00    +0.015 C 
ATOM     32  C   UNL     1      -1.907  -0.879  -0.732  0.00  0.00    +0.015 C 
ENDBRANCH  23  30
ENDBRANCH  19  28
ENDBRANCH  18  20
ENDBRANCH   1  18
TORSDOF 4
