REMARK  Name = ZINC32945560
REMARK  6 active torsions:
REMARK  status: ('A' for Active; 'I' for Inactive)
REMARK    1  A    between atoms: C_1  and  C_2
REMARK    2  A    between atoms: C_11  and  N_31
REMARK    3  A    between atoms: C_13  and  S_15
REMARK    4  A    between atoms: S_15  and  C_16
REMARK    5  A    between atoms: C_16  and  C_18
REMARK    6  A    between atoms: C_16  and  C_19
REMARK                            x       y       z     vdW  Elec       q    Type
REMARK                         _______ _______ _______ _____ _____    ______ ____
ROOT
ATOM      1  C   UNL     1      -4.077  -3.571  -2.241  0.00  0.00    +0.008 C 
ATOM      2  C   UNL     1      -3.008  -2.492  -2.052  0.00  0.00    -0.009 C 
ATOM      3  C   UNL     1      -3.440  -1.530  -0.942  0.00  0.00    +0.008 C 
ATOM      4  C   UNL     1      -2.508  -0.318  -0.913  0.00  0.00    +0.037 C 
ATOM      5  C   UNL     1      -1.065  -0.809  -0.835  0.00  0.00    -0.025 A 
ATOM      6  C   UNL     1      -0.749  -2.076  -1.171  0.00  0.00    -0.004 A 
ATOM      7  S   UNL     1       1.003  -2.195  -0.928  0.00  0.00    -0.073 S 
ATOM      8  C   UNL     1       1.310  -0.538  -0.374  0.00  0.00    +0.115 A 
ATOM      9  C   UNL     1       0.033   0.056  -0.397  0.00  0.00    +0.051 A 
ATOM     10  C   UNL     1      -0.017   1.419   0.010  0.00  0.00    +0.129 A 
ATOM     11  N   UNL     1       1.100   2.026   0.373  0.00  0.00    -0.207 NA
ATOM     12  C   UNL     1       2.273   1.405   0.373  0.00  0.00    +0.192 A 
ATOM     13  N   UNL     1       2.380   0.136   0.003  0.00  0.00    -0.214 NA
ATOM     14  C   UNL     1      -1.681  -3.148  -1.646  0.00  0.00    +0.046 C 
ENDROOT
BRANCH  10  15
ATOM     15  N   UNL     1      -1.220   2.102   0.019  0.00  0.00    -0.343 N 
ATOM     16  H   UNL     1      -1.252   3.155   0.335  0.00  0.00    +0.144 HD
ATOM     17  H   UNL     1      -2.144   1.592  -0.289  0.00  0.00    +0.144 HD
ENDBRANCH  10  15
BRANCH  12  18
ATOM     18  S   UNL     1       3.717   2.284   0.872  0.00  0.00    -0.075 S 
BRANCH  18  19
ATOM     19  C   UNL     1       2.988   3.898   1.247  0.00  0.00    +0.117 C 
ATOM     20  C   UNL     1       2.430   4.516  -0.036  0.00  0.00    +0.027 C 
BRANCH  19  21
ATOM     21  C   UNL     1       4.045   4.804   1.823  0.00  0.00    +0.124 A 
ATOM     22  N   UNL     1       5.344   4.558   1.513  0.00  0.00    -0.309 N 
ATOM     23  H   UNL     1       5.603   3.714   0.857  0.00  0.00    +0.170 HD
ATOM     24  C   UNL     1       6.331   5.343   2.005  0.00  0.00    +0.259 A 
ATOM     25  O   UNL     1       7.499   5.134   1.735  0.00  0.00    -0.267 OA
ATOM     26  C   UNL     1       5.936   6.459   2.878  0.00  0.00    +0.065 A 
ATOM     27  C   UNL     1       6.874   7.326   3.435  0.00  0.00    +0.015 A 
ATOM     28  C   UNL     1       6.449   8.356   4.245  0.00  0.00    +0.001 A 
ATOM     29  C   UNL     1       5.097   8.534   4.510  0.00  0.00    +0.002 A 
ATOM     30  C   UNL     1       4.155   7.688   3.970  0.00  0.00    +0.028 A 
ATOM     31  C   UNL     1       4.561   6.637   3.145  0.00  0.00    +0.078 A 
ATOM     32  N   UNL     1       3.666   5.784   2.587  0.00  0.00    -0.233 NA
ENDBRANCH  19  21
ENDBRANCH  18  19
ENDBRANCH  12  18
TORSDOF 4
