REMARK  Name = ZINC09120091
REMARK  12 active torsions:
REMARK  status: ('A' for Active; 'I' for Inactive)
REMARK    1  A    between atoms: C_1  and  C_2
REMARK    2  A    between atoms: C_2  and  C_3
REMARK    3  A    between atoms: C_2  and  C_4
REMARK    4  A    between atoms: C_4  and  C_5
REMARK    5  A    between atoms: C_5  and  C_7
REMARK    6  A    between atoms: C_5  and  N_22
REMARK    7  A    between atoms: C_7  and  O_9
REMARK    8  A    between atoms: O_9  and  C_10
REMARK    9  A    between atoms: C_10  and  C_11
REMARK   10  A    between atoms: C_14  and  C_16
REMARK   11  A    between atoms: N_20  and  C_21
REMARK   12  A    between atoms: C_23  and  C_25
REMARK                            x       y       z     vdW  Elec       q    Type
REMARK                         _______ _______ _______ _____ _____    ______ ____
ROOT
ATOM      1  C   UNL     1       6.974   3.772  -0.117  0.00  0.00    +0.182 C 
ENDROOT
BRANCH   1   2
ATOM      2  N   UNL     1       8.288   3.124  -0.107  0.00  0.00    -0.298 N 
ATOM      3  C   UNL     1       9.385   3.819  -0.469  0.00  0.00    +0.245 C 
ATOM      4  O   UNL     1       9.298   5.006  -0.716  0.00  0.00    -0.270 OA
ATOM      5  H   UNL     1       8.369   2.195   0.160  0.00  0.00    +0.150 HD
BRANCH   3   6
ATOM      6  C   UNL     1      10.692   3.137  -0.567  0.00  0.00    +0.037 A 
ATOM      7  C   UNL     1      10.796   1.775  -0.279  0.00  0.00    +0.014 A 
ATOM      8  C   UNL     1      12.017   1.143  -0.379  0.00  0.00    +0.021 A 
ATOM      9  C   UNL     1      13.143   1.859  -0.751  0.00  0.00    +0.041 A 
ATOM     10  C   UNL     1      13.047   3.212  -1.032  0.00  0.00    +0.021 A 
ATOM     11  C   UNL     1      11.830   3.854  -0.942  0.00  0.00    +0.014 A 
ATOM     12 CL   UNL     1      14.678   1.058  -0.866  0.00  0.00    -0.084 Cl
ENDBRANCH   3   6
ENDBRANCH   1   2
BRANCH   1  13
ATOM     13  C   UNL     1       5.897   2.722  -0.214  0.00  0.00    +0.328 C 
ATOM     14  O   UNL     1       6.196   1.553  -0.268  0.00  0.00    -0.249 OA
BRANCH  13  15
ATOM     15  O   UNL     1       4.605   3.086  -0.239  0.00  0.00    -0.454 OA
BRANCH  15  16
ATOM     16  C   UNL     1       3.622   2.022  -0.333  0.00  0.00    +0.328 C 
BRANCH  16  17
ATOM     17  C   UNL     1       2.238   2.617  -0.349  0.00  0.00    +0.257 C 
ATOM     18  O   UNL     1       2.094   3.819  -0.287  0.00  0.00    -0.272 OA
ATOM     19  N   UNL     1       1.159   1.813  -0.431  0.00  0.00    -0.248 N 
ATOM     20  C   UNL     1      -0.079   2.345  -0.451  0.00  0.00    +0.267 C 
ATOM     21  O   UNL     1      -0.228   3.544  -0.307  0.00  0.00    -0.268 OA
ATOM     22  H   UNL     1       1.275   0.851  -0.481  0.00  0.00    +0.158 HD
BRANCH  20  23
ATOM     23  C   UNL     1      -1.245   1.480  -0.646  0.00  0.00    +0.105 A 
ATOM     24  C   UNL     1      -1.235   0.102  -0.727  0.00  0.00    +0.032 A 
ATOM     25  C   UNL     1      -2.560  -0.305  -0.914  0.00  0.00    +0.020 A 
ATOM     26  C   UNL     1      -3.335   0.806  -0.943  0.00  0.00    +0.086 A 
ATOM     27  N   UNL     1      -2.552   1.892  -0.776  0.00  0.00    -0.346 N 
ATOM     28  C   UNL     1      -3.016   3.282  -0.742  0.00  0.00    +0.149 C 
ENDBRANCH  20  23
ENDBRANCH  16  17
ENDBRANCH  15  16
ENDBRANCH  13  15
ENDBRANCH   1  13
BRANCH   1  29
ATOM     29  C   UNL     1       6.791   4.574   1.173  0.00  0.00    +0.036 C 
BRANCH  29  31
ATOM     30  C   UNL     1       5.275   6.129   2.408  0.00  0.00    +0.007 C 
ATOM     31  C   UNL     1       5.497   5.386   1.089  0.00  0.00    -0.015 C 
ATOM     32  C   UNL     1       5.602   6.397  -0.055  0.00  0.00    +0.007 C 
ENDBRANCH  29  31
ENDBRANCH   1  29
TORSDOF 9
