REMARK  Name = ZINC12491777
REMARK  14 active torsions:
REMARK  status: ('A' for Active; 'I' for Inactive)
REMARK    1  A    between atoms: C_1  and  C_2
REMARK    2  A    between atoms: C_8  and  C_10
REMARK    3  A    between atoms: C_10  and  C_11
REMARK    4  A    between atoms: C_11  and  C_12
REMARK    5  A    between atoms: N_14  and  C_15
REMARK    6  A    between atoms: N_14  and  C_23
REMARK    7  A    between atoms: C_15  and  C_16
REMARK    8  A    between atoms: C_16  and  C_17
REMARK    9  A    between atoms: C_23  and  C_25
REMARK   10  A    between atoms: C_23  and  C_32
REMARK   11  A    between atoms: N_34  and  C_35
REMARK   12  A    between atoms: C_35  and  C_36
REMARK   13  A    between atoms: C_35  and  C_37
REMARK   14  A    between atoms: C_35  and  C_38
REMARK                            x       y       z     vdW  Elec       q    Type
REMARK                         _______ _______ _______ _____ _____    ______ ____
ROOT
ATOM      1  C   UNL     1      -5.776  -2.213  -0.884  0.00  0.00    +0.217 C 
ATOM      2  O   UNL     1      -6.551  -1.500  -1.485  0.00  0.00    -0.276 OA
ATOM      3  N   UNL     1      -6.172  -3.429  -0.458  0.00  0.00    -0.286 N 
ENDROOT
BRANCH   1   4
ATOM      4  C   UNL     1      -4.371  -1.741  -0.613  0.00  0.00    +0.105 C 
BRANCH   4   5
ATOM      5  C   UNL     1      -4.183  -0.340  -1.198  0.00  0.00    +0.105 C 
BRANCH   5  13
ATOM      6  C   UNL     1       2.365   1.667   0.138  0.00  0.00    +0.089 C 
ATOM      7  C   UNL     1       0.998   1.918  -0.446  0.00  0.00    +0.136 A 
ATOM      8  C   UNL     1      -0.060   1.076  -0.417  0.00  0.00    +0.091 A 
ATOM      9  C   UNL     1      -1.081   1.786  -1.103  0.00  0.00    +0.168 A 
ATOM     10  N   UNL     1      -0.558   2.933  -1.449  0.00  0.00    -0.063 NA
ATOM     11  O   UNL     1       0.595   3.019  -1.095  0.00  0.00    -0.358 OA
ATOM     12  N   UNL     1      -2.382   1.349  -1.353  0.00  0.00    -0.268 N 
ATOM     13  C   UNL     1      -2.778   0.133  -0.927  0.00  0.00    +0.219 C 
ATOM     14  O   UNL     1      -2.003  -0.581  -0.326  0.00  0.00    -0.275 OA
ATOM     15  H   UNL     1      -3.001   1.919  -1.834  0.00  0.00    +0.156 HD
ENDBRANCH   5  13
ENDBRANCH   4   5
ENDBRANCH   1   4
BRANCH   3  16
ATOM     16  C   UNL     1      -7.538  -3.889  -0.721  0.00  0.00    +0.113 C 
BRANCH  16  17
ATOM     17  C   UNL     1      -7.568  -4.674  -2.034  0.00  0.00    +0.049 C 
BRANCH  17  18
ATOM     18  C   UNL     1      -8.989  -5.062  -2.355  0.00  0.00    -0.072 C 
ATOM     19  C   UNL     1      -9.664  -4.291  -3.145  0.00  0.00    -0.028 C 
ATOM     20  C   UNL     1     -11.088  -4.540  -3.548  0.00  0.00    +0.027 C 
ATOM     21  C   UNL     1     -11.471  -5.993  -3.259  0.00  0.00    +0.004 C 
ATOM     22  C   UNL     1     -11.060  -6.326  -1.819  0.00  0.00    +0.005 C 
ATOM     23  C   UNL     1      -9.530  -6.320  -1.742  0.00  0.00    +0.030 C 
ENDBRANCH  17  18
ENDBRANCH  16  17
ENDBRANCH   3  16
BRANCH   3  24
ATOM     24  C   UNL     1      -5.237  -4.291   0.269  0.00  0.00    +0.194 C 
BRANCH  24  25
ATOM     25  C   UNL     1      -5.103  -3.804   1.688  0.00  0.00    +0.000 A 
ATOM     26  C   UNL     1      -6.116  -3.059   2.262  0.00  0.00    +0.007 A 
ATOM     27  C   UNL     1      -5.993  -2.611   3.564  0.00  0.00    +0.000 A 
ATOM     28  C   UNL     1      -4.857  -2.909   4.293  0.00  0.00    +0.001 A 
ATOM     29  C   UNL     1      -3.844  -3.653   3.721  0.00  0.00    +0.020 A 
ATOM     30  C   UNL     1      -3.968  -4.106   2.420  0.00  0.00    +0.046 A 
ATOM     31 CL   UNL     1      -2.698  -5.048   1.703  0.00  0.00    -0.083 Cl
ENDBRANCH  24  25
BRANCH  24  32
ATOM     32  C   UNL     1      -5.755  -5.706   0.271  0.00  0.00    +0.239 C 
ATOM     33  O   UNL     1      -6.877  -5.941   0.668  0.00  0.00    -0.273 OA
ATOM     34  N   UNL     1      -4.973  -6.711  -0.170  0.00  0.00    -0.309 N 
ATOM     35  H   UNL     1      -4.075  -6.524  -0.488  0.00  0.00    +0.149 HD
BRANCH  34  36
ATOM     36  C   UNL     1      -5.477  -8.087  -0.168  0.00  0.00    +0.026 C 
ATOM     37  C   UNL     1      -6.723  -8.175  -1.052  0.00  0.00    +0.031 C 
ATOM     38  C   UNL     1      -4.398  -9.026  -0.713  0.00  0.00    +0.031 C 
ATOM     39  C   UNL     1      -5.835  -8.497   1.262  0.00  0.00    +0.031 C 
ENDBRANCH  34  36
ENDBRANCH  24  32
ENDBRANCH   3  24
TORSDOF 10
