REMARK  Name = ZINC01828848
REMARK  11 active torsions:
REMARK  status: ('A' for Active; 'I' for Inactive)
REMARK    1  A    between atoms: C_1  and  C_2
REMARK    2  A    between atoms: C_2  and  O_3
REMARK    3  A    between atoms: O_3  and  C_4
REMARK    4  A    between atoms: C_4  and  C_6
REMARK    5  A    between atoms: C_10  and  N_11
REMARK    6  A    between atoms: C_12  and  C_14
REMARK    7  A    between atoms: C_14  and  S_15
REMARK    8  A    between atoms: S_15  and  C_16
REMARK    9  A    between atoms: C_19  and  C_21
REMARK   10  A    between atoms: C_21  and  S_22
REMARK   11  A    between atoms: S_22  and  C_23
REMARK                            x       y       z     vdW  Elec       q    Type
REMARK                         _______ _______ _______ _____ _____    ______ ____
ROOT
ATOM      1  N   UNL     1       3.744  -2.426   1.392  0.00  0.00    -0.279 N 
ATOM      2  C   UNL     1       5.047  -2.736   1.540  0.00  0.00    +0.228 C 
ATOM      3  O   UNL     1       5.445  -3.193   2.591  0.00  0.00    -0.275 OA
ATOM      4  H   UNL     1       3.425  -2.060   0.551  0.00  0.00    +0.155 HD
ENDROOT
BRANCH   1   9
ATOM      5  C   UNL     1       1.496  -2.371   2.467  0.00  0.00    +0.091 A 
ATOM      6  C   UNL     1       0.787  -2.682   3.696  0.00  0.00    -0.021 A 
ATOM      7  C   UNL     1       1.570  -3.187   4.673  0.00  0.00    -0.004 A 
ATOM      8  S   UNL     1       3.191  -3.243   3.966  0.00  0.00    -0.077 S 
ATOM      9  C   UNL     1       2.859  -2.629   2.439  0.00  0.00    +0.086 A 
ATOM     10  C   UNL     1       1.140  -3.603   6.046  0.00  0.00    +0.043 C 
ATOM     11  C   UNL     1      -0.255  -3.018   6.312  0.00  0.00    +0.005 C 
ATOM     12  C   UNL     1      -1.153  -3.312   5.107  0.00  0.00    +0.005 C 
ATOM     13  C   UNL     1      -0.705  -2.473   3.907  0.00  0.00    +0.037 C 
BRANCH   5  14
ATOM     14  C   UNL     1       0.801  -1.814   1.305  0.00  0.00    +0.342 C 
ATOM     15  O   UNL     1       0.321  -2.557   0.470  0.00  0.00    -0.245 OA
BRANCH  14  16
ATOM     16  O   UNL     1       0.693  -0.477   1.160  0.00  0.00    -0.461 OA
BRANCH  16  18
ATOM     17  C   UNL     1      -0.019   1.526   0.010  0.00  0.00    +0.048 C 
ATOM     18  C   UNL     1       0.002  -0.004   0.002  0.00  0.00    +0.229 C 
ENDBRANCH  16  18
ENDBRANCH  14  16
ENDBRANCH   5  14
ENDBRANCH   1   9
BRANCH   2  19
ATOM     19  C   UNL     1       6.009  -2.515   0.401  0.00  0.00    +0.175 C 
BRANCH  19  20
ATOM     20  S   UNL     1       7.674  -3.025   0.908  0.00  0.00    -0.056 S 
BRANCH  20  21
ATOM     21  C   UNL     1       8.668  -2.709  -0.512  0.00  0.00    +0.278 A 
ATOM     22  N   UNL     1       8.257  -2.211  -1.653  0.00  0.00    -0.101 NA
ATOM     23  N   UNL     1       9.255  -2.118  -2.460  0.00  0.00    -0.111 NA
ATOM     24  C   UNL     1      10.332  -2.550  -1.873  0.00  0.00    +0.228 A 
ATOM     25  O   UNL     1       9.991  -2.929  -0.625  0.00  0.00    -0.415 OA
BRANCH  24  26
ATOM     26  C   UNL     1      11.711  -2.610  -2.476  0.00  0.00    +0.174 C 
BRANCH  26  27
ATOM     27  S   UNL     1      12.585  -1.055  -2.143  0.00  0.00    -0.089 S 
BRANCH  27  28
ATOM     28  C   UNL     1      14.159  -1.280  -2.902  0.00  0.00    +0.136 A 
ATOM     29  N   UNL     1      14.614  -2.320  -3.565  0.00  0.00    -0.233 NA
ATOM     30  C   UNL     1      15.855  -2.353  -4.098  0.00  0.00    +0.079 A 
ATOM     31  C   UNL     1      16.463  -3.401  -4.827  0.00  0.00    +0.029 A 
ATOM     32  C   UNL     1      17.742  -3.273  -5.302  0.00  0.00    +0.002 A 
ATOM     33  C   UNL     1      18.484  -2.121  -5.086  0.00  0.00    +0.001 A 
ATOM     34  C   UNL     1      17.920  -1.076  -4.376  0.00  0.00    +0.017 A 
ATOM     35  C   UNL     1      16.640  -1.195  -3.897  0.00  0.00    +0.040 A 
ATOM     36  S   UNL     1      15.542  -0.149  -2.972  0.00  0.00    -0.061 S 
ENDBRANCH  27  28
ENDBRANCH  26  27
ENDBRANCH  24  26
ENDBRANCH  20  21
ENDBRANCH  19  20
ENDBRANCH   2  19
TORSDOF 10
