REMARK  Name = ZINC40623498
REMARK  10 active torsions:
REMARK  status: ('A' for Active; 'I' for Inactive)
REMARK    1  A    between atoms: C_1  and  C_2
REMARK    2  A    between atoms: C_3  and  C_11
REMARK    3  A    between atoms: C_8  and  C_10
REMARK    4  A    between atoms: C_11  and  C_13
REMARK    5  A    between atoms: C_11  and  N_14
REMARK    6  A    between atoms: N_14  and  C_15
REMARK    7  A    between atoms: C_15  and  C_16
REMARK    8  A    between atoms: N_20  and  C_22
REMARK    9  A    between atoms: C_22  and  C_23
REMARK   10  A    between atoms: C_22  and  C_24
REMARK                            x       y       z     vdW  Elec       q    Type
REMARK                         _______ _______ _______ _____ _____    ______ ____
ROOT
ATOM      1  N   UNL     1      -3.307  -0.441  -1.118  0.00  0.00    +0.384 N 
ATOM      2  H   UNL     1      -2.790  -0.319  -1.976  0.00  0.00    -0.085 HD
ATOM      3  H   UNL     1      -3.532  -1.418  -0.998  0.00  0.00    -0.085 HD
ENDROOT
BRANCH   1   4
ATOM      4  C   UNL     1      -2.492   0.017   0.015  0.00  0.00    -0.037 C 
ATOM      5  C   UNL     1      -3.224  -0.284   1.324  0.00  0.00    -0.009 C 
BRANCH   4   8
ATOM      6  C   UNL     1      -0.018   1.503   0.010  0.00  0.00    +0.066 C 
ATOM      7  C   UNL     1       0.002  -0.004   0.002  0.00  0.00    +0.047 A 
ATOM      8  C   UNL     1      -1.167  -0.702   0.004  0.00  0.00    +0.024 A 
ATOM      9  C   UNL     1      -1.113  -2.111  -0.005  0.00  0.00    +0.253 A 
ATOM     10  O   UNL     1      -2.136  -2.774  -0.004  0.00  0.00    -0.268 OA
ATOM     11  N   UNL     1       0.097  -2.710  -0.014  0.00  0.00    -0.311 N 
ATOM     12  H   UNL     1       0.160  -3.678  -0.020  0.00  0.00    +0.170 HD
ATOM     13  C   UNL     1       1.218  -1.962  -0.015  0.00  0.00    +0.107 A 
ATOM     14  N   UNL     1       1.167  -0.657  -0.013  0.00  0.00    -0.239 NA
ATOM     15  C   UNL     1       2.560  -2.647  -0.026  0.00  0.00    +0.086 C 
ENDBRANCH   4   8
ENDBRANCH   1   4
BRANCH   1  16
ATOM     16  C   UNL     1      -4.548   0.343  -1.178  0.00  0.00    -0.080 C 
BRANCH  16  17
ATOM     17  C   UNL     1      -5.397  -0.134  -2.358  0.00  0.00    -0.047 C 
ATOM     18  C   UNL     1      -4.740   0.256  -3.708  0.00  0.00    -0.019 C 
ATOM     19  C   UNL     1      -5.944   0.340  -4.670  0.00  0.00    -0.078 C 
ATOM     20  N   UNL     1      -7.146   0.561  -3.845  0.00  0.00    +0.381 N 
ATOM     21  C   UNL     1      -6.737   0.640  -2.426  0.00  0.00    -0.077 C 
ATOM     22  H   UNL     1      -7.790  -0.207  -3.970  0.00  0.00    -0.081 HD
BRANCH  20  23
ATOM     23  C   UNL     1      -7.795   1.817  -4.244  0.00  0.00    -0.075 C 
ATOM     24  C   UNL     1      -8.230   1.724  -5.708  0.00  0.00    -0.014 C 
ATOM     25  C   UNL     1      -9.022   2.060  -3.362  0.00  0.00    -0.014 C 
ENDBRANCH  20  23
ENDBRANCH  16  17
ENDBRANCH   1  16
TORSDOF 5
