REMARK  Name = ZINC22698988
REMARK  9 active torsions:
REMARK  status: ('A' for Active; 'I' for Inactive)
REMARK    1  A    between atoms: C_1  and  C_2
REMARK    2  A    between atoms: C_2  and  C_4
REMARK    3  A    between atoms: C_2  and  N_15
REMARK    4  A    between atoms: C_7  and  N_10
REMARK    5  A    between atoms: C_16  and  C_18
REMARK    6  A    between atoms: C_18  and  S_19
REMARK    7  A    between atoms: S_19  and  C_20
REMARK    8  A    between atoms: C_23  and  C_31
REMARK    9  A    between atoms: N_24  and  C_25
REMARK                            x       y       z     vdW  Elec       q    Type
REMARK                         _______ _______ _______ _____ _____    ______ ____
ROOT
ATOM      1  C   UNL     1       3.135   5.850  -2.357  0.00  0.00    +0.173 C 
ENDROOT
BRANCH   1   3
ATOM      2  N   UNL     1       2.188   4.103  -0.885  0.00  0.00    -0.308 N 
ATOM      3  C   UNL     1       2.063   5.326  -1.437  0.00  0.00    +0.224 C 
ATOM      4  O   UNL     1       1.088   6.005  -1.192  0.00  0.00    -0.275 OA
ATOM      5  H   UNL     1       3.072   3.487  -1.106  0.00  0.00    +0.149 HD
BRANCH   2   7
ATOM      6  C   UNL     1       1.403   4.099   1.431  0.00  0.00    +0.033 C 
ATOM      7  C   UNL     1       1.147   3.593   0.011  0.00  0.00    +0.100 C 
BRANCH   7   8
ATOM      8  C   UNL     1       1.171   2.086   0.002  0.00  0.00    -0.027 A 
ATOM      9  C   UNL     1      -0.017   1.377   0.010  0.00  0.00    +0.007 A 
ATOM     10  C   UNL     1       0.002  -0.004   0.002  0.00  0.00    +0.028 A 
ATOM     11  C   UNL     1       1.214  -0.680  -0.013  0.00  0.00    +0.067 A 
ATOM     12  C   UNL     1       2.405   0.034  -0.021  0.00  0.00    +0.028 A 
ATOM     13  C   UNL     1       2.380   1.415  -0.013  0.00  0.00    +0.007 A 
BRANCH  11  14
ATOM     14  N   UNL     1       1.237  -2.082  -0.021  0.00  0.00    -0.220 N 
ATOM     15  C   UNL     1       2.328  -2.873  -0.041  0.00  0.00    +0.225 A 
ATOM     16  N   UNL     1       1.925  -4.118  -0.038  0.00  0.00    -0.222 NA
ATOM     17  C   UNL     1       0.594  -4.163  -0.026  0.00  0.00    +0.245 A 
ATOM     18  N   UNL     1       0.126  -2.942  -0.015  0.00  0.00    -0.154 NA
ENDBRANCH  11  14
ENDBRANCH   7   8
ENDBRANCH   2   7
ENDBRANCH   1   3
BRANCH   1  19
ATOM     19  S   UNL     1       2.680   7.506  -2.931  0.00  0.00    -0.076 S 
BRANCH  19  20
ATOM     20  C   UNL     1       4.066   7.865  -3.958  0.00  0.00    +0.197 A 
ATOM     21  N   UNL     1       5.096   7.080  -4.181  0.00  0.00    -0.122 NA
ATOM     22  N   UNL     1       5.924   7.652  -4.979  0.00  0.00    -0.128 NA
ATOM     23  C   UNL     1       5.476   8.839  -5.316  0.00  0.00    +0.171 A 
ATOM     24  N   UNL     1       4.268   9.012  -4.676  0.00  0.00    -0.270 N 
BRANCH  24  25
ATOM     25  C   UNL     1       3.424  10.129  -4.745  0.00  0.00    +0.051 A 
ATOM     26  C   UNL     1       2.820  10.471  -5.947  0.00  0.00    +0.026 A 
ATOM     27  C   UNL     1       1.984  11.569  -6.011  0.00  0.00    +0.002 A 
ATOM     28  C   UNL     1       1.758  12.334  -4.881  0.00  0.00    +0.000 A 
ATOM     29  C   UNL     1       2.364  11.999  -3.684  0.00  0.00    +0.002 A 
ATOM     30  C   UNL     1       3.196  10.899  -3.613  0.00  0.00    +0.026 A 
ENDBRANCH  24  25
BRANCH  23  31
ATOM     31  C   UNL     1       6.140   9.806  -6.216  0.00  0.00    +0.038 A 
ATOM     32  C   UNL     1       7.191   9.400  -7.047  0.00  0.00    +0.014 A 
ATOM     33  C   UNL     1       7.778  10.343  -7.871  0.00  0.00    +0.020 A 
ATOM     34  C   UNL     1       7.312  11.646  -7.848  0.00  0.00    +0.111 A 
ATOM     35  N   UNL     1       6.319  12.000  -7.055  0.00  0.00    -0.263 NA
ATOM     36  C   UNL     1       5.725  11.138  -6.256  0.00  0.00    +0.122 A 
ENDBRANCH  23  31
ENDBRANCH  19  20
ENDBRANCH   1  19
TORSDOF 8
