REMARK  Name = ZINC45379848
REMARK  7 active torsions:
REMARK  status: ('A' for Active; 'I' for Inactive)
REMARK    1  A    between atoms: C_1  and  C_2
REMARK    2  A    between atoms: C_2  and  C_4
REMARK    3  A    between atoms: C_2  and  N_13
REMARK    4  A    between atoms: C_4  and  C_5
REMARK    5  A    between atoms: C_5  and  C_6
REMARK    6  A    between atoms: C_9  and  O_12
REMARK    7  A    between atoms: C_20  and  C_23
REMARK                            x       y       z     vdW  Elec       q    Type
REMARK                         _______ _______ _______ _____ _____    ______ ____
ROOT
ATOM      1  N   UNL     1       2.745  -0.264   0.066  0.00  0.00    -0.297 N 
ATOM      2  C   UNL     1       2.054  -0.600   1.174  0.00  0.00    +0.302 C 
ATOM      3  O   UNL     1       0.853  -0.414   1.220  0.00  0.00    -0.253 OA
ATOM      4  N   UNL     1       2.694  -1.141   2.229  0.00  0.00    -0.285 N 
ATOM      5  C   UNL     1       1.940  -1.618   3.397  0.00  0.00    +0.109 C 
ATOM      6  C   UNL     1       2.336  -3.071   3.679  0.00  0.00    +0.020 C 
ATOM      7  C   UNL     1       3.856  -3.161   3.832  0.00  0.00    +0.014 C 
ATOM      8  C   UNL     1       4.529  -2.721   2.529  0.00  0.00    +0.072 C 
ATOM      9  C   UNL     1       4.157  -1.270   2.232  0.00  0.00    +0.120 C 
ATOM     10  H   UNL     1       3.712  -0.343   0.056  0.00  0.00    +0.151 HD
ENDROOT
BRANCH   8  11
ATOM     11  C   UNL     1       6.024  -2.841   2.670  0.00  0.00    +0.113 A 
ATOM     12  N   UNL     1       6.834  -1.894   3.216  0.00  0.00    -0.342 N 
ATOM     13  H   UNL     1       6.556  -1.038   3.577  0.00  0.00    +0.167 HD
ATOM     14  C   UNL     1       8.126  -2.378   3.161  0.00  0.00    +0.066 A 
ATOM     15  C   UNL     1       9.362  -1.882   3.554  0.00  0.00    +0.028 A 
ATOM     16  C   UNL     1      10.497  -2.638   3.352  0.00  0.00    +0.002 A 
ATOM     17  C   UNL     1      10.412  -3.890   2.759  0.00  0.00    +0.002 A 
ATOM     18  C   UNL     1       9.204  -4.394   2.366  0.00  0.00    +0.030 A 
ATOM     19  C   UNL     1       8.040  -3.646   2.561  0.00  0.00    +0.089 A 
ATOM     20  N   UNL     1       6.728  -3.868   2.292  0.00  0.00    -0.232 NA
ENDBRANCH   8  11
BRANCH   1  22
ATOM     21  C   UNL     1       1.565  -0.974  -1.955  0.00  0.00    +0.028 C 
ATOM     22  C   UNL     1       2.036   0.219  -1.121  0.00  0.00    +0.072 C 
BRANCH  22  23
ATOM     23  C   UNL     1       2.978   1.087  -1.959  0.00  0.00    +0.026 C 
BRANCH  23  24
ATOM     24  C   UNL     1       3.351   2.343  -1.170  0.00  0.00    +0.037 C 
BRANCH  24  25
ATOM     25  C   UNL     1       4.278   3.197  -1.996  0.00  0.00    -0.047 A 
ATOM     26  C   UNL     1       5.646   3.012  -1.911  0.00  0.00    +0.007 A 
ATOM     27  C   UNL     1       6.498   3.794  -2.667  0.00  0.00    +0.045 A 
ATOM     28  C   UNL     1       5.981   4.766  -3.511  0.00  0.00    +0.117 A 
ATOM     29  C   UNL     1       4.608   4.950  -3.594  0.00  0.00    +0.045 A 
ATOM     30  C   UNL     1       3.760   4.162  -2.841  0.00  0.00    +0.007 A 
BRANCH  28  31
ATOM     31  O   UNL     1       6.817   5.537  -4.254  0.00  0.00    -0.507 OA
ATOM     32  H   UNL     1       7.020   5.169  -5.125  0.00  0.00    +0.292 HD
ENDBRANCH  28  31
ENDBRANCH  24  25
ENDBRANCH  23  24
ENDBRANCH  22  23
ENDBRANCH   1  22
TORSDOF 6
