REMARK  Name = ZINC16934881
REMARK  5 active torsions:
REMARK  status: ('A' for Active; 'I' for Inactive)
REMARK    1  A    between atoms: C_2  and  C_3
REMARK    2  A    between atoms: C_3  and  N_4
REMARK    3  A    between atoms: C_8  and  C_9
REMARK    4  A    between atoms: N_18  and  C_19
REMARK    5  A    between atoms: C_22  and  O_25
REMARK                            x       y       z     vdW  Elec       q    Type
REMARK                         _______ _______ _______ _____ _____    ______ ____
ROOT
ATOM      1  N   UNL     1      -1.995   3.321  -1.236  0.00  0.00    -0.242 N 
ATOM      2  C   UNL     1      -1.407   3.712  -2.354  0.00  0.00    +0.259 C 
ATOM      3  O   UNL     1      -0.203   3.614  -2.508  0.00  0.00    -0.269 OA
ATOM      4  C   UNL     1      -2.276   4.271  -3.408  0.00  0.00    +0.078 C 
ATOM      5  C   UNL     1      -1.946   4.740  -4.637  0.00  0.00    +0.028 C 
ATOM      6  S   UNL     1      -3.880   4.167  -2.627  0.00  0.00    -0.049 S 
ATOM      7  C   UNL     1      -3.359   3.445  -1.079  0.00  0.00    +0.169 C 
ATOM      8  N   UNL     1      -4.095   3.113  -0.044  0.00  0.00    -0.225 NA
ENDROOT
BRANCH   5   9
ATOM      9  C   UNL     1      -3.002   5.104  -5.592  0.00  0.00    -0.024 A 
ATOM     10  C   UNL     1      -2.703   5.912  -6.696  0.00  0.00    +0.011 A 
ATOM     11  C   UNL     1      -3.697   6.245  -7.591  0.00  0.00    +0.039 A 
ATOM     12  C   UNL     1      -4.992   5.790  -7.394  0.00  0.00    +0.123 A 
ATOM     13  C   UNL     1      -5.296   4.995  -6.300  0.00  0.00    +0.039 A 
ATOM     14  C   UNL     1      -4.312   4.650  -5.400  0.00  0.00    +0.011 A 
ATOM     15  F   UNL     1      -5.963   6.125  -8.272  0.00  0.00    -0.205 F 
ENDBRANCH   5   9
BRANCH   8  16
ATOM     16  C   UNL     1      -5.450   3.316  -0.074  0.00  0.00    +0.067 A 
ATOM     17  C   UNL     1      -5.967   4.524  -0.544  0.00  0.00    +0.031 A 
ATOM     18  C   UNL     1      -7.332   4.721  -0.578  0.00  0.00    +0.047 A 
ATOM     19  C   UNL     1      -8.190   3.724  -0.134  0.00  0.00    +0.117 A 
ATOM     20  C   UNL     1      -7.680   2.523   0.339  0.00  0.00    +0.047 A 
ATOM     21  C   UNL     1      -6.317   2.316   0.371  0.00  0.00    +0.031 A 
BRANCH  19  22
ATOM     22  O   UNL     1      -9.535   3.925  -0.164  0.00  0.00    -0.507 OA
ATOM     23  H   UNL     1      -9.891   4.319   0.644  0.00  0.00    +0.292 HD
ENDBRANCH  19  22
ENDBRANCH   8  16
BRANCH   1  24
ATOM     24  C   UNL     1      -1.189   2.754  -0.152  0.00  0.00    +0.142 C 
BRANCH  24  26
ATOM     25  C   UNL     1       0.079   0.679  -0.377  0.00  0.00    +0.005 C 
ATOM     26  C   UNL     1      -1.094   1.260  -0.325  0.00  0.00    -0.015 C 
ENDBRANCH  24  26
ENDBRANCH   1  24
TORSDOF 5
