REMARK  Name = ZINC67036695
REMARK  7 active torsions:
REMARK  status: ('A' for Active; 'I' for Inactive)
REMARK    1  A    between atoms: C_1  and  C_2
REMARK    2  A    between atoms: C_2  and  C_4
REMARK    3  A    between atoms: C_2  and  N_15
REMARK    4  A    between atoms: C_16  and  C_18
REMARK    5  A    between atoms: C_21  and  C_23
REMARK    6  A    between atoms: C_23  and  N_24
REMARK    7  A    between atoms: C_25  and  C_27
REMARK                            x       y       z     vdW  Elec       q    Type
REMARK                         _______ _______ _______ _____ _____    ______ ____
ROOT
ATOM      1  N   UNL     1      -1.372  -0.511   0.012  0.00  0.00    -0.304 N 
ATOM      2  C   UNL     1      -2.051  -0.643  -1.145  0.00  0.00    +0.251 C 
ATOM      3  O   UNL     1      -1.522  -0.340  -2.198  0.00  0.00    -0.270 OA
ATOM      4  H   UNL     1      -1.794  -0.752   0.852  0.00  0.00    +0.150 HD
ENDROOT
BRANCH   2   5
ATOM      5  C   UNL     1      -3.426  -1.150  -1.134  0.00  0.00    +0.074 A 
ATOM      6  C   UNL     1      -4.287  -1.364  -2.200  0.00  0.00    +0.021 A 
ATOM      7  C   UNL     1      -5.529  -1.853  -1.875  0.00  0.00    +0.013 A 
ATOM      8  C   UNL     1      -5.825  -2.088  -0.573  0.00  0.00    +0.008 A 
ATOM      9  S   UNL     1      -4.425  -1.660   0.251  0.00  0.00    -0.087 S 
BRANCH   8  10
ATOM     10  C   UNL     1      -7.113  -2.618   0.003  0.00  0.00    +0.146 C 
BRANCH  10  11
ATOM     11  N   UNL     1      -7.055  -4.080   0.065  0.00  0.00    -0.311 N 
ATOM     12  C   UNL     1      -8.103  -4.776   0.549  0.00  0.00    +0.210 C 
ATOM     13  O   UNL     1      -9.094  -4.192   0.933  0.00  0.00    -0.276 OA
ATOM     14  C   UNL     1      -8.043  -6.281   0.613  0.00  0.00    +0.109 C 
ATOM     15  H   UNL     1      -6.263  -4.548  -0.242  0.00  0.00    +0.149 HD
ENDBRANCH  10  11
ENDBRANCH   8  10
ENDBRANCH   2   5
BRANCH   1  17
ATOM     16  C   UNL     1      -0.019   1.526   0.010  0.00  0.00    +0.033 C 
ATOM     17  C   UNL     1       0.002  -0.004   0.002  0.00  0.00    +0.101 C 
BRANCH  17  18
ATOM     18  C   UNL     1       0.731  -0.503   1.223  0.00  0.00    -0.024 A 
ATOM     19  C   UNL     1       0.079  -0.558   2.441  0.00  0.00    +0.009 A 
ATOM     20  C   UNL     1       0.741  -1.015   3.566  0.00  0.00    +0.050 A 
ATOM     21  C   UNL     1       2.062  -1.419   3.467  0.00  0.00    +0.162 A 
ATOM     22  C   UNL     1       2.716  -1.365   2.245  0.00  0.00    +0.162 A 
ATOM     23  C   UNL     1       2.049  -0.911   1.120  0.00  0.00    +0.055 A 
ATOM     24  O   UNL     1       4.018  -1.767   2.159  0.00  0.00    -0.488 OA
ATOM     25  C   UNL     1       4.973  -0.940   2.826  0.00  0.00    +0.232 C 
ATOM     26  C   UNL     1       5.072  -1.310   4.298  0.00  0.00    +0.082 C 
ATOM     27  C   UNL     1       3.780  -1.038   5.052  0.00  0.00    +0.232 C 
ATOM     28  O   UNL     1       2.727  -1.874   4.569  0.00  0.00    -0.488 OA
ENDBRANCH  17  18
ENDBRANCH   1  17
TORSDOF 5
