REMARK  Name = ZINC03210012
REMARK  6 active torsions:
REMARK  status: ('A' for Active; 'I' for Inactive)
REMARK    1  A    between atoms: C_1  and  C_2
REMARK    2  A    between atoms: C_5  and  S_8
REMARK    3  A    between atoms: S_8  and  N_11
REMARK    4  A    between atoms: N_14  and  N_15
REMARK    5  A    between atoms: C_16  and  C_18
REMARK    6  A    between atoms: C_18  and  N_19
REMARK                            x       y       z     vdW  Elec       q    Type
REMARK                         _______ _______ _______ _____ _____    ______ ____
ROOT
ATOM      1  N   UNL     1      -0.782   1.917  -1.389  0.00  0.00    -0.168 N 
ATOM      2  C   UNL     1      -0.924   3.225  -1.685  0.00  0.00    +0.335 C 
ATOM      3  O   UNL     1      -0.398   4.067  -0.984  0.00  0.00    -0.250 OA
ATOM      4  N   UNL     1      -1.650   3.598  -2.758  0.00  0.00    -0.217 N 
ATOM      5  H   UNL     1      -1.202   1.245  -1.949  0.00  0.00    +0.178 HD
ATOM      6  H   UNL     1      -1.752   4.539  -2.971  0.00  0.00    +0.174 HD
ENDROOT
BRANCH   4   7
ATOM      7  N   UNL     1      -2.256   2.627  -3.566  0.00  0.00    -0.232 N 
ATOM      8  C   UNL     1      -2.982   3.000  -4.638  0.00  0.00    +0.246 C 
ATOM      9  O   UNL     1      -3.110   4.176  -4.904  0.00  0.00    -0.273 OA
ATOM     10  H   UNL     1      -2.154   1.686  -3.353  0.00  0.00    +0.173 HD
BRANCH   8  11
ATOM     11  C   UNL     1      -3.634   1.955  -5.507  0.00  0.00    +0.202 C 
BRANCH  11  12
ATOM     12  N   UNL     1      -4.466   2.614  -6.523  0.00  0.00    -0.321 N 
ATOM     13  C   UNL     1      -3.638   3.291  -7.522  0.00  0.00    +0.106 C 
ATOM     14  C   UNL     1      -4.558   3.981  -8.537  0.00  0.00    +0.024 C 
ATOM     15  C   UNL     1      -5.269   5.132  -7.820  0.00  0.00    +0.038 C 
ATOM     16  C   UNL     1      -5.819   4.646  -6.503  0.00  0.00    -0.026 A 
ATOM     17  C   UNL     1      -5.406   3.455  -5.930  0.00  0.00    +0.033 A 
ATOM     18  C   UNL     1      -5.946   3.062  -4.704  0.00  0.00    +0.023 A 
ATOM     19  C   UNL     1      -6.885   3.847  -4.070  0.00  0.00    +0.002 A 
ATOM     20  C   UNL     1      -7.297   5.033  -4.650  0.00  0.00    +0.000 A 
ATOM     21  C   UNL     1      -6.765   5.429  -5.861  0.00  0.00    +0.005 A 
ENDBRANCH  11  12
ENDBRANCH   8  11
ENDBRANCH   4   7
BRANCH   1  22
ATOM     22  S   UNL     1       0.110   1.459  -0.071  0.00  0.00    +0.076 S 
ATOM     23  O   UNL     1       0.049   0.041  -0.013  0.00  0.00    -0.150 OA
ATOM     24  O   UNL     1       1.340   2.167  -0.147  0.00  0.00    -0.150 OA
BRANCH  22  29
ATOM     25  C   UNL     1      -2.759   3.509   4.825  0.00  0.00    +0.044 C 
ATOM     26  C   UNL     1      -2.043   2.997   3.602  0.00  0.00    -0.050 A 
ATOM     27  C   UNL     1      -2.335   1.741   3.105  0.00  0.00    +0.005 A 
ATOM     28  C   UNL     1      -1.677   1.271   1.983  0.00  0.00    +0.029 A 
ATOM     29  C   UNL     1      -0.728   2.058   1.358  0.00  0.00    +0.109 A 
ATOM     30  C   UNL     1      -0.433   3.312   1.858  0.00  0.00    +0.029 A 
ATOM     31  C   UNL     1      -1.093   3.784   2.977  0.00  0.00    +0.005 A 
ENDBRANCH  22  29
ENDBRANCH   1  22
TORSDOF 5
