REMARK  Name = ZINC64131627
REMARK  5 active torsions:
REMARK  status: ('A' for Active; 'I' for Inactive)
REMARK    1  A    between atoms: C_7  and  C_10
REMARK    2  A    between atoms: C_10  and  C_11
REMARK    3  A    between atoms: C_16  and  N_19
REMARK    4  A    between atoms: C_22  and  C_25
REMARK    5  A    between atoms: N_27  and  C_28
REMARK                            x       y       z     vdW  Elec       q    Type
REMARK                         _______ _______ _______ _____ _____    ______ ____
ROOT
ATOM      1  C   UNL     1       0.460  -3.646  -1.440  0.00  0.00    +0.220 C 
ATOM      2  O   UNL     1       1.006  -3.075  -2.360  0.00  0.00    -0.275 OA
ATOM      3  N   UNL     1      -0.353  -4.693  -1.684  0.00  0.00    -0.301 N 
ATOM      4  C   UNL     1      -1.026  -5.391  -0.581  0.00  0.00    +0.106 C 
ATOM      5  C   UNL     1      -2.530  -5.433  -0.868  0.00  0.00    +0.004 C 
ATOM      6  C   UNL     1      -2.765  -6.059  -2.245  0.00  0.00    -0.066 C 
ATOM      7  C   UNL     1      -2.092  -5.202  -3.319  0.00  0.00    +0.004 C 
ATOM      8  C   UNL     1      -0.588  -5.154  -3.059  0.00  0.00    +0.106 C 
ENDROOT
BRANCH   6   9
ATOM      9  N   UNL     1      -4.208  -6.131  -2.510  0.00  0.00    +0.382 N 
ATOM     10  C   UNL     1      -4.432  -6.724  -3.834  0.00  0.00    -0.078 C 
ATOM     11  C   UNL     1      -5.930  -6.727  -4.149  0.00  0.00    -0.006 C 
ATOM     12  C   UNL     1      -6.667  -7.549  -3.088  0.00  0.00    +0.071 C 
ATOM     13  C   UNL     1      -6.367  -6.967  -1.705  0.00  0.00    -0.006 C 
ATOM     14  C   UNL     1      -4.853  -6.955  -1.480  0.00  0.00    -0.078 C 
ATOM     15  H   UNL     1      -4.600  -5.202  -2.489  0.00  0.00    -0.081 HD
BRANCH  12  16
ATOM     16  C   UNL     1      -8.151  -7.492  -3.348  0.00  0.00    +0.216 C 
ATOM     17  O   UNL     1      -8.578  -6.856  -4.288  0.00  0.00    -0.276 OA
ATOM     18  N   UNL     1      -9.003  -8.147  -2.535  0.00  0.00    -0.312 N 
ATOM     19  H   UNL     1      -8.662  -8.656  -1.783  0.00  0.00    +0.149 HD
BRANCH  18  20
ATOM     20  C   UNL     1     -10.445  -8.091  -2.788  0.00  0.00    +0.073 C 
ATOM     21  C   UNL     1     -11.365  -7.878  -1.584  0.00  0.00    +0.024 C 
ATOM     22  C   UNL     1     -11.299  -9.247  -2.263  0.00  0.00    +0.024 C 
ENDBRANCH  18  20
ENDBRANCH  12  16
ENDBRANCH   6   9
BRANCH   1  23
ATOM     23  C   UNL     1       0.691  -3.186  -0.024  0.00  0.00    +0.129 C 
BRANCH  23  30
ATOM     24  C   UNL     1      -0.016   1.348   0.009  0.00  0.00    +0.001 A 
ATOM     25  C   UNL     1       1.166   2.101   0.002  0.00  0.00    +0.002 A 
ATOM     26  C   UNL     1       2.391   1.535  -0.013  0.00  0.00    +0.026 A 
ATOM     27  C   UNL     1       2.529   0.120  -0.022  0.00  0.00    +0.043 A 
ATOM     28  N   UNL     1       3.587  -0.654  -0.037  0.00  0.00    -0.380 N 
ATOM     29  C   UNL     1       3.143  -2.053  -0.041  0.00  0.00    +0.145 C 
ATOM     30  C   UNL     1       1.631  -2.008  -0.025  0.00  0.00    -0.033 C 
ATOM     31  C   UNL     1       1.295  -0.698  -0.014  0.00  0.00    -0.001 A 
ATOM     32  C   UNL     1       0.002  -0.004   0.002  0.00  0.00    +0.010 A 
ATOM     33  H   UNL     1       4.509  -0.353  -0.045  0.00  0.00    +0.160 HD
ENDBRANCH  23  30
ENDBRANCH   1  23
TORSDOF 5
