REMARK  Name = ZINC65696174
REMARK  9 active torsions:
REMARK  status: ('A' for Active; 'I' for Inactive)
REMARK    1  A    between atoms: C_1  and  C_2
REMARK    2  A    between atoms: C_3  and  C_30
REMARK    3  A    between atoms: C_9  and  C_12
REMARK    4  A    between atoms: C_12  and  N_13
REMARK    5  A    between atoms: N_16  and  N_17
REMARK    6  A    between atoms: C_18  and  C_20
REMARK    7  A    between atoms: C_20  and  C_21
REMARK    8  A    between atoms: C_20  and  O_22
REMARK    9  A    between atoms: O_22  and  C_23
REMARK                            x       y       z     vdW  Elec       q    Type
REMARK                         _______ _______ _______ _____ _____    ______ ____
ROOT
ATOM      1  N   UNL     1      -1.259  -2.014   5.973  0.00  0.00    -0.294 N 
ATOM      2  C   UNL     1      -1.583  -1.600   7.214  0.00  0.00    +0.316 C 
ATOM      3  O   UNL     1      -0.711  -1.414   8.040  0.00  0.00    -0.251 OA
ATOM      4  N   UNL     1      -2.874  -1.392   7.539  0.00  0.00    -0.218 N 
ATOM      5  H   UNL     1      -1.955  -2.162   5.314  0.00  0.00    +0.151 HD
ATOM      6  H   UNL     1      -3.108  -1.094   8.432  0.00  0.00    +0.174 HD
ENDROOT
BRANCH   4   7
ATOM      7  N   UNL     1      -3.880  -1.606   6.587  0.00  0.00    -0.230 N 
ATOM      8  C   UNL     1      -5.171  -1.399   6.913  0.00  0.00    +0.270 C 
ATOM      9  O   UNL     1      -5.463  -1.026   8.030  0.00  0.00    -0.270 OA
ATOM     10  H   UNL     1      -3.647  -1.904   5.694  0.00  0.00    +0.173 HD
BRANCH   8  11
ATOM     11  C   UNL     1      -6.253  -1.629   5.889  0.00  0.00    +0.257 C 
ATOM     12  C   UNL     1      -6.095  -0.625   4.745  0.00  0.00    +0.062 C 
BRANCH  11  13
ATOM     13  O   UNL     1      -7.532  -1.456   6.501  0.00  0.00    -0.480 OA
BRANCH  13  14
ATOM     14  C   UNL     1      -8.583  -2.100   5.927  0.00  0.00    +0.122 A 
ATOM     15  C   UNL     1      -8.407  -2.794   4.739  0.00  0.00    +0.048 A 
ATOM     16  C   UNL     1      -9.475  -3.448   4.156  0.00  0.00    +0.042 A 
ATOM     17  C   UNL     1     -10.722  -3.411   4.758  0.00  0.00    +0.124 A 
ATOM     18  C   UNL     1     -10.899  -2.719   5.944  0.00  0.00    +0.042 A 
ATOM     19  C   UNL     1      -9.831  -2.069   6.532  0.00  0.00    +0.048 A 
ATOM     20  F   UNL     1     -11.766  -4.051   4.188  0.00  0.00    -0.205 F 
ENDBRANCH  13  14
ENDBRANCH  11  13
ENDBRANCH   8  11
ENDBRANCH   4   7
BRANCH   1  21
ATOM     21  C   UNL     1       0.144  -2.240   5.619  0.00  0.00    +0.141 C 
BRANCH  21  30
ATOM     22  C   UNL     1       0.695  -0.006   0.373  0.00  0.00    +0.046 C 
ATOM     23  C   UNL     1       0.594  -1.496   0.578  0.00  0.00    -0.022 A 
ATOM     24  C   UNL     1       0.623  -2.437  -0.378  0.00  0.00    +0.017 A 
ATOM     25  N   UNL     1       0.504  -3.679   0.185  0.00  0.00    -0.358 N 
ATOM     26  H   UNL     1       0.500  -4.515  -0.305  0.00  0.00    +0.166 HD
ATOM     27  C   UNL     1       0.394  -3.563   1.553  0.00  0.00    +0.047 A 
ATOM     28  C   UNL     1       0.451  -2.191   1.860  0.00  0.00    +0.003 A 
ATOM     29  C   UNL     1       0.368  -1.770   3.188  0.00  0.00    +0.015 A 
ATOM     30  C   UNL     1       0.234  -2.695   4.186  0.00  0.00    -0.030 A 
ATOM     31  C   UNL     1       0.181  -4.050   3.889  0.00  0.00    +0.007 A 
ATOM     32  C   UNL     1       0.252  -4.487   2.584  0.00  0.00    +0.026 A 
ATOM     33  C   UNL     1       0.764  -2.167  -1.854  0.00  0.00    +0.063 C 
ENDBRANCH  21  30
ENDBRANCH   1  21
TORSDOF 6
