REMARK  Name = ZINC22503047
REMARK  5 active torsions:
REMARK  status: ('A' for Active; 'I' for Inactive)
REMARK    1  A    between atoms: C_4  and  C_7
REMARK    2  A    between atoms: C_9  and  C_13
REMARK    3  A    between atoms: C_19  and  C_21
REMARK    4  A    between atoms: C_21  and  O_22
REMARK    5  A    between atoms: O_22  and  C_23
REMARK                            x       y       z     vdW  Elec       q    Type
REMARK                         _______ _______ _______ _____ _____    ______ ____
ROOT
ATOM      1  C   UNL     1       0.002  -0.004   0.002  0.00  0.00    +0.203 A 
ATOM      2  N   UNL     1       1.260  -0.387  -0.012  0.00  0.00    -0.125 NA
ATOM      3  N   UNL     1       2.031   0.644  -0.014  0.00  0.00    -0.120 NA
ATOM      4  C   UNL     1       1.313   1.728  -0.001  0.00  0.00    +0.218 A 
ATOM      5  N   UNL     1      -0.017   1.385   0.010  0.00  0.00    -0.184 N 
ATOM      6  N   UNL     1      -0.926   2.433   0.029  0.00  0.00    -0.157 NA
ATOM      7  C   UNL     1      -0.533   3.672   0.027  0.00  0.00    +0.140 A 
ATOM      8  S   UNL     1       1.245   3.502   0.009  0.00  0.00    -0.028 S 
ENDROOT
BRANCH   1  11
ATOM      9  C   UNL     1      -2.511  -2.685  -0.160  0.00  0.00    +0.093 A 
ATOM     10  C   UNL     1      -1.187  -2.234  -0.286  0.00  0.00    +0.061 A 
ATOM     11  C   UNL     1      -1.175  -0.889   0.008  0.00  0.00    +0.105 A 
ATOM     12  N   UNL     1      -2.457  -0.528   0.312  0.00  0.00    -0.273 N 
ATOM     13  H   UNL     1      -2.686   0.512   0.587  0.00  0.00    +0.189 HD
ATOM     14  N   UNL     1      -3.266  -1.666   0.194  0.00  0.00    -0.173 NA
BRANCH   9  18
ATOM     15  C   UNL     1      -3.856  -6.667  -0.808  0.00  0.00    +0.000 A 
ATOM     16  C   UNL     1      -4.758  -5.687  -0.438  0.00  0.00    +0.001 A 
ATOM     17  C   UNL     1      -4.327  -4.393  -0.226  0.00  0.00    +0.010 A 
ATOM     18  C   UNL     1      -2.980  -4.075  -0.386  0.00  0.00    +0.002 A 
ATOM     19  C   UNL     1      -2.076  -5.065  -0.765  0.00  0.00    +0.010 A 
ATOM     20  C   UNL     1      -2.517  -6.357  -0.968  0.00  0.00    +0.001 A 
ENDBRANCH   9  18
ENDBRANCH   1  11
BRANCH   7  21
ATOM     21  C   UNL     1      -1.363   4.929   0.041  0.00  0.00    +0.293 C 
BRANCH  21  22
ATOM     22  O   UNL     1      -1.613   5.320   1.392  0.00  0.00    -0.484 OA
BRANCH  22  23
ATOM     23  C   UNL     1      -2.354   6.444   1.583  0.00  0.00    +0.139 A 
ATOM     24  C   UNL     1      -2.831   7.155   0.492  0.00  0.00    +0.048 A 
ATOM     25  C   UNL     1      -3.584   8.297   0.687  0.00  0.00    +0.023 A 
ATOM     26  C   UNL     1      -3.863   8.731   1.971  0.00  0.00    +0.043 A 
ATOM     27  C   UNL     1      -3.389   8.024   3.061  0.00  0.00    +0.043 A 
ATOM     28  C   UNL     1      -2.640   6.878   2.870  0.00  0.00    +0.084 A 
ATOM     29 CL   UNL     1      -2.052   5.986   4.238  0.00  0.00    -0.080 Cl
ATOM     30 CL   UNL     1      -4.809  10.166   2.213  0.00  0.00    -0.083 Cl
ENDBRANCH  22  23
ENDBRANCH  21  22
ENDBRANCH   7  21
TORSDOF 5
