REMARK  Name = ZINC04862031
REMARK  9 active torsions:
REMARK  status: ('A' for Active; 'I' for Inactive)
REMARK    1  A    between atoms: C_1  and  C_2
REMARK    2  A    between atoms: C_2  and  C_3
REMARK    3  A    between atoms: C_3  and  C_4
REMARK    4  A    between atoms: C_3  and  C_5
REMARK    5  A    between atoms: C_3  and  N_6
REMARK    6  A    between atoms: C_7  and  C_11
REMARK    7  A    between atoms: C_11  and  C_13
REMARK    8  A    between atoms: C_11  and  N_54
REMARK    9  A    between atoms: C_22  and  C_25
REMARK                            x       y       z     vdW  Elec       q    Type
REMARK                         _______ _______ _______ _____ _____    ______ ____
ROOT
ATOM      1  C   UNL     1      -0.644   1.745   0.144  0.00  0.00    +0.033 C 
ENDROOT
BRANCH   1   2
ATOM      2  C   UNL     1      -1.418   2.498   1.195  0.00  0.00    -0.054 A 
ATOM      3  C   UNL     1      -1.111   3.818   1.467  0.00  0.00    +0.004 A 
ATOM      4  C   UNL     1      -1.824   4.511   2.426  0.00  0.00    +0.020 A 
ATOM      5  C   UNL     1      -2.840   3.879   3.123  0.00  0.00    +0.041 A 
ATOM      6  C   UNL     1      -3.143   2.557   2.854  0.00  0.00    +0.020 A 
ATOM      7  C   UNL     1      -2.433   1.867   1.890  0.00  0.00    +0.004 A 
ATOM      8 CL   UNL     1      -3.732   4.747   4.334  0.00  0.00    -0.084 Cl
ENDBRANCH   1   2
BRANCH   1  14
ATOM      9  C   UNL     1       1.581   1.307  -0.705  0.00  0.00    -0.077 C 
ATOM     10  C   UNL     1       3.060   1.657  -0.529  0.00  0.00    -0.006 C 
ATOM     11  C   UNL     1       3.535   1.171   0.843  0.00  0.00    +0.071 C 
ATOM     12  C   UNL     1       2.670   1.812   1.931  0.00  0.00    -0.006 C 
ATOM     13  C   UNL     1       1.202   1.457   1.684  0.00  0.00    -0.077 C 
ATOM     14  N   UNL     1       0.800   1.975   0.358  0.00  0.00    +0.389 N 
ATOM     15  H   UNL     1       0.986   2.984   0.324  0.00  0.00    -0.080 HD
BRANCH  11  16
ATOM     16  C   UNL     1       4.976   1.564   1.047  0.00  0.00    +0.213 C 
ATOM     17  O   UNL     1       5.281   2.286   1.972  0.00  0.00    -0.276 OA
ATOM     18  N   UNL     1       5.924   1.113   0.202  0.00  0.00    -0.329 N 
ATOM     19  H   UNL     1       5.679   0.535  -0.538  0.00  0.00    +0.145 HD
ATOM     20  H   UNL     1       6.851   1.366   0.334  0.00  0.00    +0.145 HD
ENDBRANCH  11  16
ENDBRANCH   1  14
BRANCH   1  22
ATOM     21  N   UNL     1      -1.693   1.583  -2.175  0.00  0.00    -0.225 N 
ATOM     22  C   UNL     1      -1.023   2.256  -1.222  0.00  0.00    +0.143 A 
ATOM     23  N   UNL     1      -0.768   3.446  -1.711  0.00  0.00    -0.115 NA
ATOM     24  N   UNL     1      -1.250   3.497  -2.905  0.00  0.00    -0.023 NA
ATOM     25  N   UNL     1      -1.812   2.374  -3.187  0.00  0.00    -0.043 NA
BRANCH  21  26
ATOM     26  C   UNL     1      -2.194   0.209  -2.080  0.00  0.00    +0.061 C 
ATOM     27  C   UNL     1      -1.015  -0.755  -1.933  0.00  0.00    +0.036 C 
ATOM     28  C   UNL     1      -3.111   0.084  -0.862  0.00  0.00    +0.036 C 
BRANCH  26  30
ATOM     29  C   UNL     1      -3.502  -1.570  -3.248  0.00  0.00    +0.006 C 
ATOM     30  C   UNL     1      -2.979  -0.136  -3.347  0.00  0.00    +0.026 C 
ENDBRANCH  26  30
ENDBRANCH  21  26
ENDBRANCH   1  22
TORSDOF 6
