REMARK  Name = ZINC65298312
REMARK  10 active torsions:
REMARK  status: ('A' for Active; 'I' for Inactive)
REMARK    1  A    between atoms: C_1  and  C_2
REMARK    2  A    between atoms: C_2  and  O_3
REMARK    3  A    between atoms: O_3  and  C_4
REMARK    4  A    between atoms: C_13  and  C_26
REMARK    5  A    between atoms: C_16  and  C_18
REMARK    6  A    between atoms: C_21  and  C_25
REMARK    7  A    between atoms: C_22  and  C_24
REMARK    8  A    between atoms: C_30  and  O_33
REMARK    9  A    between atoms: C_31  and  O_32
REMARK   10  A    between atoms: O_33  and  C_34
REMARK                            x       y       z     vdW  Elec       q    Type
REMARK                         _______ _______ _______ _____ _____    ______ ____
ROOT
ATOM      1  C   UNL     1       0.801  -1.812   1.304  0.00  0.00    +0.403 C 
ATOM      2  O   UNL     1       0.321  -2.554   0.470  0.00  0.00    -0.226 OA
ATOM      3  N   UNL     1       1.441  -2.324   2.374  0.00  0.00    -0.267 N 
ATOM      4  C   UNL     1       2.021  -1.440   3.394  0.00  0.00    +0.111 C 
ATOM      5  C   UNL     1       1.484  -1.853   4.768  0.00  0.00    +0.029 C 
ATOM      6  C   UNL     1       1.768  -3.341   4.996  0.00  0.00    +0.032 C 
ATOM      7  C   UNL     1       1.040  -4.163   3.927  0.00  0.00    +0.029 C 
ATOM      8  C   UNL     1       1.567  -3.778   2.546  0.00  0.00    +0.111 C 
ATOM      9  N   UNL     1       1.268  -3.728   6.322  0.00  0.00    +0.401 N 
ATOM     10  C   UNL     1       2.075  -3.053   7.351  0.00  0.00    -0.028 C 
ATOM     11  C   UNL     1       3.482  -3.659   7.331  0.00  0.00    +0.044 C 
ATOM     12  C   UNL     1       3.976  -3.721   5.912  0.00  0.00    +0.040 C 
ATOM     13  N   UNL     1       3.203  -3.583   4.901  0.00  0.00    -0.300 NA
ATOM     14  H   UNL     1       0.302  -3.450   6.414  0.00  0.00    -0.081 HD
ATOM     15  H   UNL     1       1.346  -4.728   6.434  0.00  0.00    -0.081 HD
ENDROOT
BRANCH  12  16
ATOM     16  C   UNL     1       5.415  -3.951   5.674  0.00  0.00    -0.004 A 
ATOM     17  C   UNL     1       6.287  -4.112   6.753  0.00  0.00    +0.010 A 
ATOM     18  C   UNL     1       7.630  -4.327   6.524  0.00  0.00    +0.004 A 
ATOM     19  C   UNL     1       8.114  -4.383   5.229  0.00  0.00    -0.048 A 
ATOM     20  C   UNL     1       7.256  -4.224   4.155  0.00  0.00    -0.047 A 
ATOM     21  C   UNL     1       5.909  -4.015   4.370  0.00  0.00    +0.013 A 
ATOM     22  C   UNL     1       7.792  -4.286   2.748  0.00  0.00    +0.044 C 
ATOM     23  C   UNL     1       9.583  -4.618   4.987  0.00  0.00    +0.044 C 
ENDBRANCH  12  16
BRANCH  10  24
ATOM     24  C   UNL     1       1.450  -3.263   8.707  0.00  0.00    -0.016 A 
ATOM     25  C   UNL     1       0.649  -4.366   8.935  0.00  0.00    +0.006 A 
ATOM     26  C   UNL     1       0.074  -4.561  10.177  0.00  0.00    +0.004 A 
ATOM     27  C   UNL     1       0.298  -3.654  11.196  0.00  0.00    +0.049 A 
ATOM     28  C   UNL     1       1.099  -2.547  10.974  0.00  0.00    +0.161 A 
ATOM     29  C   UNL     1       1.683  -2.353   9.725  0.00  0.00    +0.160 A 
BRANCH  29  30
ATOM     30  O   UNL     1       2.476  -1.270   9.504  0.00  0.00    -0.503 OA
ATOM     31  H   UNL     1       1.999  -0.492   9.186  0.00  0.00    +0.292 HD
ENDBRANCH  29  30
BRANCH  28  32
ATOM     32  O   UNL     1       1.321  -1.653  11.975  0.00  0.00    -0.491 OA
ATOM     33  C   UNL     1       0.694  -1.919  13.232  0.00  0.00    +0.277 C 
ENDBRANCH  28  32
ENDBRANCH  10  24
BRANCH   1  34
ATOM     34  O   UNL     1       0.693  -0.477   1.160  0.00  0.00    -0.451 OA
BRANCH  34  36
ATOM     35  C   UNL     1      -0.019   1.526   0.010  0.00  0.00    +0.048 C 
ATOM     36  C   UNL     1       0.002  -0.004   0.002  0.00  0.00    +0.230 C 
ENDBRANCH  34  36
ENDBRANCH   1  34
TORSDOF 6
