REMARK  Name = ZINC39287120
REMARK  5 active torsions:
REMARK  status: ('A' for Active; 'I' for Inactive)
REMARK    1  A    between atoms: C_4  and  N_7
REMARK    2  A    between atoms: N_7  and  C_8
REMARK    3  A    between atoms: C_16  and  C_18
REMARK    4  A    between atoms: C_18  and  N_19
REMARK    5  A    between atoms: N_19  and  C_20
REMARK                            x       y       z     vdW  Elec       q    Type
REMARK                         _______ _______ _______ _____ _____    ______ ____
ROOT
ATOM      1  N   UNL     1       2.825  -0.440  -2.397  0.00  0.00    -0.295 N 
ATOM      2  C   UNL     1       2.483  -0.209  -3.680  0.00  0.00    +0.199 C 
ATOM      3  O   UNL     1       1.568   0.544  -3.937  0.00  0.00    -0.278 OA
ENDROOT
BRANCH   1   4
ATOM      4  C   UNL     1       3.994  -1.267  -2.088  0.00  0.00    +0.099 C 
ATOM      5  C   UNL     1       3.586  -2.411  -1.145  0.00  0.00    +0.046 C 
ATOM      6  C   UNL     1       4.849  -3.090  -0.562  0.00  0.00    +0.168 C 
ATOM      7  S   UNL     1       6.083  -1.727  -0.576  0.00  0.00    -0.029 S 
ATOM      8  O   UNL     1       7.149  -2.078  -1.447  0.00  0.00    -0.174 OA
ATOM      9  O   UNL     1       6.371  -1.350   0.764  0.00  0.00    -0.174 OA
ATOM     10  C   UNL     1       5.071  -0.407  -1.367  0.00  0.00    +0.188 C 
ENDBRANCH   1   4
BRANCH   1  14
ATOM     11  C   UNL     1      -0.235   1.752  -0.390  0.00  0.00    +0.000 C 
ATOM     12  C   UNL     1       1.203   2.263  -0.292  0.00  0.00    +0.002 C 
ATOM     13  C   UNL     1       2.036   1.661  -1.426  0.00  0.00    +0.022 C 
ATOM     14  C   UNL     1       2.028   0.136  -1.311  0.00  0.00    +0.076 C 
ATOM     15  C   UNL     1       0.589  -0.375  -1.408  0.00  0.00    +0.022 C 
ATOM     16  C   UNL     1      -0.243   0.226  -0.274  0.00  0.00    +0.002 C 
ENDBRANCH   1  14
BRANCH   2  17
ATOM     17  C   UNL     1       3.239  -0.886  -4.795  0.00  0.00    +0.016 C 
BRANCH  17  18
ATOM     18  N   UNL     1       2.754  -0.386  -6.088  0.00  0.00    +0.389 N 
ATOM     19  H   UNL     1       1.769  -0.586  -6.179  0.00  0.00    -0.085 HD
ATOM     20  H   UNL     1       2.901   0.611  -6.140  0.00  0.00    -0.085 HD
BRANCH  18  21
ATOM     21  C   UNL     1       3.490  -1.046  -7.175  0.00  0.00    -0.030 C 
ATOM     22  C   UNL     1       4.981  -0.653  -7.071  0.00  0.00    +0.152 C 
ATOM     23  S   UNL     1       5.444  -0.524  -8.853  0.00  0.00    -0.031 S 
ATOM     24  O   UNL     1       5.725  -1.821  -9.361  0.00  0.00    -0.174 OA
ATOM     25  O   UNL     1       6.395   0.519  -9.018  0.00  0.00    -0.174 OA
ATOM     26  C   UNL     1       3.803   0.038  -9.484  0.00  0.00    +0.183 C 
ATOM     27  C   UNL     1       2.846  -0.664  -8.499  0.00  0.00    +0.089 C 
ATOM     28 CL   UNL     1       1.456   0.435  -8.167  0.00  0.00    -0.122 Cl
ENDBRANCH  18  21
ENDBRANCH  17  18
ENDBRANCH   2  17
TORSDOF 5
