REMARK  Name = ZINC64697146
REMARK  11 active torsions:
REMARK  status: ('A' for Active; 'I' for Inactive)
REMARK    1  A    between atoms: C_1  and  C_2
REMARK    2  A    between atoms: C_2  and  C_4
REMARK    3  A    between atoms: C_2  and  N_17
REMARK    4  A    between atoms: N_17  and  C_18
REMARK    5  A    between atoms: C_18  and  C_19
REMARK    6  A    between atoms: C_19  and  C_21
REMARK    7  A    between atoms: C_19  and  C_31
REMARK    8  A    between atoms: C_25  and  O_29
REMARK    9  A    between atoms: C_26  and  O_27
REMARK   10  A    between atoms: O_27  and  C_28
REMARK   11  A    between atoms: O_29  and  C_30
REMARK                            x       y       z     vdW  Elec       q    Type
REMARK                         _______ _______ _______ _____ _____    ______ ____
ROOT
ATOM      1  C   UNL     1      -3.485  -0.656  -1.224  0.00  0.00    +0.034 C 
ENDROOT
BRANCH   1   2
ATOM      2  C   UNL     1      -3.465  -2.163  -1.232  0.00  0.00    -0.036 C 
ATOM      3  C   UNL     1      -3.990  -2.988  -0.298  0.00  0.00    -0.001 A 
ATOM      4  C   UNL     1      -4.709  -2.740   0.958  0.00  0.00    +0.010 A 
ATOM      5  C   UNL     1      -5.120  -3.794   1.698  0.00  0.00    +0.001 A 
ATOM      6  C   UNL     1      -4.878  -5.115   1.297  0.00  0.00    +0.002 A 
ATOM      7  C   UNL     1      -4.224  -5.423   0.157  0.00  0.00    +0.026 A 
ATOM      8  C   UNL     1      -3.747  -4.392  -0.699  0.00  0.00    +0.043 A 
ATOM      9  N   UNL     1      -3.097  -4.433  -1.837  0.00  0.00    -0.380 N 
ATOM     10  C   UNL     1      -2.859  -3.058  -2.289  0.00  0.00    +0.145 C 
ATOM     11  H   UNL     1      -2.822  -5.238  -2.303  0.00  0.00    +0.160 HD
ENDBRANCH   1   2
BRANCH   1  12
ATOM     12  C   UNL     1      -4.214  -0.157  -2.444  0.00  0.00    +0.003 A 
ATOM     13  C   UNL     1      -3.753  -0.482  -3.707  0.00  0.00    +0.008 A 
ATOM     14  C   UNL     1      -4.419  -0.026  -4.828  0.00  0.00    +0.004 A 
ATOM     15  C   UNL     1      -5.550   0.759  -4.694  0.00  0.00    +0.049 A 
ATOM     16  C   UNL     1      -6.017   1.088  -3.432  0.00  0.00    +0.162 A 
ATOM     17  C   UNL     1      -5.350   0.624  -2.302  0.00  0.00    +0.165 A 
BRANCH  17  18
ATOM     18  O   UNL     1      -5.809   0.940  -1.062  0.00  0.00    -0.491 OA
ATOM     19  C   UNL     1      -5.306   2.141  -0.471  0.00  0.00    +0.277 C 
ENDBRANCH  17  18
BRANCH  16  20
ATOM     20  O   UNL     1      -7.129   1.860  -3.298  0.00  0.00    -0.491 OA
ATOM     21  C   UNL     1      -7.766   2.296  -4.501  0.00  0.00    +0.277 C 
ENDBRANCH  16  20
ENDBRANCH   1  12
BRANCH   1  22
ATOM     22  C   UNL     1      -2.050  -0.126  -1.234  0.00  0.00    -0.069 C 
BRANCH  22  23
ATOM     23  N   UNL     1      -1.376  -0.512   0.012  0.00  0.00    +0.387 N 
ATOM     24  H   UNL     1      -1.363  -1.518   0.090  0.00  0.00    -0.085 HD
ATOM     25  H   UNL     1      -1.873  -0.121   0.799  0.00  0.00    -0.085 HD
BRANCH  23  27
ATOM     26  C   UNL     1      -0.019   1.526   0.010  0.00  0.00    -0.004 C 
ATOM     27  C   UNL     1       0.002  -0.004   0.002  0.00  0.00    +0.013 C 
BRANCH  27  28
ATOM     28  C   UNL     1       0.731  -0.503   1.223  0.00  0.00    +0.206 C 
ATOM     29  O   UNL     1       0.159  -1.213   2.023  0.00  0.00    -0.277 OA
ATOM     30  N   UNL     1       2.019  -0.161   1.426  0.00  0.00    -0.262 N 
ATOM     31  C   UNL     1       2.733   0.703   0.474  0.00  0.00    +0.209 C 
ATOM     32  C   UNL     1       4.125   0.161   0.269  0.00  0.00    +0.235 C 
ATOM     33  O   UNL     1       4.690   0.347  -0.789  0.00  0.00    -0.274 OA
ATOM     34  N   UNL     1       4.749  -0.525   1.244  0.00  0.00    -0.283 N 
ATOM     35  C   UNL     1       4.102  -0.796   2.455  0.00  0.00    +0.055 A 
ATOM     36  C   UNL     1       2.719  -0.614   2.555  0.00  0.00    +0.058 A 
ATOM     37  C   UNL     1       2.063  -0.878   3.744  0.00  0.00    +0.025 A 
ATOM     38  C   UNL     1       2.783  -1.319   4.841  0.00  0.00    +0.002 A 
ATOM     39  C   UNL     1       4.151  -1.494   4.750  0.00  0.00    +0.002 A 
ATOM     40  C   UNL     1       4.816  -1.239   3.556  0.00  0.00    +0.025 A 
ATOM     41  H   UNL     1       5.658  -0.836   1.106  0.00  0.00    +0.155 HD
ENDBRANCH  27  28
ENDBRANCH  23  27
ENDBRANCH  22  23
ENDBRANCH   1  22
TORSDOF 8
