REMARK  Name = ZINC28821620
REMARK  10 active torsions:
REMARK  status: ('A' for Active; 'I' for Inactive)
REMARK    1  A    between atoms: C_1  and  S_2
REMARK    2  A    between atoms: S_2  and  C_5
REMARK    3  A    between atoms: C_8  and  C_11
REMARK    4  A    between atoms: C_11  and  N_12
REMARK    5  A    between atoms: N_19  and  C_22
REMARK    6  A    between atoms: C_22  and  C_23
REMARK    7  A    between atoms: N_31  and  C_32
REMARK    8  A    between atoms: C_32  and  C_33
REMARK    9  A    between atoms: C_33  and  C_34
REMARK   10  A    between atoms: C_34  and  C_35
REMARK                            x       y       z     vdW  Elec       q    Type
REMARK                         _______ _______ _______ _____ _____    ______ ____
ROOT
ATOM      1  N   UNL     1      -0.299   5.688  -1.211  0.00  0.00    -0.288 N 
ATOM      2  C   UNL     1      -0.701   6.474  -0.143  0.00  0.00    +0.073 A 
ATOM      3  C   UNL     1      -1.318   7.713  -0.024  0.00  0.00    +0.048 A 
ATOM      4  C   UNL     1      -1.576   8.208   1.239  0.00  0.00    +0.113 A 
ATOM      5  N   UNL     1      -1.246   7.525   2.320  0.00  0.00    -0.261 NA
ATOM      6  C   UNL     1      -0.658   6.345   2.252  0.00  0.00    +0.138 A 
ATOM      7  C   UNL     1      -0.365   5.778   1.024  0.00  0.00    +0.088 A 
ATOM      8  N   UNL     1       0.232   4.588   0.622  0.00  0.00    -0.283 N 
ATOM      9  C   UNL     1       0.262   4.564  -0.725  0.00  0.00    +0.331 A 
ATOM     10  O   UNL     1       0.723   3.662  -1.400  0.00  0.00    -0.246 OA
ENDROOT
BRANCH   1  11
ATOM     11  C   UNL     1      -0.453   6.024  -2.629  0.00  0.00    +0.162 C 
BRANCH  11  15
ATOM     12  C   UNL     1       3.003   8.145  -3.972  0.00  0.00    +0.088 A 
ATOM     13  C   UNL     1       2.962   6.766  -4.057  0.00  0.00    +0.027 A 
ATOM     14  C   UNL     1       1.843   6.080  -3.622  0.00  0.00    +0.007 A 
ATOM     15  C   UNL     1       0.766   6.773  -3.103  0.00  0.00    -0.027 A 
ATOM     16  C   UNL     1       0.805   8.152  -3.023  0.00  0.00    +0.007 A 
ATOM     17  C   UNL     1       1.925   8.838  -3.453  0.00  0.00    +0.027 A 
BRANCH  12  19
ATOM     18  C   UNL     1       4.111   9.370  -6.276  0.00  0.00    +0.200 C 
ATOM     19  S   UNL     1       4.429   9.020  -4.525  0.00  0.00    -0.006 S 
ATOM     20  O   UNL     1       4.427  10.227  -3.776  0.00  0.00    -0.170 OA
ATOM     21  O   UNL     1       5.496   8.091  -4.398  0.00  0.00    -0.170 OA
ENDBRANCH  12  19
ENDBRANCH  11  15
ENDBRANCH   1  11
BRANCH   8  22
ATOM     22  C   UNL     1       0.745   3.542   1.510  0.00  0.00    +0.201 C 
BRANCH  22  23
ATOM     23  C   UNL     1      -0.296   2.464   1.672  0.00  0.00    +0.131 A 
ATOM     24  N   UNL     1      -0.489   1.483   0.840  0.00  0.00    -0.230 NA
ATOM     25  C   UNL     1      -1.506   0.701   1.284  0.00  0.00    +0.089 A 
ATOM     26  C   UNL     1      -2.120  -0.454   0.791  0.00  0.00    +0.030 A 
ATOM     27  C   UNL     1      -3.149  -1.026   1.483  0.00  0.00    +0.002 A 
ATOM     28  C   UNL     1      -3.594  -0.472   2.675  0.00  0.00    +0.002 A 
ATOM     29  C   UNL     1      -3.003   0.666   3.181  0.00  0.00    +0.028 A 
ATOM     30  C   UNL     1      -1.956   1.262   2.491  0.00  0.00    +0.069 A 
ATOM     31  N   UNL     1      -1.169   2.374   2.711  0.00  0.00    -0.326 N 
BRANCH  31  32
ATOM     32  C   UNL     1      -1.260   3.290   3.851  0.00  0.00    +0.124 C 
BRANCH  32  33
ATOM     33  C   UNL     1      -0.456   2.727   5.024  0.00  0.00    +0.036 C 
BRANCH  33  34
ATOM     34  C   UNL     1      -0.458   3.735   6.175  0.00  0.00    +0.120 C 
BRANCH  34  35
ATOM     35  C   UNL     1       0.316   3.193   7.304  0.00  0.00    +0.063 C 
ATOM     36  N   UNL     1       0.913   2.775   8.175  0.00  0.00    -0.197 NA
ENDBRANCH  34  35
ENDBRANCH  33  34
ENDBRANCH  32  33
ENDBRANCH  31  32
ENDBRANCH  22  23
ENDBRANCH   8  22
TORSDOF 9
