REMARK  Name = ZINC39946418
REMARK  7 active torsions:
REMARK  status: ('A' for Active; 'I' for Inactive)
REMARK    1  A    between atoms: C_1  and  C_2
REMARK    2  A    between atoms: C_2  and  C_3
REMARK    3  A    between atoms: C_3  and  C_4
REMARK    4  A    between atoms: C_4  and  N_5
REMARK    5  A    between atoms: N_7  and  N_18
REMARK    6  A    between atoms: C_8  and  C_12
REMARK    7  A    between atoms: C_19  and  C_20
REMARK                            x       y       z     vdW  Elec       q    Type
REMARK                         _______ _______ _______ _____ _____    ______ ____
ROOT
ATOM      1  N   UNL     1       1.159  -2.579   2.583  0.00  0.00    -0.366 N 
ATOM      2  C   UNL     1       1.635  -3.792   2.605  0.00  0.00    +0.151 C 
ATOM      3  N   UNL     1       2.500  -4.349   3.527  0.00  0.00    -0.195 N 
ATOM      4  C   UNL     1       3.198  -5.576   3.193  0.00  0.00    +0.147 C 
ATOM      5  C   UNL     1       2.825  -6.122   1.795  0.00  0.00    +0.107 C 
ATOM      6  S   UNL     1       1.313  -5.120   1.453  0.00  0.00    -0.089 S 
ATOM      7  H   UNL     1       1.352  -1.969   3.312  0.00  0.00    +0.161 HD
ENDROOT
BRANCH   4   8
ATOM      8  C   UNL     1       4.681  -5.315   3.229  0.00  0.00    +0.014 A 
ATOM      9  C   UNL     1       5.676  -6.109   3.697  0.00  0.00    +0.014 A 
ATOM     10  C   UNL     1       6.981  -5.659   3.627  0.00  0.00    +0.023 A 
ATOM     11  C   UNL     1       7.228  -4.436   3.093  0.00  0.00    +0.055 A 
ATOM     12  S   UNL     1       5.586  -3.885   2.660  0.00  0.00    -0.084 S 
ATOM     13 BR   UNL     1       8.882  -3.550   2.860  0.00  0.00    -0.043 Br
ENDBRANCH   4   8
BRANCH   3  14
ATOM     14  N   UNL     1       2.701  -3.736   4.771  0.00  0.00    -0.185 NA
ATOM     15  C   UNL     1       3.454  -4.315   5.673  0.00  0.00    +0.136 C 
BRANCH  15  16
ATOM     16  C   UNL     1       3.752  -3.650   6.868  0.00  0.00    +0.000 C 
ATOM     17  C   UNL     1       4.537  -4.118   7.922  0.00  0.00    +0.004 A 
ATOM     18  C   UNL     1       5.241  -5.325   8.123  0.00  0.00    +0.010 A 
ATOM     19  C   UNL     1       5.938  -5.514   9.272  0.00  0.00    +0.001 A 
ATOM     20  C   UNL     1       5.979  -4.539  10.272  0.00  0.00    +0.002 A 
ATOM     21  C   UNL     1       5.328  -3.358  10.147  0.00  0.00    +0.026 A 
ATOM     22  C   UNL     1       4.577  -3.087   8.972  0.00  0.00    +0.043 A 
ATOM     23  N   UNL     1       3.868  -2.036   8.614  0.00  0.00    -0.380 N 
ATOM     24  C   UNL     1       3.295  -2.269   7.285  0.00  0.00    +0.150 C 
ATOM     25  H   UNL     1       3.748  -1.233   9.144  0.00  0.00    +0.160 HD
ENDBRANCH  15  16
ENDBRANCH   3  14
BRANCH   1  26
ATOM     26  C   UNL     1       0.331  -2.138   1.458  0.00  0.00    +0.114 C 
BRANCH  26  27
ATOM     27  C   UNL     1      -0.096  -0.685   1.678  0.00  0.00    +0.021 C 
BRANCH  27  29
ATOM     28  C   UNL     1      -1.387   1.229   0.723  0.00  0.00    +0.004 C 
ATOM     29  C   UNL     1      -0.960  -0.224   0.503  0.00  0.00    -0.002 C 
ENDBRANCH  27  29
ENDBRANCH  26  27
ENDBRANCH   1  26
TORSDOF 6
