REMARK  Name = ZINC35791772
REMARK  11 active torsions:
REMARK  status: ('A' for Active; 'I' for Inactive)
REMARK    1  A    between atoms: C_1  and  O_2
REMARK    2  A    between atoms: O_2  and  C_3
REMARK    3  A    between atoms: C_6  and  C_9
REMARK    4  A    between atoms: C_9  and  N_10
REMARK    5  A    between atoms: C_19  and  C_21
REMARK    6  A    between atoms: C_24  and  O_31
REMARK    7  A    between atoms: C_25  and  O_29
REMARK    8  A    between atoms: C_26  and  O_27
REMARK    9  A    between atoms: O_27  and  C_28
REMARK   10  A    between atoms: O_29  and  C_30
REMARK   11  A    between atoms: O_31  and  C_32
REMARK                            x       y       z     vdW  Elec       q    Type
REMARK                         _______ _______ _______ _____ _____    ______ ____
ROOT
ATOM      1  N   UNL     1      -5.434  -2.840  -1.333  0.00  0.00    +0.391 N 
ATOM      2  C   UNL     1      -5.788  -1.560  -1.950  0.00  0.00    -0.075 C 
ATOM      3  C   UNL     1      -6.173  -1.744  -3.413  0.00  0.00    +0.003 C 
ATOM      4  C   UNL     1      -5.346  -2.877  -4.026  0.00  0.00    +0.119 C 
ATOM      5  N   UNL     1      -6.044  -4.149  -3.808  0.00  0.00    -0.352 N 
ATOM      6  C   UNL     1      -6.255  -5.126  -4.733  0.00  0.00    +0.086 A 
ATOM      7  C   UNL     1      -6.915  -6.138  -4.135  0.00  0.00    +0.019 A 
ATOM      8  C   UNL     1      -7.124  -5.771  -2.791  0.00  0.00    +0.021 A 
ATOM      9  C   UNL     1      -6.588  -4.547  -2.619  0.00  0.00    +0.010 A 
ATOM     10  C   UNL     1      -6.593  -3.742  -1.343  0.00  0.00    +0.014 C 
ATOM     11  H   UNL     1      -4.677  -3.261  -1.851  0.00  0.00    -0.080 HD
ENDROOT
BRANCH  10  12
ATOM     12  C   UNL     1      -6.517  -4.673  -0.160  0.00  0.00    -0.010 A 
ATOM     13  C   UNL     1      -5.395  -5.460   0.027  0.00  0.00    +0.010 A 
ATOM     14  C   UNL     1      -5.320  -6.315   1.110  0.00  0.00    +0.050 A 
ATOM     15  C   UNL     1      -6.370  -6.388   2.013  0.00  0.00    +0.165 A 
ATOM     16  C   UNL     1      -7.498  -5.599   1.828  0.00  0.00    +0.204 A 
ATOM     17  C   UNL     1      -7.568  -4.736   0.741  0.00  0.00    +0.167 A 
BRANCH  17  18
ATOM     18  O   UNL     1      -8.668  -3.958   0.559  0.00  0.00    -0.491 OA
ATOM     19  C   UNL     1      -9.775  -4.549  -0.124  0.00  0.00    +0.277 C 
ENDBRANCH  17  18
BRANCH  16  20
ATOM     20  O   UNL     1      -8.531  -5.668   2.712  0.00  0.00    -0.488 OA
ATOM     21  C   UNL     1      -8.490  -4.776   3.828  0.00  0.00    +0.277 C 
ENDBRANCH  16  20
BRANCH  15  22
ATOM     22  O   UNL     1      -6.295  -7.231   3.077  0.00  0.00    -0.491 OA
ATOM     23  C   UNL     1      -5.105  -8.013   3.204  0.00  0.00    +0.277 C 
ENDBRANCH  15  22
ENDBRANCH  10  12
BRANCH   1  24
ATOM     24  C   UNL     1      -5.006  -2.611   0.054  0.00  0.00    -0.042 C 
BRANCH  24  28
ATOM     25  C   UNL     1      -1.486  -0.188   0.078  0.00  0.00    +0.120 A 
ATOM     26  C   UNL     1      -2.739   0.406   0.120  0.00  0.00    +0.046 A 
ATOM     27  C   UNL     1      -3.875  -0.379   0.112  0.00  0.00    +0.005 A 
ATOM     28  C   UNL     1      -3.765  -1.756   0.062  0.00  0.00    -0.064 A 
ATOM     29  C   UNL     1      -2.518  -2.351   0.020  0.00  0.00    +0.005 A 
ATOM     30  C   UNL     1      -1.378  -1.570   0.022  0.00  0.00    +0.046 A 
BRANCH  25  32
ATOM     31  C   UNL     1      -0.553   1.997   0.144  0.00  0.00    +0.277 C 
ATOM     32  O   UNL     1      -0.366   0.582   0.086  0.00  0.00    -0.495 OA
ENDBRANCH  25  32
ENDBRANCH  24  28
ENDBRANCH   1  24
TORSDOF 7
