REMARK  Name = ZINC08879939
REMARK  6 active torsions:
REMARK  status: ('A' for Active; 'I' for Inactive)
REMARK    1  A    between atoms: C_4  and  C_7
REMARK    2  A    between atoms: N_14  and  C_32
REMARK    3  A    between atoms: C_15  and  C_17
REMARK    4  A    between atoms: C_17  and  N_55
REMARK    5  A    between atoms: C_21  and  C_23
REMARK    6  A    between atoms: C_32  and  C_33
REMARK                            x       y       z     vdW  Elec       q    Type
REMARK                         _______ _______ _______ _____ _____    ______ ____
ROOT
ATOM      1  C   UNL     1       2.181   0.915  -0.997  0.00  0.00    +0.004 A 
ATOM      2  C   UNL     1       1.629   2.153  -0.986  0.00  0.00    +0.056 A 
ATOM      3  S   UNL     1      -0.107   1.828  -0.745  0.00  0.00    -0.076 S 
ATOM      4  C   UNL     1      -0.052   0.056  -0.666  0.00  0.00    +0.116 A 
ATOM      5  C   UNL     1       1.311  -0.242  -0.828  0.00  0.00    +0.080 A 
ATOM      6  C   UNL     1       1.648  -1.633  -0.803  0.00  0.00    +0.264 A 
ATOM      7  O   UNL     1       2.806  -1.992  -0.936  0.00  0.00    -0.267 OA
ATOM      8  N   UNL     1       0.668  -2.539  -0.631  0.00  0.00    -0.284 N 
ATOM      9  C   UNL     1      -0.627  -2.158  -0.482  0.00  0.00    +0.098 A 
ATOM     10  N   UNL     1      -0.966  -0.897  -0.501  0.00  0.00    -0.228 NA
ENDROOT
BRANCH   1  14
ATOM     11  C   UNL     1       6.371   0.418  -1.514  0.00  0.00    +0.000 A 
ATOM     12  C   UNL     1       5.659   1.219  -2.389  0.00  0.00    +0.001 A 
ATOM     13  C   UNL     1       4.298   1.384  -2.227  0.00  0.00    +0.008 A 
ATOM     14  C   UNL     1       3.642   0.742  -1.178  0.00  0.00    -0.017 A 
ATOM     15  C   UNL     1       4.366  -0.060  -0.296  0.00  0.00    +0.008 A 
ATOM     16  C   UNL     1       5.725  -0.221  -0.472  0.00  0.00    +0.001 A 
ENDBRANCH   1  14
BRANCH   9  17
ATOM     17  C   UNL     1      -1.691  -3.208  -0.293  0.00  0.00    -0.002 C 
BRANCH  17  22
ATOM     18  C   UNL     1      -3.143  -1.929   1.175  0.00  0.00    -0.077 C 
ATOM     19  C   UNL     1      -4.645  -2.078   1.525  0.00  0.00    -0.020 C 
ATOM     20  C   UNL     1      -4.965  -3.479   0.940  0.00  0.00    -0.010 C 
ATOM     21  C   UNL     1      -4.095  -3.531  -0.334  0.00  0.00    -0.011 C 
ATOM     22  N   UNL     1      -3.014  -2.544  -0.159  0.00  0.00    +0.390 N 
ATOM     23  H   UNL     1      -3.098  -1.816  -0.878  0.00  0.00    -0.080 HD
BRANCH  21  24
ATOM     24  C   UNL     1      -3.526  -4.915  -0.509  0.00  0.00    +0.066 A 
ATOM     25  N   UNL     1      -2.741  -5.575   0.295  0.00  0.00    -0.246 NA
ATOM     26  C   UNL     1      -2.299  -6.819   0.018  0.00  0.00    +0.078 A 
ATOM     27  C   UNL     1      -1.453  -7.655   0.780  0.00  0.00    +0.029 A 
ATOM     28  C   UNL     1      -1.113  -8.893   0.333  0.00  0.00    +0.002 A 
ATOM     29  C   UNL     1      -1.579  -9.383  -0.879  0.00  0.00    +0.001 A 
ATOM     30  C   UNL     1      -2.410  -8.597  -1.655  0.00  0.00    +0.017 A 
ATOM     31  C   UNL     1      -2.759  -7.344  -1.212  0.00  0.00    +0.039 A 
ATOM     32  S   UNL     1      -3.765  -6.018  -1.829  0.00  0.00    -0.074 S 
ENDBRANCH  21  24
ENDBRANCH  17  22
ENDBRANCH   9  17
BRANCH   8  33
ATOM     33  C   UNL     1       1.004  -3.965  -0.604  0.00  0.00    +0.245 C 
BRANCH  33  34
ATOM     34  C   UNL     1       1.294  -4.374   0.780  0.00  0.00    +0.084 C 
ATOM     35  N   UNL     1       1.518  -4.690   1.848  0.00  0.00    -0.195 NA
ENDBRANCH  33  34
ENDBRANCH   8  33
TORSDOF 6
