REMARK  Name = ZINC02808846
REMARK  5 active torsions:
REMARK  status: ('A' for Active; 'I' for Inactive)
REMARK    1  A    between atoms: C_1  and  C_2
REMARK    2  A    between atoms: C_3  and  S_8
REMARK    3  A    between atoms: N_6  and  C_7
REMARK    4  A    between atoms: S_8  and  N_11
REMARK    5  A    between atoms: C_17  and  C_19
REMARK                            x       y       z     vdW  Elec       q    Type
REMARK                         _______ _______ _______ _____ _____    ______ ____
ROOT
ATOM      1  N   UNL     1      -1.026   3.012   1.138  0.00  0.00    -0.173 NA
ATOM      2  C   UNL     1      -0.780   1.569   1.273  0.00  0.00    +0.128 C 
ATOM      3  C   UNL     1      -0.039   1.080   0.023  0.00  0.00    +0.125 C 
ATOM      4  N   UNL     1      -0.745   1.573  -1.168  0.00  0.00    -0.292 N 
ATOM      5  C   UNL     1      -0.987   3.016  -1.301  0.00  0.00    +0.125 C 
ATOM      6  C   UNL     1      -1.732   3.505  -0.053  0.00  0.00    +0.128 C 
ATOM      7  C   UNL     1      -1.161   0.717  -2.122  0.00  0.00    +0.286 C 
ATOM      8  O   UNL     1      -0.867  -0.460  -2.053  0.00  0.00    -0.267 OA
ENDROOT
BRANCH   7   9
ATOM      9  C   UNL     1      -1.978   1.210  -3.255  0.00  0.00    +0.239 A 
ATOM     10  N   UNL     1      -2.274   2.490  -3.493  0.00  0.00    -0.185 NA
ATOM     11  C   UNL     1      -3.017   2.582  -4.586  0.00  0.00    +0.253 A 
ATOM     12  N   UNL     1      -3.556   3.629  -5.226  0.00  0.00    -0.219 NA
ATOM     13  C   UNL     1      -4.275   3.458  -6.311  0.00  0.00    +0.116 A 
ATOM     14  C   UNL     1      -4.492   2.171  -6.821  0.00  0.00    +0.040 A 
ATOM     15  C   UNL     1      -3.952   1.103  -6.181  0.00  0.00    +0.118 A 
ATOM     16  N   UNL     1      -3.211   1.312  -5.058  0.00  0.00    -0.203 N 
ATOM     17  N   UNL     1      -2.533   0.453  -4.183  0.00  0.00    -0.139 NA
ENDBRANCH   7   9
BRANCH   1  18
ATOM     18  S   UNL     1      -0.513   4.064   2.310  0.00  0.00    +0.064 S 
ATOM     19  O   UNL     1       0.560   3.426   2.987  0.00  0.00    -0.153 OA
ATOM     20  O   UNL     1      -0.372   5.332   1.684  0.00  0.00    -0.153 OA
BRANCH  18  23
ATOM     21  C   UNL     1      -3.522   5.325   1.928  0.00  0.00    +0.067 C 
ATOM     22  C   UNL     1      -3.042   4.758   3.239  0.00  0.00    +0.062 A 
ATOM     23  C   UNL     1      -1.823   4.222   3.478  0.00  0.00    +0.146 A 
ATOM     24  C   UNL     1      -1.788   3.811   4.814  0.00  0.00    +0.163 A 
ATOM     25  N   UNL     1      -2.941   4.098   5.361  0.00  0.00    -0.178 NA
ATOM     26  N   UNL     1      -3.752   4.693   4.386  0.00  0.00    -0.270 N 
ATOM     27  C   UNL     1      -5.126   5.162   4.576  0.00  0.00    +0.172 C 
ENDBRANCH  18  23
ENDBRANCH   1  18
TORSDOF 3
