REMARK  Name = ZINC21775498
REMARK  9 active torsions:
REMARK  status: ('A' for Active; 'I' for Inactive)
REMARK    1  A    between atoms: C_1  and  C_2
REMARK    2  A    between atoms: C_7  and  S_8
REMARK    3  A    between atoms: S_8  and  N_11
REMARK    4  A    between atoms: N_11  and  C_12
REMARK    5  A    between atoms: C_12  and  C_13
REMARK    6  A    between atoms: C_13  and  C_15
REMARK    7  A    between atoms: C_13  and  N_26
REMARK    8  A    between atoms: N_24  and  C_25
REMARK    9  A    between atoms: N_29  and  C_32
REMARK                            x       y       z     vdW  Elec       q    Type
REMARK                         _______ _______ _______ _____ _____    ______ ____
ROOT
ATOM      1  C   UNL     1       6.122   1.839  -3.385  0.00  0.00    +0.102 C 
ENDROOT
BRANCH   1   2
ATOM      2  C   UNL     1       6.220   3.323  -3.142  0.00  0.00    -0.029 A 
ATOM      3  C   UNL     1       6.020   3.831  -1.872  0.00  0.00    +0.007 A 
ATOM      4  C   UNL     1       6.114   5.188  -1.651  0.00  0.00    +0.024 A 
ATOM      5  C   UNL     1       6.398   6.058  -2.706  0.00  0.00    +0.033 A 
ATOM      6  C   UNL     1       6.596   5.544  -3.975  0.00  0.00    -0.026 A 
ATOM      7  C   UNL     1       6.505   4.177  -4.189  0.00  0.00    +0.010 A 
ATOM      8  C   UNL     1       6.916   6.427  -5.155  0.00  0.00    +0.038 C 
ATOM      9  C   UNL     1       6.598   7.884  -4.809  0.00  0.00    +0.024 C 
ATOM     10  C   UNL     1       7.200   8.184  -3.431  0.00  0.00    +0.105 C 
ATOM     11  N   UNL     1       6.465   7.421  -2.421  0.00  0.00    -0.333 N 
ATOM     12  C   UNL     1       7.018   7.652  -1.080  0.00  0.00    +0.129 C 
ENDBRANCH   1   2
BRANCH   1  13
ATOM     13  N   UNL     1       7.302   1.171  -2.821  0.00  0.00    -0.298 NA
ATOM     14  C   UNL     1       7.509   1.561  -1.420  0.00  0.00    +0.066 C 
ATOM     15  C   UNL     1       8.697   0.785  -0.847  0.00  0.00    -0.064 C 
ATOM     16  N   UNL     1       9.895   1.065  -1.651  0.00  0.00    +0.379 N 
ATOM     17  C   UNL     1       9.688   0.674  -3.053  0.00  0.00    -0.064 C 
ATOM     18  C   UNL     1       8.500   1.450  -3.626  0.00  0.00    +0.066 C 
ATOM     19  C   UNL     1      11.076   0.397  -1.087  0.00  0.00    -0.096 C 
ATOM     20  H   UNL     1      10.077   2.150  -1.624  0.00  0.00    -0.082 HD
ENDBRANCH   1  13
BRANCH   1  21
ATOM     21  C   UNL     1       4.859   1.295  -2.715  0.00  0.00    +0.129 C 
BRANCH  21  22
ATOM     22  N   UNL     1       4.824  -0.164  -2.848  0.00  0.00    -0.188 NA
ATOM     23  H   UNL     1       5.352  -0.652  -3.680  0.00  0.00    +0.148 HD
BRANCH  22  24
ATOM     24  S   UNL     1       3.798  -1.058  -1.905  0.00  0.00    +0.059 S 
ATOM     25  O   UNL     1       4.048  -0.677  -0.559  0.00  0.00    -0.153 OA
ATOM     26  O   UNL     1       3.906  -2.403  -2.349  0.00  0.00    -0.153 OA
BRANCH  24  33
ATOM     27  C   UNL     1       2.464  -1.441  -4.591  0.00  0.00    +0.046 C 
ATOM     28  C   UNL     1       1.633  -0.754  -3.538  0.00  0.00    -0.021 A 
ATOM     29  C   UNL     1       0.346  -0.344  -3.833  0.00  0.00    +0.043 A 
ATOM     30  C   UNL     1      -0.417   0.287  -2.865  0.00  0.00    +0.124 A 
ATOM     31  C   UNL     1       0.108   0.502  -1.602  0.00  0.00    +0.040 A 
ATOM     32  C   UNL     1       1.396   0.097  -1.312  0.00  0.00    +0.031 A 
ATOM     33  C   UNL     1       2.158  -0.534  -2.279  0.00  0.00    +0.108 A 
ATOM     34  F   UNL     1      -1.675   0.688  -3.152  0.00  0.00    -0.205 F 
ENDBRANCH  24  33
ENDBRANCH  22  24
ENDBRANCH  21  22
ENDBRANCH   1  21
TORSDOF 6
