REMARK  Name = ZINC49504547
REMARK  12 active torsions:
REMARK  status: ('A' for Active; 'I' for Inactive)
REMARK    1  A    between atoms: C_1  and  C_2
REMARK    2  A    between atoms: C_2  and  C_3
REMARK    3  A    between atoms: C_2  and  C_4
REMARK    4  A    between atoms: C_13  and  N_16
REMARK    5  A    between atoms: C_17  and  C_19
REMARK    6  A    between atoms: N_21  and  C_22
REMARK    7  A    between atoms: C_22  and  C_23
REMARK    8  A    between atoms: C_23  and  C_25
REMARK    9  A    between atoms: C_23  and  N_34
REMARK   10  A    between atoms: C_28  and  N_31
REMARK   11  A    between atoms: N_31  and  C_32
REMARK   12  A    between atoms: N_31  and  C_33
REMARK                            x       y       z     vdW  Elec       q    Type
REMARK                         _______ _______ _______ _____ _____    ______ ____
ROOT
ATOM      1  C   UNL     1      -6.735  -4.212   3.053  0.00  0.00    +0.299 C 
ATOM      2  O   UNL     1      -5.844  -4.466   3.837  0.00  0.00    -0.265 OA
ATOM      3  N   UNL     1      -7.988  -4.647   3.293  0.00  0.00    -0.309 N 
ATOM      4  H   UNL     1      -8.700  -4.445   2.666  0.00  0.00    +0.149 HD
ENDROOT
BRANCH   1   6
ATOM      5  N   UNL     1      -5.191  -2.983   1.582  0.00  0.00    -0.278 N 
ATOM      6  C   UNL     1      -6.443  -3.418   1.822  0.00  0.00    +0.303 C 
ATOM      7  O   UNL     1      -7.334  -3.165   1.038  0.00  0.00    -0.265 OA
ATOM      8  H   UNL     1      -4.465  -3.243   2.172  0.00  0.00    +0.155 HD
BRANCH   5  18
ATOM      9  C   UNL     1      -1.231  -2.224  -1.403  0.00  0.00    +0.222 C 
ATOM     10  O   UNL     1      -1.379  -2.782  -0.337  0.00  0.00    -0.275 OA
ATOM     11  N   UNL     1      -2.253  -1.540  -1.954  0.00  0.00    -0.271 N 
ATOM     12  C   UNL     1      -2.102  -0.902  -3.269  0.00  0.00    +0.114 C 
ATOM     13  C   UNL     1      -2.703   0.507  -3.178  0.00  0.00    +0.024 C 
ATOM     14  C   UNL     1      -4.198   0.388  -2.885  0.00  0.00    +0.038 C 
ATOM     15  C   UNL     1      -4.434  -0.510  -1.698  0.00  0.00    -0.026 A 
ATOM     16  C   UNL     1      -3.480  -1.430  -1.285  0.00  0.00    +0.041 A 
ATOM     17  C   UNL     1      -3.729  -2.252  -0.194  0.00  0.00    +0.047 A 
ATOM     18  C   UNL     1      -4.936  -2.157   0.484  0.00  0.00    +0.036 A 
ATOM     19  C   UNL     1      -5.891  -1.238   0.067  0.00  0.00    +0.024 A 
ATOM     20  C   UNL     1      -5.634  -0.413  -1.014  0.00  0.00    +0.007 A 
BRANCH   9  22
ATOM     21  C   UNL     1       0.860  -0.987  -1.901  0.00  0.00    +0.017 C 
ATOM     22  C   UNL     1       0.097  -2.296  -2.113  0.00  0.00    +0.069 C 
ATOM     23  C   UNL     1       0.914  -3.460  -1.548  0.00  0.00    +0.017 C 
ENDBRANCH   9  22
ENDBRANCH   5  18
ENDBRANCH   1   6
BRANCH   3  24
ATOM     24  C   UNL     1      -8.274  -5.426   4.500  0.00  0.00    +0.094 C 
BRANCH  24  25
ATOM     25  C   UNL     1      -9.732  -5.889   4.475  0.00  0.00    -0.020 C 
BRANCH  25  26
ATOM     26  C   UNL     1     -10.642  -4.689   4.545  0.00  0.00    -0.059 A 
ATOM     27  C   UNL     1     -10.886  -4.079   5.763  0.00  0.00    +0.004 A 
ATOM     28  C   UNL     1     -11.718  -2.979   5.831  0.00  0.00    +0.023 A 
ATOM     29  C   UNL     1     -12.310  -2.486   4.675  0.00  0.00    +0.029 A 
ATOM     30  C   UNL     1     -12.063  -3.100   3.454  0.00  0.00    +0.023 A 
ATOM     31  C   UNL     1     -11.225  -4.197   3.393  0.00  0.00    +0.004 A 
BRANCH  29  32
ATOM     32  N   UNL     1     -13.153  -1.374   4.741  0.00  0.00    -0.336 N 
ATOM     33  C   UNL     1     -13.414  -0.727   6.029  0.00  0.00    +0.129 C 
ATOM     34  C   UNL     1     -13.777  -0.855   3.521  0.00  0.00    +0.129 C 
ENDBRANCH  29  32
ENDBRANCH  25  26
BRANCH  25  35
ATOM     35  N   UNL     1      -9.988  -6.765   5.626  0.00  0.00    +0.385 N 
ATOM     36  C   UNL     1     -11.367  -7.314   5.555  0.00  0.00    -0.078 C 
ATOM     37  C   UNL     1     -11.289  -8.583   6.441  0.00  0.00    -0.020 C 
ATOM     38  C   UNL     1      -9.881  -9.139   6.126  0.00  0.00    -0.020 C 
ATOM     39  C   UNL     1      -9.085  -7.936   5.586  0.00  0.00    -0.078 C 
ATOM     40  H   UNL     1      -9.859  -6.256   6.487  0.00  0.00    -0.081 HD
ENDBRANCH  25  35
ENDBRANCH  24  25
ENDBRANCH   3  24
TORSDOF 8
