REMARK  Name = ZINC39660996
REMARK  4 active torsions:
REMARK  status: ('A' for Active; 'I' for Inactive)
REMARK    1  A    between atoms: C_1  and  C_2
REMARK    2  A    between atoms: C_7  and  C_8
REMARK    3  A    between atoms: C_12  and  C_21
REMARK    4  A    between atoms: N_23  and  C_24
REMARK                            x       y       z     vdW  Elec       q    Type
REMARK                         _______ _______ _______ _____ _____    ______ ____
ROOT
ATOM      1  C   UNL     1       0.117   0.199   2.410  0.00  0.00    +0.247 C 
ATOM      2  O   UNL     1      -0.024   1.405   2.356  0.00  0.00    -0.270 OA
ATOM      3  N   UNL     1       0.321  -0.403   3.599  0.00  0.00    -0.296 N 
ATOM      4  C   UNL     1       0.601  -1.836   3.855  0.00  0.00    +0.121 C 
ATOM      5  C   UNL     1       1.656  -1.831   4.984  0.00  0.00    +0.100 C 
ATOM      6  C   UNL     1       1.462  -0.482   5.697  0.00  0.00    -0.004 C 
ATOM      7  C   UNL     1       0.322   0.219   4.944  0.00  0.00    +0.115 C 
ATOM      8  C   UNL     1       2.737   0.351   5.606  0.00  0.00    -0.010 C 
ATOM      9  C   UNL     1       2.539   1.663   6.370  0.00  0.00    -0.082 C 
ATOM     10  N   UNL     1       2.220   1.371   7.773  0.00  0.00    +0.379 N 
ATOM     11  C   UNL     1       0.945   0.649   7.857  0.00  0.00    -0.082 C 
ATOM     12  C   UNL     1       1.075  -0.706   7.155  0.00  0.00    -0.010 C 
ATOM     13  H   UNL     1       2.953   0.803   8.172  0.00  0.00    -0.086 HD
ATOM     14  H   UNL     1       2.150   2.236   8.288  0.00  0.00    -0.086 HD
ENDROOT
BRANCH   1  21
ATOM     15  C   UNL     1      -2.145   0.461   0.626  0.00  0.00    +0.044 C 
ATOM     16  C   UNL     1      -1.021  -0.489   0.304  0.00  0.00    -0.038 A 
ATOM     17  C   UNL     1      -1.060  -1.240  -0.853  0.00  0.00    +0.004 A 
ATOM     18  C   UNL     1      -0.028  -2.113  -1.150  0.00  0.00    +0.000 A 
ATOM     19  C   UNL     1       1.049  -2.239  -0.291  0.00  0.00    +0.001 A 
ATOM     20  C   UNL     1       1.101  -1.494   0.869  0.00  0.00    +0.013 A 
ATOM     21  C   UNL     1       0.066  -0.607   1.172  0.00  0.00    +0.040 A 
ENDBRANCH   1  21
BRANCH   5  22
ATOM     22  C   UNL     1       1.408  -2.972   5.938  0.00  0.00    +0.219 C 
ATOM     23  O   UNL     1       0.273  -3.329   6.174  0.00  0.00    -0.275 OA
ATOM     24  N   UNL     1       2.447  -3.595   6.528  0.00  0.00    -0.304 N 
ATOM     25  H   UNL     1       3.355  -3.309   6.338  0.00  0.00    +0.149 HD
BRANCH  24  26
ATOM     26  C   UNL     1       2.207  -4.703   7.455  0.00  0.00    +0.151 C 
ATOM     27  C   UNL     1       3.367  -4.781   8.449  0.00  0.00    +0.042 C 
ATOM     28  C   UNL     1       3.412  -6.223   9.008  0.00  0.00    +0.079 C 
ATOM     29  S   UNL     1       2.745  -7.189   7.598  0.00  0.00    -0.086 S 
ATOM     30  C   UNL     1       2.055  -5.981   6.664  0.00  0.00    +0.209 C 
ATOM     31  O   UNL     1       1.537  -6.108   5.574  0.00  0.00    -0.283 OA
ENDBRANCH  24  26
ENDBRANCH   5  22
TORSDOF 3
