REMARK  Name = ZINC33939869
REMARK  8 active torsions:
REMARK  status: ('A' for Active; 'I' for Inactive)
REMARK    1  A    between atoms: C_1  and  C_2
REMARK    2  A    between atoms: C_7  and  N_8
REMARK    3  A    between atoms: C_9  and  C_33
REMARK    4  A    between atoms: C_14  and  C_32
REMARK    5  A    between atoms: C_16  and  C_22
REMARK    6  A    between atoms: N_24  and  C_25
REMARK    7  A    between atoms: C_25  and  C_26
REMARK    8  A    between atoms: N_35  and  C_36
REMARK                            x       y       z     vdW  Elec       q    Type
REMARK                         _______ _______ _______ _____ _____    ______ ____
ROOT
ATOM      1  N   UNL     1       0.245  -0.932   2.888  0.00  0.00    -0.256 N 
ATOM      2  C   UNL     1      -1.049  -0.460   3.472  0.00  0.00    +0.203 C 
ATOM      3  C   UNL     1      -0.743   0.973   3.782  0.00  0.00    +0.128 C 
ATOM      4  C   UNL     1      -0.630   1.834   2.537  0.00  0.00    +0.009 C 
ATOM      5  C   UNL     1      -0.369   3.059   2.970  0.00  0.00    +0.007 C 
ATOM      6  C   UNL     1      -0.261   2.927   4.494  0.00  0.00    +0.098 C 
ATOM      7  O   UNL     1      -1.249   1.847   4.764  0.00  0.00    -0.355 OA
ATOM      8  C   UNL     1       1.113   2.170   4.665  0.00  0.00    +0.125 C 
ATOM      9  C   UNL     1       0.707   0.748   4.373  0.00  0.00    +0.128 C 
ATOM     10  C   UNL     1       1.275  -0.148   3.349  0.00  0.00    +0.228 C 
ATOM     11  O   UNL     1       2.430  -0.183   2.983  0.00  0.00    -0.275 OA
ATOM     12  C   UNL     1      -0.439   4.218   5.296  0.00  0.00    +0.047 C 
ENDROOT
BRANCH   1  19
ATOM     13  C   UNL     1       0.410  -3.550   3.993  0.00  0.00    +0.045 C 
ATOM     14  C   UNL     1       0.471  -3.307   2.506  0.00  0.00    -0.029 A 
ATOM     15  C   UNL     1       0.604  -4.371   1.637  0.00  0.00    +0.005 A 
ATOM     16  C   UNL     1       0.660  -4.149   0.273  0.00  0.00    +0.000 A 
ATOM     17  C   UNL     1       0.582  -2.861  -0.224  0.00  0.00    +0.002 A 
ATOM     18  C   UNL     1       0.448  -1.793   0.640  0.00  0.00    +0.024 A 
ATOM     19  C   UNL     1       0.387  -2.013   2.010  0.00  0.00    +0.040 A 
ENDBRANCH   1  19
BRANCH   8  20
ATOM     20  C   UNL     1       2.129   2.660   3.666  0.00  0.00    +0.220 C 
ATOM     21  O   UNL     1       2.106   2.247   2.526  0.00  0.00    -0.275 OA
ATOM     22  N   UNL     1       3.062   3.558   4.039  0.00  0.00    -0.311 N 
ATOM     23  H   UNL     1       3.080   3.889   4.951  0.00  0.00    +0.149 HD
BRANCH  22  24
ATOM     24  C   UNL     1       4.050   4.034   3.067  0.00  0.00    +0.139 C 
BRANCH  24  25
ATOM     25  C   UNL     1       4.972   5.024   3.733  0.00  0.00    -0.030 A 
ATOM     26  C   UNL     1       4.657   6.370   3.733  0.00  0.00    +0.005 A 
ATOM     27  C   UNL     1       5.503   7.277   4.343  0.00  0.00    +0.000 A 
ATOM     28  C   UNL     1       6.663   6.839   4.953  0.00  0.00    +0.000 A 
ATOM     29  C   UNL     1       6.977   5.492   4.953  0.00  0.00    +0.000 A 
ATOM     30  C   UNL     1       6.130   4.585   4.347  0.00  0.00    +0.005 A 
ENDBRANCH  24  25
ENDBRANCH  22  24
ENDBRANCH   8  20
BRANCH   2  31
ATOM     31  C   UNL     1      -2.165  -0.567   2.466  0.00  0.00    +0.237 C 
ATOM     32  O   UNL     1      -1.921  -0.506   1.280  0.00  0.00    -0.274 OA
ATOM     33  N   UNL     1      -3.436  -0.731   2.884  0.00  0.00    -0.311 N 
ATOM     34  H   UNL     1      -3.632  -0.780   3.833  0.00  0.00    +0.149 HD
BRANCH  33  35
ATOM     35  C   UNL     1      -4.521  -0.836   1.906  0.00  0.00    +0.073 C 
ATOM     36  C   UNL     1      -5.050   0.569   1.551  0.00  0.00    +0.022 C 
ATOM     37  C   UNL     1      -6.577   0.370   1.387  0.00  0.00    +0.002 C 
ATOM     38  C   UNL     1      -6.911  -0.648   2.505  0.00  0.00    +0.002 C 
ATOM     39  C   UNL     1      -5.705  -1.610   2.513  0.00  0.00    +0.022 C 
ENDBRANCH  33  35
ENDBRANCH   2  31
TORSDOF 6
