REMARK  Name = ZINC63194334
REMARK  7 active torsions:
REMARK  status: ('A' for Active; 'I' for Inactive)
REMARK    1  A    between atoms: C_7  and  C_10
REMARK    2  A    between atoms: C_10  and  C_11
REMARK    3  A    between atoms: C_11  and  C_13
REMARK    4  A    between atoms: C_11  and  N_25
REMARK    5  A    between atoms: N_15  and  N_16
REMARK    6  A    between atoms: C_17  and  C_19
REMARK    7  A    between atoms: C_26  and  C_28
REMARK                            x       y       z     vdW  Elec       q    Type
REMARK                         _______ _______ _______ _____ _____    ______ ____
ROOT
ATOM      1  C   UNL     1       0.576  -3.621  -1.486  0.00  0.00    +0.165 C 
ENDROOT
BRANCH   1   2
ATOM      2  C   UNL     1      -0.522  -4.605  -1.796  0.00  0.00    +0.250 C 
ATOM      3  O   UNL     1      -0.259  -5.657  -2.339  0.00  0.00    -0.272 OA
ATOM      4  N   UNL     1      -1.798  -4.317  -1.469  0.00  0.00    -0.233 N 
ATOM      5  H   UNL     1      -2.009  -3.476  -1.034  0.00  0.00    +0.173 HD
BRANCH   4   6
ATOM      6  N   UNL     1      -2.819  -5.233  -1.757  0.00  0.00    -0.234 N 
ATOM      7  C   UNL     1      -4.094  -4.944  -1.430  0.00  0.00    +0.232 C 
ATOM      8  O   UNL     1      -4.358  -3.893  -0.887  0.00  0.00    -0.274 OA
ATOM      9  H   UNL     1      -2.608  -6.074  -2.192  0.00  0.00    +0.173 HD
BRANCH   7  10
ATOM     10  C   UNL     1      -5.192  -5.929  -1.740  0.00  0.00    +0.076 C 
ATOM     11  C   UNL     1      -5.244  -6.177  -3.249  0.00  0.00    +0.013 C 
ATOM     12  C   UNL     1      -6.359  -7.176  -3.563  0.00  0.00    +0.001 C 
ATOM     13  C   UNL     1      -7.700  -6.609  -3.093  0.00  0.00    +0.000 C 
ATOM     14  C   UNL     1      -7.648  -6.362  -1.584  0.00  0.00    +0.001 C 
ATOM     15  C   UNL     1      -6.533  -5.362  -1.270  0.00  0.00    +0.013 C 
ENDBRANCH   7  10
ENDBRANCH   4   6
ENDBRANCH   1   2
BRANCH   1  16
ATOM     16  N   UNL     1       1.860  -4.164  -1.937  0.00  0.00    -0.300 N 
ATOM     17  C   UNL     1       2.854  -3.329  -2.298  0.00  0.00    +0.245 C 
ATOM     18  O   UNL     1       2.686  -2.126  -2.251  0.00  0.00    -0.270 OA
ATOM     19  H   UNL     1       1.994  -5.124  -1.974  0.00  0.00    +0.150 HD
BRANCH  17  20
ATOM     20  C   UNL     1       4.149  -3.877  -2.752  0.00  0.00    +0.037 A 
ATOM     21  C   UNL     1       4.343  -5.258  -2.813  0.00  0.00    +0.016 A 
ATOM     22  C   UNL     1       5.553  -5.764  -3.237  0.00  0.00    +0.039 A 
ATOM     23  C   UNL     1       6.577  -4.903  -3.603  0.00  0.00    +0.123 A 
ATOM     24  C   UNL     1       6.390  -3.531  -3.544  0.00  0.00    +0.039 A 
ATOM     25  C   UNL     1       5.182  -3.015  -3.127  0.00  0.00    +0.016 A 
ATOM     26  F   UNL     1       7.761  -5.404  -4.017  0.00  0.00    -0.205 F 
ENDBRANCH  17  20
ENDBRANCH   1  16
BRANCH   1  27
ATOM     27  C   UNL     1       0.628  -3.373   0.023  0.00  0.00    +0.065 C 
BRANCH  27  34
ATOM     28  C   UNL     1       4.569  -5.201   1.500  0.00  0.00    +0.001 A 
ATOM     29  C   UNL     1       4.412  -6.447   2.122  0.00  0.00    +0.002 A 
ATOM     30  C   UNL     1       3.210  -7.043   2.268  0.00  0.00    +0.026 A 
ATOM     31  C   UNL     1       2.031  -6.412   1.783  0.00  0.00    +0.043 A 
ATOM     32  N   UNL     1       0.773  -6.780   1.802  0.00  0.00    -0.380 N 
ATOM     33  C   UNL     1      -0.030  -5.736   1.155  0.00  0.00    +0.144 C 
ATOM     34  C   UNL     1       0.949  -4.663   0.733  0.00  0.00    -0.039 C 
ATOM     35  C   UNL     1       2.170  -5.095   1.121  0.00  0.00    -0.001 A 
ATOM     36  C   UNL     1       3.513  -4.516   1.004  0.00  0.00    +0.010 A 
ATOM     37  H   UNL     1       0.430  -7.604   2.181  0.00  0.00    +0.160 HD
ENDBRANCH  27  34
ENDBRANCH   1  27
TORSDOF 7
