REMARK  Name = ZINC53315155
REMARK  7 active torsions:
REMARK  status: ('A' for Active; 'I' for Inactive)
REMARK    1  A    between atoms: C_1  and  C_2
REMARK    2  A    between atoms: C_2  and  C_4
REMARK    3  A    between atoms: C_2  and  N_13
REMARK    4  A    between atoms: C_4  and  C_5
REMARK    5  A    between atoms: C_14  and  C_16
REMARK    6  A    between atoms: C_16  and  S_17
REMARK    7  A    between atoms: S_17  and  C_18
REMARK                            x       y       z     vdW  Elec       q    Type
REMARK                         _______ _______ _______ _____ _____    ______ ____
ROOT
ATOM      1  N   UNL     1       0.711  -0.489   1.189  0.00  0.00    -0.312 N 
ATOM      2  C   UNL     1       2.054  -0.600   1.174  0.00  0.00    +0.224 C 
ATOM      3  O   UNL     1       2.676  -0.297   0.177  0.00  0.00    -0.275 OA
ATOM      4  H   UNL     1       0.213  -0.731   1.986  0.00  0.00    +0.149 HD
ENDROOT
BRANCH   1   6
ATOM      5  C   UNL     1      -0.019   1.526   0.010  0.00  0.00    +0.028 C 
ATOM      6  C   UNL     1       0.002  -0.004   0.002  0.00  0.00    +0.074 C 
BRANCH   6   7
ATOM      7  C   UNL     1      -1.433  -0.534   0.013  0.00  0.00    +0.063 C 
BRANCH   7   8
ATOM      8  C   UNL     1      -1.416  -2.035  -0.119  0.00  0.00    +0.025 A 
ATOM      9  C   UNL     1      -1.450  -2.620  -1.373  0.00  0.00    +0.129 A 
ATOM     10  C   UNL     1      -1.434  -4.000  -1.493  0.00  0.00    +0.039 A 
ATOM     11  C   UNL     1      -1.384  -4.792  -0.362  0.00  0.00    +0.006 A 
ATOM     12  C   UNL     1      -1.351  -4.208   0.891  0.00  0.00    +0.039 A 
ATOM     13  C   UNL     1      -1.360  -2.829   1.013  0.00  0.00    +0.129 A 
ATOM     14  F   UNL     1      -1.322  -2.259   2.237  0.00  0.00    -0.205 F 
ATOM     15  F   UNL     1      -1.499  -1.846  -2.479  0.00  0.00    -0.205 F 
ENDBRANCH   7   8
ENDBRANCH   6   7
ENDBRANCH   1   6
BRANCH   2  16
ATOM     16  C   UNL     1       2.783  -1.099   2.395  0.00  0.00    +0.173 C 
BRANCH  16  17
ATOM     17  S   UNL     1       4.566  -1.134   2.062  0.00  0.00    -0.079 S 
BRANCH  17  18
ATOM     18  C   UNL     1       5.268  -1.731   3.564  0.00  0.00    +0.168 A 
ATOM     19  N   UNL     1       6.602  -1.920   3.786  0.00  0.00    -0.333 N 
ATOM     20  H   UNL     1       7.320  -1.752   3.156  0.00  0.00    +0.168 HD
ATOM     21  C   UNL     1       6.740  -2.397   5.080  0.00  0.00    +0.067 A 
ATOM     22  C   UNL     1       7.826  -2.765   5.858  0.00  0.00    +0.028 A 
ATOM     23  C   UNL     1       7.627  -3.213   7.148  0.00  0.00    +0.002 A 
ATOM     24  C   UNL     1       6.346  -3.297   7.672  0.00  0.00    +0.002 A 
ATOM     25  C   UNL     1       5.255  -2.935   6.914  0.00  0.00    +0.030 A 
ATOM     26  C   UNL     1       5.440  -2.480   5.606  0.00  0.00    +0.090 A 
ATOM     27  N   UNL     1       4.588  -2.055   4.636  0.00  0.00    -0.222 NA
ENDBRANCH  17  18
ENDBRANCH  16  17
ENDBRANCH   2  16
TORSDOF 6
