REMARK  Name = ZINC64605639
REMARK  6 active torsions:
REMARK  status: ('A' for Active; 'I' for Inactive)
REMARK    1  A    between atoms: C_1  and  C_2
REMARK    2  A    between atoms: C_7  and  C_12
REMARK    3  A    between atoms: C_12  and  N_13
REMARK    4  A    between atoms: C_14  and  C_16
REMARK    5  A    between atoms: C_16  and  N_17
REMARK    6  A    between atoms: C_24  and  C_27
REMARK                            x       y       z     vdW  Elec       q    Type
REMARK                         _______ _______ _______ _____ _____    ______ ____
ROOT
ATOM      1  C   UNL     1       5.057  -3.450   1.907  0.00  0.00    +0.219 C 
ENDROOT
BRANCH   1   2
ATOM      2  N   UNL     1       6.164  -4.391   2.090  0.00  0.00    -0.257 N 
ATOM      3  C   UNL     1       6.495  -5.396   1.184  0.00  0.00    +0.050 A 
ATOM      4  C   UNL     1       5.925  -5.758  -0.034  0.00  0.00    +0.025 A 
ATOM      5  C   UNL     1       6.447  -6.811  -0.756  0.00  0.00    +0.002 A 
ATOM      6  C   UNL     1       7.538  -7.514  -0.277  0.00  0.00    +0.000 A 
ATOM      7  C   UNL     1       8.110  -7.160   0.932  0.00  0.00    +0.007 A 
ATOM      8  C   UNL     1       7.591  -6.109   1.655  0.00  0.00    +0.002 A 
ATOM      9  C   UNL     1       7.971  -5.484   2.977  0.00  0.00    +0.190 C 
ATOM     10  N   UNL     1       7.001  -4.389   3.165  0.00  0.00    -0.223 NA
ATOM     11  H   UNL     1       6.486  -4.508   4.024  0.00  0.00    +0.146 HD
BRANCH   9  12
ATOM     12  C   UNL     1       7.854  -6.495   4.089  0.00  0.00    +0.239 C 
ATOM     13  O   UNL     1       6.812  -6.607   4.699  0.00  0.00    -0.273 OA
ATOM     14  N   UNL     1       8.907  -7.274   4.404  0.00  0.00    -0.300 N 
ATOM     15  C   UNL     1      10.255  -7.168   3.828  0.00  0.00    +0.108 C 
ATOM     16  C   UNL     1      11.117  -8.276   4.468  0.00  0.00    +0.020 C 
ATOM     17  C   UNL     1      10.059  -9.304   4.950  0.00  0.00    +0.020 C 
ATOM     18  C   UNL     1       8.900  -8.371   5.390  0.00  0.00    +0.108 C 
ENDBRANCH   9  12
ENDBRANCH   1   2
BRANCH   1  20
ATOM     19  N   UNL     1       2.653  -3.322   2.476  0.00  0.00    -0.310 N 
ATOM     20  C   UNL     1       3.806  -4.019   2.524  0.00  0.00    +0.232 C 
ATOM     21  O   UNL     1       3.836  -5.105   3.063  0.00  0.00    -0.274 OA
ATOM     22  H   UNL     1       2.629  -2.454   2.044  0.00  0.00    +0.149 HD
BRANCH  19  23
ATOM     23  C   UNL     1       1.437  -3.876   3.075  0.00  0.00    +0.151 C 
BRANCH  23  30
ATOM     24  C   UNL     1       1.010   2.912   1.399  0.00  0.00    +0.044 C 
ATOM     25  C   UNL     1       0.754   1.427   1.384  0.00  0.00    -0.048 A 
ATOM     26  C   UNL     1       0.432   0.809   0.163  0.00  0.00    +0.005 A 
ATOM     27  C   UNL     1       0.188  -0.512   0.059  0.00  0.00    +0.027 A 
ATOM     28  C   UNL     1       0.255  -1.359   1.258  0.00  0.00    +0.060 A 
ATOM     29  N   UNL     1       0.072  -2.632   1.454  0.00  0.00    -0.362 N 
ATOM     30  C   UNL     1       0.280  -2.893   2.884  0.00  0.00    +0.191 C 
ATOM     31  N   UNL     1       0.610  -1.600   3.496  0.00  0.00    -0.362 N 
ATOM     32  C   UNL     1       0.596  -0.705   2.551  0.00  0.00    +0.060 A 
ATOM     33  C   UNL     1       0.848   0.743   2.542  0.00  0.00    +0.030 A 
ATOM     34  H   UNL     1      -0.161  -3.289   0.779  0.00  0.00    +0.162 HD
ATOM     35  H   UNL     1       0.803  -1.441   4.434  0.00  0.00    +0.162 HD
ENDBRANCH  23  30
ENDBRANCH  19  23
ENDBRANCH   1  20
TORSDOF 5
