REMARK  Name = ZINC36214675
REMARK  10 active torsions:
REMARK  status: ('A' for Active; 'I' for Inactive)
REMARK    1  A    between atoms: C_1  and  C_2
REMARK    2  A    between atoms: C_2  and  C_3
REMARK    3  A    between atoms: C_2  and  C_4
REMARK    4  A    between atoms: C_4  and  N_5
REMARK    5  A    between atoms: C_6  and  C_8
REMARK    6  A    between atoms: C_8  and  C_10
REMARK    7  A    between atoms: C_8  and  N_26
REMARK    8  A    between atoms: N_13  and  S_16
REMARK    9  A    between atoms: S_16  and  C_19
REMARK   10  A    between atoms: C_27  and  C_29
REMARK                            x       y       z     vdW  Elec       q    Type
REMARK                         _______ _______ _______ _____ _____    ______ ____
ROOT
ATOM      1  C   UNL     1      -2.525  -4.168  -0.370  0.00  0.00    +0.162 C 
ENDROOT
BRANCH   1   2
ATOM      2  C   UNL     1      -1.785  -4.449  -1.679  0.00  0.00    +0.021 C 
ATOM      3  C   UNL     1      -0.325  -4.010  -1.543  0.00  0.00    +0.023 C 
ATOM      4  C   UNL     1       0.405  -4.261  -2.867  0.00  0.00    +0.110 C 
ATOM      5  N   UNL     1       0.231  -5.670  -3.243  0.00  0.00    -0.177 NA
ATOM      6  C   UNL     1      -1.130  -6.220  -3.315  0.00  0.00    +0.110 C 
ATOM      7  C   UNL     1      -1.843  -5.947  -1.986  0.00  0.00    +0.023 C 
BRANCH   5   8
ATOM      8  S   UNL     1       1.544  -6.622  -3.581  0.00  0.00    +0.061 S 
ATOM      9  O   UNL     1       1.079  -7.674  -4.415  0.00  0.00    -0.153 OA
ATOM     10  O   UNL     1       2.590  -5.745  -3.974  0.00  0.00    -0.153 OA
BRANCH   8  11
ATOM     11  C   UNL     1       2.051  -7.366  -2.067  0.00  0.00    +0.106 A 
ATOM     12  C   UNL     1       2.973  -6.727  -1.258  0.00  0.00    +0.030 A 
ATOM     13  C   UNL     1       3.371  -7.310  -0.070  0.00  0.00    +0.022 A 
ATOM     14  C   UNL     1       2.848  -8.533   0.310  0.00  0.00    +0.041 A 
ATOM     15  C   UNL     1       1.925  -9.172  -0.500  0.00  0.00    +0.022 A 
ATOM     16  C   UNL     1       1.523  -8.585  -1.685  0.00  0.00    +0.030 A 
ATOM     17 CL   UNL     1       3.348  -9.266   1.802  0.00  0.00    -0.084 Cl
ENDBRANCH   8  11
ENDBRANCH   5   8
ENDBRANCH   1   2
BRANCH   1  19
ATOM     18  N   UNL     1      -1.531  -2.092   0.535  0.00  0.00    -0.314 N 
ATOM     19  C   UNL     1      -2.552  -2.683  -0.116  0.00  0.00    +0.234 C 
ATOM     20  O   UNL     1      -3.492  -2.020  -0.499  0.00  0.00    -0.274 OA
ATOM     21  H   UNL     1      -0.812  -2.631   0.900  0.00  0.00    +0.149 HD
BRANCH  18  22
ATOM     22  C   UNL     1      -1.507  -0.636   0.693  0.00  0.00    +0.107 C 
BRANCH  22  24
ATOM     23  C   UNL     1      -0.161   1.300   1.520  0.00  0.00    +0.009 C 
ATOM     24  C   UNL     1      -0.251  -0.227   1.464  0.00  0.00    -0.000 C 
ATOM     25  C   UNL     1      -0.320  -0.786   2.886  0.00  0.00    +0.009 C 
ENDBRANCH  22  24
ENDBRANCH  18  22
ENDBRANCH   1  19
BRANCH   1  26
ATOM     26  N   UNL     1      -3.897  -4.672  -0.468  0.00  0.00    -0.300 N 
ATOM     27  C   UNL     1      -4.574  -5.005   0.649  0.00  0.00    +0.245 C 
ATOM     28  O   UNL     1      -4.045  -4.888   1.738  0.00  0.00    -0.270 OA
ATOM     29  H   UNL     1      -4.319  -4.765  -1.336  0.00  0.00    +0.150 HD
BRANCH  27  30
ATOM     30  C   UNL     1      -5.959  -5.514   0.551  0.00  0.00    +0.037 A 
ATOM     31  C   UNL     1      -6.567  -5.655  -0.698  0.00  0.00    +0.013 A 
ATOM     32  C   UNL     1      -7.859  -6.130  -0.783  0.00  0.00    +0.001 A 
ATOM     33  C   UNL     1      -8.553  -6.466   0.366  0.00  0.00    +0.000 A 
ATOM     34  C   UNL     1      -7.956  -6.328   1.607  0.00  0.00    +0.001 A 
ATOM     35  C   UNL     1      -6.662  -5.860   1.706  0.00  0.00    +0.013 A 
ENDBRANCH  27  30
ENDBRANCH   1  26
TORSDOF 8
