REMARK  Name = ZINC09109912
REMARK  8 active torsions:
REMARK  status: ('A' for Active; 'I' for Inactive)
REMARK    1  A    between atoms: C_1  and  O_2
REMARK    2  A    between atoms: O_2  and  C_3
REMARK    3  A    between atoms: C_8  and  C_9
REMARK    4  A    between atoms: N_11  and  C_12
REMARK    5  A    between atoms: C_12  and  N_14
REMARK    6  A    between atoms: C_18  and  C_21
REMARK    7  A    between atoms: C_24  and  O_28
REMARK    8  A    between atoms: O_28  and  C_29
REMARK                            x       y       z     vdW  Elec       q    Type
REMARK                         _______ _______ _______ _____ _____    ______ ____
ROOT
ATOM      1  N   UNL     1      -0.364  -6.259   0.766  0.00  0.00    -0.169 NA
ATOM      2  C   UNL     1      -0.811  -7.001   1.776  0.00  0.00    +0.162 A 
ATOM      3  N   UNL     1      -0.746  -8.354   1.921  0.00  0.00    -0.335 N 
ATOM      4  H   UNL     1      -0.334  -8.905   1.237  0.00  0.00    +0.168 HD
ATOM      5  C   UNL     1      -1.272  -8.920   3.049  0.00  0.00    +0.055 A 
ATOM      6  C   UNL     1      -1.827  -8.081   3.951  0.00  0.00    +0.074 A 
ATOM      7  S   UNL     1      -1.584  -6.492   3.179  0.00  0.00    -0.060 S 
ENDROOT
BRANCH   5   8
ATOM      8  C   UNL     1      -1.236 -10.382   3.271  0.00  0.00    +0.000 A 
ATOM      9  C   UNL     1      -0.651 -11.220   2.320  0.00  0.00    +0.013 A 
ATOM     10  C   UNL     1      -0.619 -12.582   2.530  0.00  0.00    +0.047 A 
ATOM     11  C   UNL     1      -1.169 -13.122   3.685  0.00  0.00    +0.134 A 
ATOM     12  C   UNL     1      -1.752 -12.292   4.634  0.00  0.00    +0.060 A 
ATOM     13  C   UNL     1      -1.782 -10.927   4.434  0.00  0.00    +0.029 A 
ATOM     14 BR   UNL     1      -2.499 -13.033   6.205  0.00  0.00    -0.046 Br
BRANCH  11  15
ATOM     15  O   UNL     1      -1.136 -14.465   3.888  0.00  0.00    -0.494 OA
ATOM     16  C   UNL     1      -0.521 -15.260   2.872  0.00  0.00    +0.277 C 
ENDBRANCH  11  15
ENDBRANCH   5   8
BRANCH   1  17
ATOM     17  C   UNL     1      -0.416  -4.926   0.843  0.00  0.00    +0.163 C 
ATOM     18  S   UNL     1      -1.181  -4.175   2.178  0.00  0.00    -0.016 S 
BRANCH  17  21
ATOM     19  C   UNL     1       0.081  -2.829  -0.053  0.00  0.00    +0.253 C 
ATOM     20  O   UNL     1      -0.462  -2.295   0.895  0.00  0.00    -0.270 OA
ATOM     21  N   UNL     1       0.134  -4.173  -0.130  0.00  0.00    -0.262 N 
ATOM     22  H   UNL     1       0.567  -4.599  -0.887  0.00  0.00    +0.157 HD
BRANCH  19  28
ATOM     23  C   UNL     1       0.631  -0.607  -1.041  0.00  0.00    +0.132 A 
ATOM     24  C   UNL     1       1.204   0.159  -2.045  0.00  0.00    +0.048 A 
ATOM     25  C   UNL     1       1.819  -0.455  -3.118  0.00  0.00    +0.023 A 
ATOM     26  C   UNL     1       1.869  -1.838  -3.201  0.00  0.00    +0.042 A 
ATOM     27  C   UNL     1       1.304  -2.614  -2.212  0.00  0.00    +0.036 A 
ATOM     28  C   UNL     1       0.683  -2.005  -1.118  0.00  0.00    +0.080 A 
ATOM     29 CL   UNL     1       2.645  -2.595  -4.557  0.00  0.00    -0.084 Cl
BRANCH  23  31
ATOM     30  C   UNL     1       0.012   1.425   0.024  0.00  0.00    +0.277 C 
ATOM     31  O   UNL     1       0.026  -0.004   0.013  0.00  0.00    -0.494 OA
ENDBRANCH  23  31
ENDBRANCH  19  28
ENDBRANCH  17  21
ENDBRANCH   1  17
TORSDOF 6
