REMARK  Name = ZINC30545643
REMARK  8 active torsions:
REMARK  status: ('A' for Active; 'I' for Inactive)
REMARK    1  A    between atoms: C_1  and  C_2
REMARK    2  A    between atoms: C_5  and  S_8
REMARK    3  A    between atoms: S_8  and  N_11
REMARK    4  A    between atoms: N_14  and  C_17
REMARK    5  A    between atoms: C_17  and  C_19
REMARK    6  A    between atoms: C_17  and  C_20
REMARK    7  A    between atoms: C_24  and  C_31
REMARK    8  A    between atoms: C_27  and  C_30
REMARK                            x       y       z     vdW  Elec       q    Type
REMARK                         _______ _______ _______ _____ _____    ______ ____
ROOT
ATOM      1  N   UNL     1       1.814  -3.463  -1.769  0.00  0.00    -0.180 NA
ATOM      2  C   UNL     1       0.467  -3.668  -2.322  0.00  0.00    +0.091 C 
ATOM      3  C   UNL     1       0.283  -2.709  -3.509  0.00  0.00    -0.060 C 
ATOM      4  N   UNL     1       1.382  -2.904  -4.464  0.00  0.00    +0.389 N 
ATOM      5  C   UNL     1       2.677  -2.561  -3.863  0.00  0.00    -0.060 C 
ATOM      6  C   UNL     1       2.959  -3.507  -2.691  0.00  0.00    +0.091 C 
ATOM      7  H   UNL     1       1.409  -3.971  -4.731  0.00  0.00    -0.081 HD
ENDROOT
BRANCH   1   8
ATOM      8  S   UNL     1       2.037  -3.197  -0.150  0.00  0.00    +0.061 S 
ATOM      9  O   UNL     1       3.367  -3.598   0.149  0.00  0.00    -0.153 OA
ATOM     10  O   UNL     1       0.907  -3.751   0.512  0.00  0.00    -0.153 OA
BRANCH   8  15
ATOM     11  C   UNL     1       1.796   2.768   0.730  0.00  0.00    +0.044 C 
ATOM     12  C   UNL     1       1.856   1.278   0.510  0.00  0.00    -0.050 A 
ATOM     13  C   UNL     1       0.702   0.521   0.583  0.00  0.00    +0.005 A 
ATOM     14  C   UNL     1       0.757  -0.845   0.381  0.00  0.00    +0.029 A 
ATOM     15  C   UNL     1       1.966  -1.455   0.106  0.00  0.00    +0.105 A 
ATOM     16  C   UNL     1       3.121  -0.698   0.033  0.00  0.00    +0.029 A 
ATOM     17  C   UNL     1       3.066   0.668   0.234  0.00  0.00    +0.005 A 
ENDBRANCH   8  15
ENDBRANCH   1   8
BRANCH   4  18
ATOM     18  C   UNL     1       1.152  -2.135  -5.695  0.00  0.00    +0.016 C 
ATOM     19  C   UNL     1       0.893  -0.669  -5.339  0.00  0.00    -0.004 C 
BRANCH  18  20
ATOM     20  C   UNL     1      -0.043  -2.694  -6.421  0.00  0.00    +0.202 C 
ATOM     21  O   UNL     1      -0.865  -1.944  -6.904  0.00  0.00    -0.277 OA
ATOM     22  N   UNL     1      -0.199  -4.028  -6.535  0.00  0.00    -0.302 N 
ATOM     23  C   UNL     1       0.859  -4.946  -6.092  0.00  0.00    +0.111 C 
ATOM     24  C   UNL     1       1.211  -5.891  -7.240  0.00  0.00    +0.004 C 
ATOM     25  C   UNL     1      -0.060  -6.587  -7.732  0.00  0.00    +0.009 C 
ATOM     26  C   UNL     1      -1.049  -5.540  -8.252  0.00  0.00    +0.004 C 
ATOM     27  C   UNL     1      -1.428  -4.592  -7.110  0.00  0.00    +0.111 C 
ATOM     28  C   UNL     1      -2.305  -6.240  -8.774  0.00  0.00    +0.009 C 
ATOM     29  C   UNL     1       2.212  -6.940  -6.752  0.00  0.00    +0.009 C 
ENDBRANCH  18  20
ENDBRANCH   4  18
TORSDOF 4
