REMARK  Name = ZINC31050183
REMARK  9 active torsions:
REMARK  status: ('A' for Active; 'I' for Inactive)
REMARK    1  A    between atoms: C_1  and  C_2
REMARK    2  A    between atoms: C_5  and  C_9
REMARK    3  A    between atoms: C_6  and  C_8
REMARK    4  A    between atoms: C_9  and  C_11
REMARK    5  A    between atoms: C_9  and  N_12
REMARK    6  A    between atoms: C_13  and  C_15
REMARK    7  A    between atoms: N_20  and  C_22
REMARK    8  A    between atoms: C_22  and  C_23
REMARK    9  A    between atoms: C_25  and  C_28
REMARK                            x       y       z     vdW  Elec       q    Type
REMARK                         _______ _______ _______ _____ _____    ______ ____
ROOT
ATOM      1  C   UNL     1       0.307   0.559  -0.439  0.00  0.00    +0.058 C 
ATOM      2  C   UNL     1       1.147   1.596   0.311  0.00  0.00    +0.009 C 
ATOM      3  C   UNL     1       0.490   1.897   1.661  0.00  0.00    -0.018 C 
ATOM      4  C   UNL     1       0.357   0.595   2.457  0.00  0.00    -0.078 C 
ATOM      5  N   UNL     1      -0.455  -0.365   1.698  0.00  0.00    +0.386 N 
ATOM      6  C   UNL     1       0.180  -0.703   0.418  0.00  0.00    -0.065 C 
ATOM      7  H   UNL     1      -1.421   0.114   1.477  0.00  0.00    -0.081 HD
ENDROOT
BRANCH   1   9
ATOM      8  N   UNL     1       1.201   1.177  -2.661  0.00  0.00    -0.309 N 
ATOM      9  C   UNL     1       0.978   0.215  -1.744  0.00  0.00    +0.215 C 
ATOM     10  O   UNL     1       1.318  -0.927  -1.968  0.00  0.00    -0.276 OA
ATOM     11  H   UNL     1       0.892   2.213  -2.457  0.00  0.00    +0.149 HD
BRANCH   8  12
ATOM     12  C   UNL     1       1.853   0.843  -3.929  0.00  0.00    +0.100 C 
ATOM     13  C   UNL     1       1.442   1.858  -4.997  0.00  0.00    +0.033 C 
BRANCH  12  18
ATOM     14  C   UNL     1       7.589   0.992  -3.242  0.00  0.00    +0.044 C 
ATOM     15  C   UNL     1       6.093   0.953  -3.421  0.00  0.00    -0.050 A 
ATOM     16  C   UNL     1       5.275   1.660  -2.560  0.00  0.00    +0.004 A 
ATOM     17  C   UNL     1       3.904   1.629  -2.727  0.00  0.00    +0.006 A 
ATOM     18  C   UNL     1       3.349   0.881  -3.750  0.00  0.00    -0.025 A 
ATOM     19  C   UNL     1       4.167   0.175  -4.611  0.00  0.00    -0.045 A 
ATOM     20  C   UNL     1       5.539   0.210  -4.447  0.00  0.00    +0.007 A 
ATOM     21  C   UNL     1       3.563  -0.634  -5.730  0.00  0.00    +0.044 C 
ENDBRANCH  12  18
ENDBRANCH   8  12
ENDBRANCH   1   9
BRANCH   5  22
ATOM     22  C   UNL     1      -0.720  -1.573   2.490  0.00  0.00    +0.022 C 
BRANCH  22  23
ATOM     23  C   UNL     1      -1.139  -1.179   3.883  0.00  0.00    +0.211 A 
ATOM     24  N   UNL     1      -2.363  -0.953   4.292  0.00  0.00    -0.193 NA
ATOM     25  C   UNL     1      -2.255  -0.635   5.602  0.00  0.00    +0.203 A 
ATOM     26  N   UNL     1      -0.984  -0.679   5.906  0.00  0.00    -0.056 NA
ATOM     27  O   UNL     1      -0.332  -0.990   4.932  0.00  0.00    -0.340 OA
BRANCH  25  28
ATOM     28  C   UNL     1      -3.369  -0.294   6.521  0.00  0.00    +0.041 A 
ATOM     29  C   UNL     1      -4.682  -0.281   6.053  0.00  0.00    +0.013 A 
ATOM     30  C   UNL     1      -5.715   0.033   6.912  0.00  0.00    +0.001 A 
ATOM     31  C   UNL     1      -5.449   0.344   8.234  0.00  0.00    +0.001 A 
ATOM     32  C   UNL     1      -4.149   0.338   8.703  0.00  0.00    +0.021 A 
ATOM     33  C   UNL     1      -3.106   0.021   7.853  0.00  0.00    +0.052 A 
ATOM     34 CL   UNL     1      -1.474   0.014   8.443  0.00  0.00    -0.083 Cl
ENDBRANCH  25  28
ENDBRANCH  22  23
ENDBRANCH   5  22
TORSDOF 6
