REMARK  Name = ZINC27519959
REMARK  6 active torsions:
REMARK  status: ('A' for Active; 'I' for Inactive)
REMARK    1  A    between atoms: C_1  and  C_2
REMARK    2  A    between atoms: C_3  and  C_26
REMARK    3  A    between atoms: C_4  and  C_18
REMARK    4  A    between atoms: C_6  and  C_15
REMARK    5  A    between atoms: C_7  and  C_9
REMARK    6  A    between atoms: C_19  and  C_20
REMARK                            x       y       z     vdW  Elec       q    Type
REMARK                         _______ _______ _______ _____ _____    ______ ____
ROOT
ATOM      1  C   UNL     1      -6.171   7.793   2.354  0.00  0.00    +0.061 C 
ATOM      2  C   UNL     1      -6.053   6.486   1.612  0.00  0.00    +0.017 C 
ATOM      3  C   UNL     1      -4.835   5.988   1.340  0.00  0.00    +0.077 C 
ATOM      4  C   UNL     1      -4.659   4.695   0.596  0.00  0.00    +0.142 C 
ATOM      5  C   UNL     1      -5.940   3.910   0.579  0.00  0.00    +0.082 C 
ATOM      6  C   UNL     1      -7.129   4.493   0.884  0.00  0.00    +0.050 C 
ATOM      7  N   UNL     1      -7.186   5.826   1.227  0.00  0.00    -0.317 N 
ATOM      8  H   UNL     1      -8.148   6.360   1.189  0.00  0.00    +0.152 HD
ENDROOT
BRANCH   6   9
ATOM      9  C   UNL     1      -8.369   3.692   0.849  0.00  0.00    -0.003 A 
ATOM     10  C   UNL     1      -8.835   3.175  -0.362  0.00  0.00    +0.010 A 
ATOM     11  C   UNL     1      -9.991   2.422  -0.387  0.00  0.00    +0.001 A 
ATOM     12  C   UNL     1     -10.694   2.189   0.781  0.00  0.00    +0.000 A 
ATOM     13  C   UNL     1     -10.241   2.703   1.984  0.00  0.00    +0.001 A 
ATOM     14  C   UNL     1      -9.084   3.453   2.024  0.00  0.00    +0.010 A 
ENDBRANCH   6   9
BRANCH   5  15
ATOM     15  C   UNL     1      -5.908   2.543   0.241  0.00  0.00    +0.386 C 
ATOM     16  O   UNL     1      -6.915   1.867   0.341  0.00  0.00    -0.241 OA
ATOM     17  O   UNL     1      -4.759   1.982  -0.195  0.00  0.00    -0.241 OA
ENDBRANCH   5  15
BRANCH   3  18
ATOM     18  C   UNL     1      -3.689   6.698   1.766  0.00  0.00    +0.386 C 
ATOM     19  O   UNL     1      -3.813   7.747   2.370  0.00  0.00    -0.241 OA
ATOM     20  O   UNL     1      -2.458   6.214   1.502  0.00  0.00    -0.241 OA
ENDBRANCH   3  18
BRANCH   4  21
ATOM     21  C   UNL     1      -3.610   3.897   1.252  0.00  0.00    -0.084 C 
ATOM     22  C   UNL     1      -2.774   3.261   1.775  0.00  0.00    -0.065 C 
BRANCH  22  23
ATOM     23  C   UNL     1      -1.754   2.485   2.413  0.00  0.00    +0.025 A 
ATOM     24  C   UNL     1      -2.043   1.207   2.893  0.00  0.00    +0.017 A 
ATOM     25  C   UNL     1      -1.057   0.466   3.512  0.00  0.00    +0.001 A 
ATOM     26  C   UNL     1       0.219   0.983   3.646  0.00  0.00    +0.000 A 
ATOM     27  C   UNL     1       0.514   2.248   3.168  0.00  0.00    +0.001 A 
ATOM     28  C   UNL     1      -0.465   3.001   2.553  0.00  0.00    +0.017 A 
ENDBRANCH  22  23
ENDBRANCH   4  21
TORSDOF 5
