REMARK  Name = ZINC23433451
REMARK  16 active torsions:
REMARK  status: ('A' for Active; 'I' for Inactive)
REMARK    1  A    between atoms: C_1  and  C_2
REMARK    2  A    between atoms: C_2  and  N_3
REMARK    3  A    between atoms: N_3  and  C_4
REMARK    4  A    between atoms: C_4  and  C_5
REMARK    5  A    between atoms: C_5  and  N_6
REMARK    6  A    between atoms: N_6  and  C_7
REMARK    7  A    between atoms: N_6  and  C_8
REMARK    8  A    between atoms: C_9  and  C_11
REMARK    9  A    between atoms: C_11  and  C_12
REMARK   10  A    between atoms: C_12  and  C_13
REMARK   11  A    between atoms: C_16  and  C_27
REMARK   12  A    between atoms: N_17  and  C_18
REMARK   13  A    between atoms: C_21  and  C_24
REMARK   14  A    between atoms: C_24  and  C_25
REMARK   15  A    between atoms: C_30  and  C_34
REMARK   16  A    between atoms: C_32  and  C_33
REMARK                            x       y       z     vdW  Elec       q    Type
REMARK                         _______ _______ _______ _____ _____    ______ ____
ROOT
ATOM      1  C   UNL     1      -1.556   2.049  -0.836  0.00  0.00    +0.025 A 
ATOM      2  C   UNL     1      -0.647   1.221  -0.277  0.00  0.00    +0.024 A 
ATOM      3  C   UNL     1       0.508   1.974  -0.005  0.00  0.00    +0.028 A 
ATOM      4  C   UNL     1       0.263   3.253  -0.406  0.00  0.00    +0.054 A 
ATOM      5  N   UNL     1      -1.011   3.298  -0.915  0.00  0.00    -0.313 N 
ENDROOT
BRANCH   4   6
ATOM      6  C   UNL     1       1.203   4.390  -0.309  0.00  0.00    +0.002 A 
ATOM      7  C   UNL     1       0.833   5.549   0.374  0.00  0.00    +0.010 A 
ATOM      8  C   UNL     1       1.714   6.607   0.461  0.00  0.00    +0.004 A 
ATOM      9  C   UNL     1       2.963   6.520  -0.128  0.00  0.00    -0.050 A 
ATOM     10  C   UNL     1       3.337   5.373  -0.806  0.00  0.00    +0.007 A 
ATOM     11  C   UNL     1       2.467   4.306  -0.895  0.00  0.00    -0.041 A 
ATOM     12  C   UNL     1       2.878   3.056  -1.629  0.00  0.00    +0.044 C 
ATOM     13  C   UNL     1       3.922   7.679  -0.029  0.00  0.00    +0.044 C 
ENDBRANCH   4   6
BRANCH   5  14
ATOM     14  C   UNL     1      -1.645   4.435  -1.434  0.00  0.00    +0.047 A 
ATOM     15  C   UNL     1      -2.736   4.986  -0.775  0.00  0.00    +0.026 A 
ATOM     16  C   UNL     1      -3.356   6.109  -1.287  0.00  0.00    +0.006 A 
ATOM     17  C   UNL     1      -2.897   6.679  -2.460  0.00  0.00    -0.033 A 
ATOM     18  C   UNL     1      -1.813   6.131  -3.122  0.00  0.00    +0.006 A 
ATOM     19  C   UNL     1      -1.186   5.010  -2.612  0.00  0.00    +0.026 A 
BRANCH  17  20
ATOM     20  C   UNL     1      -3.578   7.902  -3.019  0.00  0.00    +0.153 C 
BRANCH  20  21
ATOM     21  C   UNL     1      -4.657   7.488  -3.931  0.00  0.00    +0.067 C 
ATOM     22  N   UNL     1      -5.489   7.169  -4.635  0.00  0.00    -0.196 NA
ENDBRANCH  20  21
ENDBRANCH  17  20
ENDBRANCH   5  14
BRANCH   1  23
ATOM     23  C   UNL     1      -2.938   1.660  -1.292  0.00  0.00    +0.063 C 
BRANCH  23  24
ATOM     24  C   UNL     1      -3.903   1.722  -0.106  0.00  0.00    +0.102 C 
BRANCH  24  26
ATOM     25  N   UNL     1      -6.306   1.317   0.319  0.00  0.00    -0.304 N 
ATOM     26  C   UNL     1      -5.286   1.333  -0.561  0.00  0.00    +0.216 C 
ATOM     27  O   UNL     1      -5.480   1.035  -1.721  0.00  0.00    -0.276 OA
BRANCH  25  29
ATOM     28  C   UNL     1      -6.276   3.182   1.901  0.00  0.00    +0.024 C 
ATOM     29  C   UNL     1      -6.070   1.677   1.720  0.00  0.00    +0.104 C 
ENDBRANCH  25  29
BRANCH  25  30
ATOM     30  C   UNL     1      -7.650   0.939  -0.124  0.00  0.00    +0.089 C 
BRANCH  30  31
ATOM     31  C   UNL     1      -7.831  -0.573   0.028  0.00  0.00    -0.060 C 
BRANCH  31  32
ATOM     32  N   UNL     1      -9.178  -0.952  -0.416  0.00  0.00    +0.377 N 
ATOM     33  C   UNL     1      -9.341  -0.724  -1.858  0.00  0.00    -0.097 C 
ATOM     34  C   UNL     1      -9.475  -2.348  -0.067  0.00  0.00    -0.097 C 
ATOM     35  H   UNL     1      -9.901  -0.311   0.111  0.00  0.00    -0.083 HD
ENDBRANCH  31  32
ENDBRANCH  30  31
ENDBRANCH  25  30
ENDBRANCH  24  26
ENDBRANCH  23  24
ENDBRANCH   1  23
TORSDOF 11
