REMARK  Name = ZINC39574953
REMARK  10 active torsions:
REMARK  status: ('A' for Active; 'I' for Inactive)
REMARK    1  A    between atoms: C_1  and  C_2
REMARK    2  A    between atoms: C_3  and  C_30
REMARK    3  A    between atoms: C_4  and  C_16
REMARK    4  A    between atoms: C_10  and  C_14
REMARK    5  A    between atoms: C_10  and  C_15
REMARK    6  A    between atoms: C_21  and  C_22
REMARK    7  A    between atoms: C_25  and  O_28
REMARK    8  A    between atoms: O_28  and  C_29
REMARK    9  A    between atoms: C_30  and  O_32
REMARK   10  A    between atoms: O_32  and  C_33
REMARK                            x       y       z     vdW  Elec       q    Type
REMARK                         _______ _______ _______ _____ _____    ______ ____
ROOT
ATOM      1  C   UNL     1      -0.556   1.450  -0.452  0.00  0.00    +0.061 C 
ATOM      2  C   UNL     1      -0.253  -0.008  -0.218  0.00  0.00    +0.015 C 
ATOM      3  C   UNL     1      -1.247  -0.911  -0.260  0.00  0.00    +0.062 C 
ATOM      4  C   UNL     1      -0.985  -2.369  -0.022  0.00  0.00    +0.077 C 
ATOM      5  C   UNL     1       0.481  -2.688  -0.177  0.00  0.00    +0.021 C 
ATOM      6  C   UNL     1       1.407  -1.707  -0.143  0.00  0.00    +0.016 C 
ATOM      7  N   UNL     1       1.032  -0.403   0.029  0.00  0.00    -0.321 N 
ATOM      8  C   UNL     1       2.875  -2.017  -0.303  0.00  0.00    +0.058 C 
ATOM      9  C   UNL     1       3.169  -3.413   0.252  0.00  0.00    -0.023 C 
ATOM     10  C   UNL     1       2.299  -4.427  -0.498  0.00  0.00    +0.086 C 
ATOM     11  C   UNL     1       0.854  -4.032  -0.355  0.00  0.00    +0.162 C 
ATOM     12  O   UNL     1      -0.006  -4.889  -0.395  0.00  0.00    -0.292 OA
ATOM     13  C   UNL     1       4.646  -3.749   0.042  0.00  0.00    +0.011 C 
ATOM     14  C   UNL     1       2.835  -3.453   1.744  0.00  0.00    +0.011 C 
ATOM     15  H   UNL     1       1.685   0.247   0.333  0.00  0.00    +0.152 HD
ENDROOT
BRANCH   4  16
ATOM     16  C   UNL     1      -1.430  -2.736   1.395  0.00  0.00    +0.095 C 
ATOM     17  C   UNL     1      -0.464  -2.178   2.420  0.00  0.00    +0.118 C 
ATOM     18  N   UNL     1       0.026  -3.198   3.045  0.00  0.00    -0.161 NA
ATOM     19  N   UNL     1      -0.484  -4.405   2.578  0.00  0.00    -0.153 NA
ATOM     20  C   UNL     1      -1.349  -4.234   1.609  0.00  0.00    +0.080 C 
BRANCH  20  21
ATOM     21  C   UNL     1      -2.087  -5.276   0.880  0.00  0.00    -0.001 A 
ATOM     22  C   UNL     1      -2.977  -4.923  -0.140  0.00  0.00    +0.013 A 
ATOM     23  C   UNL     1      -3.665  -5.902  -0.820  0.00  0.00    +0.046 A 
ATOM     24  C   UNL     1      -3.477  -7.241  -0.494  0.00  0.00    +0.120 A 
ATOM     25  C   UNL     1      -2.594  -7.597   0.518  0.00  0.00    +0.046 A 
ATOM     26  C   UNL     1      -1.897  -6.625   1.201  0.00  0.00    +0.013 A 
BRANCH  24  27
ATOM     27  O   UNL     1      -4.158  -8.203  -1.168  0.00  0.00    -0.495 OA
ATOM     28  C   UNL     1      -3.918  -9.558  -0.783  0.00  0.00    +0.277 C 
ENDBRANCH  24  27
ENDBRANCH  20  21
ENDBRANCH   4  16
BRANCH   3  29
ATOM     29  C   UNL     1      -2.566  -0.479  -0.531  0.00  0.00    +0.337 C 
ATOM     30  O   UNL     1      -2.813   0.710  -0.610  0.00  0.00    -0.245 OA
BRANCH  29  31
ATOM     31  O   UNL     1      -3.551  -1.385  -0.703  0.00  0.00    -0.465 OA
ATOM     32  C   UNL     1      -4.878  -0.879  -0.861  0.00  0.00    +0.280 C 
ENDBRANCH  29  31
ENDBRANCH   3  29
TORSDOF 5
