REMARK  Name = ZINC20696549
REMARK  5 active torsions:
REMARK  status: ('A' for Active; 'I' for Inactive)
REMARK    1  A    between atoms: C_6  and  C_7
REMARK    2  A    between atoms: N_9  and  C_10
REMARK    3  A    between atoms: C_10  and  C_11
REMARK    4  A    between atoms: C_24  and  C_27
REMARK    5  A    between atoms: C_32  and  O_33
REMARK                            x       y       z     vdW  Elec       q    Type
REMARK                         _______ _______ _______ _____ _____    ______ ____
ROOT
ATOM      1  C   UNL     1       2.460  -0.524  -0.008  0.00  0.00    +0.015 A 
ATOM      2  C   UNL     1       3.666  -1.182  -0.033  0.00  0.00    +0.024 A 
ATOM      3  C   UNL     1       4.862  -0.468  -0.053  0.00  0.00    +0.031 A 
ATOM      4  C   UNL     1       4.827   0.935  -0.040  0.00  0.00    -0.019 A 
ATOM      5  C   UNL     1       3.623   1.595  -0.028  0.00  0.00    +0.019 A 
ATOM      6  C   UNL     1       2.425   0.873  -0.015  0.00  0.00    +0.037 A 
ATOM      7  C   UNL     1       6.122   1.649  -0.020  0.00  0.00    +0.049 C 
ATOM      8  C   UNL     1       6.295   3.039  -0.542  0.00  0.00    -0.023 C 
ATOM      9  C   UNL     1       7.518   3.167  -1.044  0.00  0.00    -0.030 C 
ATOM     10  C   UNL     1       8.280   1.847  -0.907  0.00  0.00    +0.033 C 
ATOM     11  C   UNL     1       7.132   0.830  -0.877  0.00  0.00    +0.029 C 
ATOM     12  C   UNL     1       7.366  -0.457  -0.107  0.00  0.00    +0.108 C 
ATOM     13  N   UNL     1       6.068  -1.165  -0.107  0.00  0.00    -0.336 N 
ATOM     14  H   UNL     1       6.041  -2.264  -0.150  0.00  0.00    +0.147 HD
ENDROOT
BRANCH  12  15
ATOM     15  C   UNL     1       7.790  -0.148   1.306  0.00  0.00    +0.015 A 
ATOM     16  C   UNL     1       6.841  -0.033   2.303  0.00  0.00    +0.024 A 
ATOM     17  C   UNL     1       7.229   0.251   3.600  0.00  0.00    +0.018 A 
ATOM     18  C   UNL     1       8.569   0.420   3.901  0.00  0.00    +0.019 A 
ATOM     19  C   UNL     1       9.521   0.305   2.908  0.00  0.00    +0.047 A 
ATOM     20  C   UNL     1       9.134   0.016   1.607  0.00  0.00    +0.122 A 
ATOM     21 BR   UNL     1       5.928   0.407   4.963  0.00  0.00    -0.050 Br
BRANCH  20  22
ATOM     22  O   UNL     1      10.070  -0.103   0.629  0.00  0.00    -0.506 OA
ATOM     23  H   UNL     1      11.136   0.027   0.868  0.00  0.00    +0.292 HD
ENDBRANCH  20  22
ENDBRANCH  12  15
BRANCH   6  24
ATOM     24  C   UNL     1       1.132   1.583  -0.002  0.00  0.00    +0.244 C 
ATOM     25  O   UNL     1       1.106   2.799  -0.003  0.00  0.00    -0.270 OA
ATOM     26  N   UNL     1      -0.020   0.885   0.011  0.00  0.00    -0.309 N 
ATOM     27  H   UNL     1       0.004  -0.215   0.017  0.00  0.00    +0.149 HD
BRANCH  26  28
ATOM     28  C   UNL     1      -1.304   1.590   0.018  0.00  0.00    +0.136 C 
BRANCH  28  29
ATOM     29  C   UNL     1      -2.446   0.571   0.025  0.00  0.00    +0.135 C 
ATOM     30  C   UNL     1      -3.801   1.301  -0.089  0.00  0.00    +0.035 C 
ATOM     31  C   UNL     1      -4.698   0.483   0.881  0.00  0.00    +0.031 C 
ATOM     32  C   UNL     1      -3.670   0.088   1.972  0.00  0.00    +0.160 C 
ATOM     33  O   UNL     1      -2.444  -0.151   1.263  0.00  0.00    -0.375 OA
ENDBRANCH  28  29
ENDBRANCH  26  28
ENDBRANCH   6  24
TORSDOF 5
