REMARK  Name = ZINC09350553
REMARK  14 active torsions:
REMARK  status: ('A' for Active; 'I' for Inactive)
REMARK    1  A    between atoms: C_1  and  C_2
REMARK    2  A    between atoms: C_2  and  C_3
REMARK    3  A    between atoms: C_2  and  C_4
REMARK    4  A    between atoms: C_7  and  C_10
REMARK    5  A    between atoms: C_12  and  C_22
REMARK    6  A    between atoms: N_16  and  C_17
REMARK    7  A    between atoms: C_17  and  C_18
REMARK    8  A    between atoms: C_18  and  O_19
REMARK    9  A    between atoms: O_19  and  C_20
REMARK   10  A    between atoms: C_22  and  C_24
REMARK   11  A    between atoms: C_27  and  S_30
REMARK   12  A    between atoms: S_30  and  N_33
REMARK   13  A    between atoms: N_33  and  C_34
REMARK   14  A    between atoms: N_33  and  C_35
REMARK                            x       y       z     vdW  Elec       q    Type
REMARK                         _______ _______ _______ _____ _____    ______ ____
ROOT
ATOM      1  C   UNL     1      -1.449   4.168   2.452  0.00  0.00    +0.145 C 
ATOM      2  C   UNL     1      -2.033   5.554   2.302  0.00  0.00    +0.076 C 
ATOM      3  C   UNL     1      -3.320   5.396   1.913  0.00  0.00    +0.249 C 
ATOM      4  C   UNL     1      -3.617   3.952   1.792  0.00  0.00    +0.288 C 
ATOM      5  O   UNL     1      -4.689   3.486   1.461  0.00  0.00    -0.266 OA
ATOM      6  N   UNL     1      -2.524   3.232   2.103  0.00  0.00    -0.281 N 
ATOM      7  O   UNL     1      -4.196   6.399   1.674  0.00  0.00    -0.282 OA
ENDROOT
BRANCH   1  11
ATOM      8  C   UNL     1       1.851   3.678  -0.216  0.00  0.00    -0.045 A 
ATOM      9  C   UNL     1       0.618   4.067  -0.706  0.00  0.00    +0.004 A 
ATOM     10  C   UNL     1      -0.450   4.225   0.158  0.00  0.00    +0.006 A 
ATOM     11  C   UNL     1      -0.285   3.995   1.511  0.00  0.00    -0.022 A 
ATOM     12  C   UNL     1       0.949   3.611   2.001  0.00  0.00    +0.006 A 
ATOM     13  C   UNL     1       2.016   3.447   1.137  0.00  0.00    +0.004 A 
BRANCH   8  15
ATOM     14  C   UNL     1       4.142   4.458  -0.754  0.00  0.00    +0.012 C 
ATOM     15  C   UNL     1       3.015   3.505  -1.157  0.00  0.00    +0.013 C 
ATOM     16  C   UNL     1       3.518   2.062  -1.086  0.00  0.00    +0.012 C 
ENDBRANCH   8  15
ENDBRANCH   1  11
BRANCH   2  17
ATOM     17  C   UNL     1      -1.341   6.824   2.537  0.00  0.00    +0.195 C 
ATOM     18  O   UNL     1      -1.189   7.613   1.623  0.00  0.00    -0.287 OA
BRANCH  17  19
ATOM     19  C   UNL     1      -0.827   7.147   3.885  0.00  0.00    +0.022 A 
ATOM     20  C   UNL     1      -1.059   6.276   4.952  0.00  0.00    +0.013 A 
ATOM     21  C   UNL     1      -0.572   6.581   6.206  0.00  0.00    +0.029 A 
ATOM     22  C   UNL     1       0.135   7.753   6.411  0.00  0.00    +0.105 A 
ATOM     23  C   UNL     1       0.364   8.623   5.360  0.00  0.00    +0.029 A 
ATOM     24  C   UNL     1      -0.112   8.328   4.099  0.00  0.00    +0.013 A 
BRANCH  22  25
ATOM     25  S   UNL     1       0.747   8.138   8.018  0.00  0.00    +0.060 S 
ATOM     26  O   UNL     1       0.872   6.904   8.711  0.00  0.00    -0.153 OA
ATOM     27  O   UNL     1       1.844   9.023   7.833  0.00  0.00    -0.153 OA
BRANCH  25  28
ATOM     28  N   UNL     1      -0.432   9.002   8.797  0.00  0.00    -0.183 NA
ATOM     29  C   UNL     1      -1.448   8.304   9.588  0.00  0.00    +0.131 C 
ATOM     30  C   UNL     1      -0.459  10.463   8.694  0.00  0.00    +0.131 C 
ENDBRANCH  25  28
ENDBRANCH  22  25
ENDBRANCH  17  19
ENDBRANCH   2  17
BRANCH   6  31
ATOM     31  C   UNL     1      -2.426   1.770   2.099  0.00  0.00    +0.137 C 
BRANCH  31  32
ATOM     32  C   UNL     1      -2.128   1.282   0.680  0.00  0.00    +0.178 C 
BRANCH  32  33
ATOM     33  O   UNL     1      -0.806   1.678   0.308  0.00  0.00    -0.381 OA
ATOM     34  C   UNL     1      -0.376   1.157  -0.951  0.00  0.00    +0.194 C 
ENDBRANCH  32  33
ENDBRANCH  31  32
ENDBRANCH   6  31
TORSDOF 9
