REMARK  Name = ZINC57493581
REMARK  8 active torsions:
REMARK  status: ('A' for Active; 'I' for Inactive)
REMARK    1  A    between atoms: C_1  and  C_2
REMARK    2  A    between atoms: C_2  and  O_3
REMARK    3  A    between atoms: O_3  and  C_4
REMARK    4  A    between atoms: C_4  and  C_6
REMARK    5  A    between atoms: C_12  and  C_14
REMARK    6  A    between atoms: C_14  and  N_15
REMARK    7  A    between atoms: N_23  and  C_26
REMARK    8  A    between atoms: C_31  and  C_32
REMARK                            x       y       z     vdW  Elec       q    Type
REMARK                         _______ _______ _______ _____ _____    ______ ____
ROOT
ATOM      1  N   UNL     1      -6.219  -6.986   2.885  0.00  0.00    -0.284 N 
ATOM      2  C   UNL     1      -5.570  -7.311   4.085  0.00  0.00    +0.066 A 
ATOM      3  C   UNL     1      -4.250  -7.102   4.474  0.00  0.00    +0.034 A 
ATOM      4  C   UNL     1      -3.842  -7.504   5.697  0.00  0.00    +0.048 A 
ATOM      5  S   UNL     1      -5.212  -8.186   6.393  0.00  0.00    -0.090 S 
ATOM      6  C   UNL     1      -6.350  -7.942   5.058  0.00  0.00    +0.101 A 
ATOM      7  C   UNL     1      -7.700  -8.230   4.835  0.00  0.00    +0.275 A 
ATOM      8  O   UNL     1      -8.365  -8.781   5.694  0.00  0.00    -0.266 OA
ATOM      9  N   UNL     1      -8.256  -7.887   3.651  0.00  0.00    -0.228 N 
ATOM     10  C   UNL     1      -7.518  -7.274   2.710  0.00  0.00    +0.337 A 
ATOM     11  O   UNL     1      -8.047  -6.973   1.657  0.00  0.00    -0.246 OA
ENDROOT
BRANCH   9  12
ATOM     12  C   UNL     1      -9.608  -8.166   3.407  0.00  0.00    +0.057 A 
ATOM     13  C   UNL     1     -10.582  -7.231   3.734  0.00  0.00    +0.029 A 
ATOM     14  C   UNL     1     -11.913  -7.508   3.493  0.00  0.00    +0.040 A 
ATOM     15  C   UNL     1     -12.277  -8.718   2.926  0.00  0.00    +0.124 A 
ATOM     16  C   UNL     1     -11.308  -9.652   2.600  0.00  0.00    +0.043 A 
ATOM     17  C   UNL     1      -9.975  -9.376   2.833  0.00  0.00    -0.024 A 
ATOM     18  C   UNL     1      -8.920 -10.389   2.471  0.00  0.00    +0.046 C 
ATOM     19  F   UNL     1     -13.580  -8.988   2.691  0.00  0.00    -0.205 F 
ENDBRANCH   9  12
BRANCH   1  20
ATOM     20  C   UNL     1      -5.473  -6.322   1.813  0.00  0.00    +0.222 C 
BRANCH  20  27
ATOM     21  C   UNL     1      -2.881  -2.427   0.017  0.00  0.00    +0.101 C 
ATOM     22  C   UNL     1      -3.623  -1.970   1.275  0.00  0.00    +0.033 C 
ATOM     23  C   UNL     1      -5.041  -2.549   1.265  0.00  0.00    +0.108 C 
ATOM     24  N   UNL     1      -4.956  -4.007   1.110  0.00  0.00    -0.300 N 
ATOM     25  C   UNL     1      -4.189  -4.554  -0.017  0.00  0.00    +0.108 C 
ATOM     26  C   UNL     1      -2.780  -3.954   0.007  0.00  0.00    +0.033 C 
ATOM     27  C   UNL     1      -5.570  -4.828   1.985  0.00  0.00    +0.236 C 
ATOM     28  O   UNL     1      -6.200  -4.364   2.912  0.00  0.00    -0.274 OA
BRANCH  21  29
ATOM     29  C   UNL     1      -1.496  -1.832   0.006  0.00  0.00    +0.310 C 
ATOM     30  O   UNL     1      -0.528  -2.555  -0.007  0.00  0.00    -0.251 OA
BRANCH  29  31
ATOM     31  O   UNL     1      -1.339  -0.499   0.012  0.00  0.00    -0.465 OA
BRANCH  31  33
ATOM     32  C   UNL     1      -0.019   1.526   0.010  0.00  0.00    +0.048 C 
ATOM     33  C   UNL     1       0.002  -0.004   0.002  0.00  0.00    +0.229 C 
ENDBRANCH  31  33
ENDBRANCH  29  31
ENDBRANCH  21  29
ENDBRANCH  20  27
ENDBRANCH   1  20
TORSDOF 6
