REMARK  Name = ZINC01758365
REMARK  12 active torsions:
REMARK  status: ('A' for Active; 'I' for Inactive)
REMARK    1  A    between atoms: C_1  and  C_2
REMARK    2  A    between atoms: C_2  and  O_3
REMARK    3  A    between atoms: O_3  and  C_4
REMARK    4  A    between atoms: C_7  and  N_10
REMARK    5  A    between atoms: C_19  and  S_20
REMARK    6  A    between atoms: S_20  and  C_21
REMARK    7  A    between atoms: C_21  and  C_22
REMARK    8  A    between atoms: N_24  and  C_25
REMARK    9  A    between atoms: C_28  and  C_31
REMARK   10  A    between atoms: C_31  and  C_33
REMARK   11  A    between atoms: C_36  and  C_38
REMARK   12  A    between atoms: C_36  and  C_39
REMARK                            x       y       z     vdW  Elec       q    Type
REMARK                         _______ _______ _______ _____ _____    ______ ____
ROOT
ATOM      1  N   UNL     1       0.970  -5.966  -1.901  0.00  0.00    -0.255 N 
ATOM      2  C   UNL     1       1.516  -6.458  -3.029  0.00  0.00    +0.268 A 
ATOM      3  O   UNL     1       1.871  -5.707  -3.921  0.00  0.00    -0.267 OA
ATOM      4  C   UNL     1       1.676  -7.873  -3.166  0.00  0.00    +0.076 A 
ATOM      5  C   UNL     1       2.236  -8.620  -4.290  0.00  0.00    -0.018 A 
ATOM      6  C   UNL     1       2.276  -9.965  -4.177  0.00  0.00    +0.021 A 
ATOM      7  S   UNL     1       1.580 -10.312  -2.587  0.00  0.00    -0.071 S 
ATOM      8  C   UNL     1       1.234  -8.647  -2.078  0.00  0.00    +0.117 A 
ATOM      9  N   UNL     1       0.702  -8.100  -0.992  0.00  0.00    -0.215 NA
ATOM     10  C   UNL     1       0.572  -6.793  -0.888  0.00  0.00    +0.178 A 
ATOM     11  C   UNL     1       2.803 -10.925  -5.198  0.00  0.00    +0.203 C 
ATOM     12  O   UNL     1       2.961 -10.212  -6.435  0.00  0.00    -0.368 OA
ATOM     13  C   UNL     1       3.651  -8.968  -6.291  0.00  0.00    +0.068 C 
ATOM     14  C   UNL     1       2.767  -7.955  -5.558  0.00  0.00    +0.071 C 
ATOM     15  C   UNL     1       4.936  -9.191  -5.491  0.00  0.00    +0.041 C 
ATOM     16  C   UNL     1       4.007  -8.422  -7.676  0.00  0.00    +0.041 C 
ENDROOT
BRANCH   1  20
ATOM     17  C   UNL     1       0.498  -1.843  -1.484  0.00  0.00    +0.121 A 
ATOM     18  C   UNL     1      -0.268  -2.539  -2.408  0.00  0.00    +0.047 A 
ATOM     19  C   UNL     1      -0.112  -3.904  -2.546  0.00  0.00    +0.030 A 
ATOM     20  C   UNL     1       0.812  -4.580  -1.761  0.00  0.00    +0.052 A 
ATOM     21  C   UNL     1       1.579  -3.883  -0.837  0.00  0.00    +0.030 A 
ATOM     22  C   UNL     1       1.426  -2.518  -0.703  0.00  0.00    +0.047 A 
BRANCH  17  23
ATOM     23  O   UNL     1       0.344  -0.500  -1.347  0.00  0.00    -0.492 OA
BRANCH  23  25
ATOM     24  C   UNL     1      -0.660   1.631  -1.889  0.00  0.00    +0.048 C 
ATOM     25  C   UNL     1      -0.629   0.130  -2.183  0.00  0.00    +0.225 C 
ENDBRANCH  23  25
ENDBRANCH  17  23
ENDBRANCH   1  20
BRANCH  10  26
ATOM     26  S   UNL     1      -0.131  -6.101   0.572  0.00  0.00    -0.078 S 
BRANCH  26  27
ATOM     27  C   UNL     1      -0.497  -7.545   1.608  0.00  0.00    +0.173 C 
BRANCH  27  28
ATOM     28  C   UNL     1      -1.111  -7.088   2.906  0.00  0.00    +0.227 C 
ATOM     29  O   UNL     1      -1.286  -5.906   3.112  0.00  0.00    -0.275 OA
ATOM     30  N   UNL     1      -1.468  -7.994   3.839  0.00  0.00    -0.285 N 
ATOM     31  H   UNL     1      -1.265  -8.933   3.705  0.00  0.00    +0.155 HD
BRANCH  30  32
ATOM     32  C   UNL     1      -2.126  -7.582   4.995  0.00  0.00    +0.033 A 
ATOM     33  C   UNL     1      -1.906  -8.251   6.196  0.00  0.00    +0.024 A 
ATOM     34  C   UNL     1      -2.551  -7.848   7.336  0.00  0.00    +0.013 A 
ATOM     35  C   UNL     1      -3.434  -6.761   7.292  0.00  0.00    +0.017 A 
ATOM     36  C   UNL     1      -3.652  -6.091   6.082  0.00  0.00    +0.013 A 
ATOM     37  C   UNL     1      -2.999  -6.498   4.947  0.00  0.00    +0.024 A 
BRANCH  35  38
ATOM     38  C   UNL     1      -4.128  -6.327   8.511  0.00  0.00    +0.160 C 
ATOM     39  O   UNL     1      -4.011  -6.965   9.536  0.00  0.00    -0.292 OA
ATOM     40  C   UNL     1      -4.985  -5.088   8.488  0.00  0.00    +0.091 C 
ENDBRANCH  35  38
ENDBRANCH  30  32
ENDBRANCH  27  28
ENDBRANCH  26  27
ENDBRANCH  10  26
TORSDOF 8
