REMARK  Name = ZINC39226304
REMARK  7 active torsions:
REMARK  status: ('A' for Active; 'I' for Inactive)
REMARK    1  A    between atoms: C_1  and  C_2
REMARK    2  A    between atoms: C_2  and  C_3
REMARK    3  A    between atoms: C_2  and  N_4
REMARK    4  A    between atoms: C_15  and  C_20
REMARK    5  A    between atoms: C_24  and  C_26
REMARK    6  A    between atoms: C_32  and  C_35
REMARK    7  A    between atoms: C_35  and  O_36
REMARK                            x       y       z     vdW  Elec       q    Type
REMARK                         _______ _______ _______ _____ _____    ______ ____
ROOT
ATOM      1  N   UNL     1       0.426   1.937   1.669  0.00  0.00    +0.381 N 
ATOM      2  C   UNL     1       0.458   0.532   1.246  0.00  0.00    -0.075 C 
ATOM      3  C   UNL     1       1.307  -0.281   2.225  0.00  0.00    +0.030 C 
ATOM      4  C   UNL     1       0.699  -0.179   3.626  0.00  0.00    +0.114 C 
ATOM      5  C   UNL     1       0.600   1.294   4.027  0.00  0.00    +0.030 C 
ATOM      6  C   UNL     1      -0.225   2.048   2.981  0.00  0.00    -0.075 C 
ATOM      7  C   UNL     1       1.600  -0.917   4.626  0.00  0.00    +0.127 C 
ATOM      8  C   UNL     1       0.940  -0.804   5.989  0.00  0.00    +0.170 C 
ATOM      9  O   UNL     1       1.586  -0.612   6.997  0.00  0.00    -0.292 OA
ATOM     10  C   UNL     1      -0.528  -0.938   6.023  0.00  0.00    +0.060 A 
ATOM     11  C   UNL     1      -1.199  -1.092   7.235  0.00  0.00    +0.023 A 
ATOM     12  C   UNL     1      -2.584  -1.211   7.241  0.00  0.00    -0.017 A 
ATOM     13  C   UNL     1      -3.291  -1.176   6.037  0.00  0.00    +0.012 A 
ATOM     14  C   UNL     1      -2.628  -1.025   4.838  0.00  0.00    +0.047 A 
ATOM     15  C   UNL     1      -1.244  -0.907   4.814  0.00  0.00    +0.132 A 
ATOM     16  O   UNL     1      -0.600  -0.768   3.632  0.00  0.00    -0.485 OA
ATOM     17  H   UNL     1       1.369   2.289   1.732  0.00  0.00    -0.081 HD
ENDROOT
BRANCH  12  18
ATOM     18  C   UNL     1      -3.310  -1.376   8.524  0.00  0.00    -0.017 A 
ATOM     19  C   UNL     1      -2.605  -1.405   9.727  0.00  0.00    +0.008 A 
ATOM     20  C   UNL     1      -3.278  -1.558  10.923  0.00  0.00    +0.001 A 
ATOM     21  C   UNL     1      -4.653  -1.682  10.937  0.00  0.00    +0.013 A 
ATOM     22  C   UNL     1      -5.370  -1.654   9.740  0.00  0.00    +0.037 A 
ATOM     23  C   UNL     1      -4.696  -1.495   8.530  0.00  0.00    +0.021 A 
BRANCH  22  24
ATOM     24  C   UNL     1      -6.843  -1.788   9.755  0.00  0.00    +0.247 C 
ATOM     25  O   UNL     1      -7.496  -1.220  10.608  0.00  0.00    -0.270 OA
ATOM     26  N   UNL     1      -7.461  -2.541   8.822  0.00  0.00    -0.297 N 
ATOM     27  C   UNL     1      -6.680  -3.340   7.868  0.00  0.00    +0.108 C 
ATOM     28  C   UNL     1      -7.165  -4.792   7.928  0.00  0.00    +0.019 C 
ATOM     29  C   UNL     1      -8.677  -4.830   7.691  0.00  0.00    +0.009 C 
ATOM     30  C   UNL     1      -9.387  -4.038   8.791  0.00  0.00    +0.032 C 
ATOM     31  C   UNL     1      -8.927  -2.583   8.745  0.00  0.00    +0.113 C 
BRANCH  30  32
ATOM     32  C   UNL     1     -10.900  -4.106   8.573  0.00  0.00    +0.160 C 
BRANCH  32  33
ATOM     33  O   UNL     1     -11.567  -3.465   9.663  0.00  0.00    -0.395 OA
ATOM     34  H   UNL     1     -12.532  -3.470   9.591  0.00  0.00    +0.209 HD
ENDBRANCH  32  33
ENDBRANCH  30  32
ENDBRANCH  22  24
ENDBRANCH  12  18
BRANCH   1  36
ATOM     35  C   UNL     1      -0.351   4.194   1.119  0.00  0.00    -0.014 C 
ATOM     36  C   UNL     1      -0.325   2.727   0.684  0.00  0.00    -0.075 C 
ATOM     37  C   UNL     1       0.352   2.613  -0.683  0.00  0.00    -0.014 C 
ENDBRANCH   1  36
TORSDOF 5
