REMARK  Name = ZINC10000366
REMARK  13 active torsions:
REMARK  status: ('A' for Active; 'I' for Inactive)
REMARK    1  A    between atoms: C_1  and  C_2
REMARK    2  A    between atoms: C_2  and  C_3
REMARK    3  A    between atoms: C_3  and  C_4
REMARK    4  A    between atoms: C_4  and  O_5
REMARK    5  A    between atoms: O_5  and  C_6
REMARK    6  A    between atoms: C_11  and  C_12
REMARK    7  A    between atoms: N_13  and  N_14
REMARK    8  A    between atoms: C_15  and  C_17
REMARK    9  A    between atoms: C_17  and  C_19
REMARK   10  A    between atoms: C_17  and  N_22
REMARK   11  A    between atoms: C_19  and  C_20
REMARK   12  A    between atoms: C_19  and  C_21
REMARK   13  A    between atoms: C_23  and  C_25
REMARK                            x       y       z     vdW  Elec       q    Type
REMARK                         _______ _______ _______ _____ _____    ______ ____
ROOT
ATOM      1  N   UNL     1      -3.659  -4.915   1.657  0.00  0.00    -0.205 N 
ATOM      2  C   UNL     1      -2.946  -3.803   1.926  0.00  0.00    +0.253 C 
ATOM      3  O   UNL     1      -1.826  -3.895   2.381  0.00  0.00    -0.272 OA
ATOM      4  H   UNL     1      -4.525  -4.844   1.227  0.00  0.00    +0.177 HD
ENDROOT
BRANCH   1   6
ATOM      5  C   UNL     1      -3.779  -7.250   1.641  0.00  0.00    +0.142 C 
ATOM      6  N   UNL     1      -3.147  -6.174   1.999  0.00  0.00    -0.188 NA
BRANCH   5  12
ATOM      7  C   UNL     1      -5.942  -8.131   0.772  0.00  0.00    +0.129 A 
ATOM      8  C   UNL     1      -7.028  -8.033  -0.083  0.00  0.00    +0.047 A 
ATOM      9  C   UNL     1      -7.112  -6.984  -0.979  0.00  0.00    +0.019 A 
ATOM     10  C   UNL     1      -6.116  -6.021  -1.026  0.00  0.00    +0.019 A 
ATOM     11  C   UNL     1      -5.031  -6.102  -0.178  0.00  0.00    +0.028 A 
ATOM     12  C   UNL     1      -4.935  -7.157   0.732  0.00  0.00    +0.037 A 
ATOM     13 BR   UNL     1      -6.245  -4.592  -2.258  0.00  0.00    -0.050 Br
BRANCH   7  14
ATOM     14  O   UNL     1      -5.857  -9.165   1.649  0.00  0.00    -0.491 OA
BRANCH  14  15
ATOM     15  C   UNL     1      -6.867 -10.172   1.565  0.00  0.00    +0.229 C 
BRANCH  15  16
ATOM     16  C   UNL     1      -6.664 -11.193   2.686  0.00  0.00    +0.041 C 
BRANCH  16  18
ATOM     17  C   UNL     1      -7.386 -13.415   3.570  0.00  0.00    +0.004 C 
ATOM     18  C   UNL     1      -7.668 -12.336   2.523  0.00  0.00    -0.000 C 
ENDBRANCH  16  18
ENDBRANCH  15  16
ENDBRANCH  14  15
ENDBRANCH   7  14
ENDBRANCH   5  12
ENDBRANCH   1   6
BRANCH   2  19
ATOM     19  C   UNL     1      -3.542  -2.444   1.661  0.00  0.00    +0.163 C 
BRANCH  19  20
ATOM     20  N   UNL     1      -2.640  -1.408   2.168  0.00  0.00    -0.300 N 
ATOM     21  C   UNL     1      -3.143  -0.308   2.765  0.00  0.00    +0.246 C 
ATOM     22  O   UNL     1      -4.345  -0.132   2.799  0.00  0.00    -0.270 OA
ATOM     23  H   UNL     1      -1.680  -1.512   2.075  0.00  0.00    +0.150 HD
BRANCH  21  24
ATOM     24  C   UNL     1      -2.233   0.682   3.377  0.00  0.00    +0.055 A 
ATOM     25  C   UNL     1      -0.851   0.483   3.339  0.00  0.00    +0.014 A 
ATOM     26  C   UNL     1      -0.008   1.412   3.911  0.00  0.00    +0.001 A 
ATOM     27  C   UNL     1      -0.527   2.540   4.522  0.00  0.00    +0.001 A 
ATOM     28  C   UNL     1      -1.894   2.744   4.565  0.00  0.00    +0.021 A 
ATOM     29  C   UNL     1      -2.751   1.823   3.995  0.00  0.00    +0.053 A 
ATOM     30 CL   UNL     1      -4.466   2.084   4.042  0.00  0.00    -0.083 Cl
ENDBRANCH  21  24
ENDBRANCH  19  20
BRANCH  19  31
ATOM     31  C   UNL     1      -3.738  -2.257   0.155  0.00  0.00    +0.012 C 
ATOM     32  C   UNL     1      -4.464  -0.936  -0.105  0.00  0.00    +0.009 C 
ATOM     33  C   UNL     1      -2.374  -2.235  -0.537  0.00  0.00    +0.009 C 
ENDBRANCH  19  31
ENDBRANCH   2  19
TORSDOF 10
