REMARK  Name = ZINC64462980
REMARK  10 active torsions:
REMARK  status: ('A' for Active; 'I' for Inactive)
REMARK    1  A    between atoms: C_1  and  C_2
REMARK    2  A    between atoms: C_2  and  N_3
REMARK    3  A    between atoms: N_3  and  C_4
REMARK    4  A    between atoms: N_3  and  C_6
REMARK    5  A    between atoms: C_4  and  C_5
REMARK    6  A    between atoms: C_9  and  N_13
REMARK    7  A    between atoms: C_10  and  C_12
REMARK    8  A    between atoms: C_14  and  C_16
REMARK    9  A    between atoms: C_16  and  S_17
REMARK   10  A    between atoms: S_17  and  C_18
REMARK                            x       y       z     vdW  Elec       q    Type
REMARK                         _______ _______ _______ _____ _____    ______ ____
ROOT
ATOM      1  N   UNL     1      -1.561  -6.216   1.004  0.00  0.00    -0.285 N 
ATOM      2  C   UNL     1      -0.876  -7.082   0.231  0.00  0.00    +0.227 C 
ATOM      3  O   UNL     1      -0.133  -6.667  -0.633  0.00  0.00    -0.275 OA
ATOM      4  H   UNL     1      -2.103  -6.546   1.738  0.00  0.00    +0.155 HD
ENDROOT
BRANCH   1   8
ATOM      5  C   UNL     1      -1.349  -2.126   0.241  0.00  0.00    +0.014 A 
ATOM      6  C   UNL     1      -0.304  -2.953  -0.131  0.00  0.00    +0.023 A 
ATOM      7  C   UNL     1      -0.371  -4.309   0.120  0.00  0.00    +0.025 A 
ATOM      8  C   UNL     1      -1.489  -4.843   0.749  0.00  0.00    +0.036 A 
ATOM      9  C   UNL     1      -2.536  -4.010   1.122  0.00  0.00    -0.028 A 
ATOM     10  C   UNL     1      -2.460  -2.654   0.872  0.00  0.00    +0.026 A 
ATOM     11  C   UNL     1      -3.750  -4.585   1.804  0.00  0.00    +0.046 C 
BRANCH   5  12
ATOM     12  N   UNL     1      -1.277  -0.754  -0.014  0.00  0.00    -0.394 NA
ATOM     13  H   UNL     1      -2.115  -0.305   0.324  0.00  0.00    +0.126 HD
BRANCH  12  15
ATOM     14  C   UNL     1      -0.290  -0.317   2.184  0.00  0.00    +0.022 C 
ATOM     15  C   UNL     1      -0.107  -0.188   0.670  0.00  0.00    +0.081 C 
ENDBRANCH  12  15
BRANCH  12  16
ATOM     16  C   UNL     1      -1.153  -0.531  -1.461  0.00  0.00    +0.081 C 
ATOM     17  C   UNL     1      -2.423  -1.017  -2.163  0.00  0.00    +0.022 C 
ENDBRANCH  12  16
ENDBRANCH   5  12
ENDBRANCH   1   8
BRANCH   2  18
ATOM     18  C   UNL     1      -1.035  -8.567   0.439  0.00  0.00    +0.172 C 
BRANCH  18  19
ATOM     19  S   UNL     1       0.008  -9.459  -0.747  0.00  0.00    -0.095 S 
BRANCH  19  20
ATOM     20  C   UNL     1      -0.285 -11.157  -0.380  0.00  0.00    +0.116 A 
ATOM     21  C   UNL     1       0.352 -12.153  -1.087  0.00  0.00    +0.091 A 
ATOM     22  C   UNL     1       0.127 -13.519  -0.803  0.00  0.00    +0.173 A 
ATOM     23  N   UNL     1      -0.748 -13.764   0.202  0.00  0.00    -0.215 NA
ATOM     24  C   UNL     1      -1.334 -12.790   0.852  0.00  0.00    +0.224 A 
ATOM     25  N   UNL     1      -1.126 -11.512   0.596  0.00  0.00    -0.228 NA
ATOM     26  N   UNL     1       0.802 -14.393  -1.558  0.00  0.00    -0.205 NA
ATOM     27  C   UNL     1       1.630 -14.014  -2.512  0.00  0.00    +0.164 A 
ATOM     28  S   UNL     1       1.520 -12.232  -2.420  0.00  0.00    -0.048 S 
ATOM     29  N   UNL     1       2.387 -14.793  -3.361  0.00  0.00    -0.308 N 
ATOM     30  C   UNL     1       3.251 -14.151  -4.352  0.00  0.00    +0.117 C 
ATOM     31  C   UNL     1       4.718 -14.447  -4.019  0.00  0.00    +0.088 C 
ATOM     32  S   UNL     1       4.950 -16.249  -3.966  0.00  0.00    -0.158 S 
ATOM     33  C   UNL     1       3.672 -16.797  -2.796  0.00  0.00    +0.088 C 
ATOM     34  C   UNL     1       2.321 -16.251  -3.256  0.00  0.00    +0.117 C 
ENDBRANCH  19  20
ENDBRANCH  18  19
ENDBRANCH   2  18
TORSDOF 7
