REMARK  Name = ZINC36705990
REMARK  6 active torsions:
REMARK  status: ('A' for Active; 'I' for Inactive)
REMARK    1  A    between atoms: C_1  and  C_2
REMARK    2  A    between atoms: C_3  and  C_7
REMARK    3  A    between atoms: N_9  and  C_19
REMARK    4  A    between atoms: N_12  and  C_13
REMARK    5  A    between atoms: C_19  and  N_20
REMARK    6  A    between atoms: C_24  and  C_27
REMARK                            x       y       z     vdW  Elec       q    Type
REMARK                         _______ _______ _______ _____ _____    ______ ____
ROOT
ATOM      1  C   UNL     1      -2.628  -0.357  -0.508  0.00  0.00    +0.171 A 
ATOM      2  N   UNL     1      -3.025   0.854  -0.231  0.00  0.00    -0.152 NA
ATOM      3  N   UNL     1      -4.278   0.768   0.391  0.00  0.00    -0.257 N 
ATOM      4  C   UNL     1      -4.604  -0.538   0.470  0.00  0.00    +0.181 A 
ATOM      5  S   UNL     1      -6.039  -1.182   1.147  0.00  0.00    -0.011 S 
ATOM      6  N   UNL     1      -3.599  -1.244  -0.085  0.00  0.00    -0.271 N 
ENDROOT
BRANCH   1   9
ATOM      7  C   UNL     1      -0.517   1.634  -1.695  0.00  0.00    +0.087 C 
ATOM      8  C   UNL     1      -0.429   0.130  -1.690  0.00  0.00    +0.112 A 
ATOM      9  C   UNL     1      -1.355  -0.720  -1.170  0.00  0.00    +0.060 A 
ATOM     10  C   UNL     1      -0.830  -2.071  -1.401  0.00  0.00    +0.053 A 
ATOM     11  C   UNL     1       0.346  -1.909  -2.029  0.00  0.00    +0.196 A 
ATOM     12  O   UNL     1       0.574  -0.598  -2.201  0.00  0.00    -0.467 OA
ENDBRANCH   1   9
BRANCH   6  13
ATOM     13  C   UNL     1      -3.548  -2.639  -0.210  0.00  0.00    +0.050 A 
ATOM     14  C   UNL     1      -3.041  -3.411   0.827  0.00  0.00    +0.026 A 
ATOM     15  C   UNL     1      -2.992  -4.786   0.702  0.00  0.00    +0.002 A 
ATOM     16  C   UNL     1      -3.446  -5.393  -0.455  0.00  0.00    +0.000 A 
ATOM     17  C   UNL     1      -3.951  -4.626  -1.489  0.00  0.00    +0.002 A 
ATOM     18  C   UNL     1      -4.008  -3.252  -1.367  0.00  0.00    +0.026 A 
ENDBRANCH   6  13
BRANCH   3  19
ATOM     19  C   UNL     1      -5.085   1.893   0.869  0.00  0.00    +0.072 C 
BRANCH  19  20
ATOM     20  N   UNL     1      -5.701   2.576  -0.277  0.00  0.00    +0.393 N 
ATOM     21  C   UNL     1      -4.651   3.169  -1.114  0.00  0.00    -0.076 C 
ATOM     22  C   UNL     1      -5.282   3.811  -2.351  0.00  0.00    -0.018 C 
ATOM     23  C   UNL     1      -6.262   4.902  -1.910  0.00  0.00    +0.008 C 
ATOM     24  C   UNL     1      -7.310   4.287  -0.978  0.00  0.00    +0.077 C 
ATOM     25  C   UNL     1      -6.604   3.627   0.209  0.00  0.00    -0.064 C 
ATOM     26  H   UNL     1      -6.226   1.909  -0.822  0.00  0.00    -0.079 HD
BRANCH  24  27
ATOM     27  C   UNL     1      -8.248   5.383  -0.469  0.00  0.00    +0.391 C 
ATOM     28  F   UNL     1      -8.889   5.988  -1.556  0.00  0.00    -0.171 F 
ATOM     29  F   UNL     1      -9.205   4.820   0.382  0.00  0.00    -0.171 F 
ATOM     30  F   UNL     1      -7.509   6.343   0.230  0.00  0.00    -0.171 F 
ENDBRANCH  24  27
ENDBRANCH  19  20
ENDBRANCH   3  19
TORSDOF 5
