REMARK  Name = ZINC38798988
REMARK  9 active torsions:
REMARK  status: ('A' for Active; 'I' for Inactive)
REMARK    1  A    between atoms: C_1  and  C_2
REMARK    2  A    between atoms: C_2  and  C_4
REMARK    3  A    between atoms: C_2  and  S_21
REMARK    4  A    between atoms: N_6  and  C_7
REMARK    5  A    between atoms: C_10  and  O_13
REMARK    6  A    between atoms: O_13  and  C_14
REMARK    7  A    between atoms: C_14  and  C_15
REMARK    8  A    between atoms: S_21  and  C_22
REMARK    9  A    between atoms: C_26  and  C_28
REMARK                            x       y       z     vdW  Elec       q    Type
REMARK                         _______ _______ _______ _____ _____    ______ ____
ROOT
ATOM      1  C   UNL     1      -0.030   1.532   0.018  0.00  0.00    +0.029 C 
ATOM      2  C   UNL     1      -0.000   0.002   0.002  0.00  0.00    +0.134 C 
ENDROOT
BRANCH   2   3
ATOM      3  C   UNL     1      -1.411  -0.527   0.013  0.00  0.00    +0.230 C 
ATOM      4  O   UNL     1      -1.935  -0.837   1.062  0.00  0.00    -0.274 OA
ATOM      5  N   UNL     1      -2.090  -0.657  -1.144  0.00  0.00    -0.285 N 
ATOM      6  H   UNL     1      -1.697  -0.348  -1.975  0.00  0.00    +0.155 HD
BRANCH   5   7
ATOM      7  C   UNL     1      -3.365  -1.239  -1.147  0.00  0.00    +0.034 A 
ATOM      8  C   UNL     1      -3.766  -2.029  -2.216  0.00  0.00    +0.027 A 
ATOM      9  C   UNL     1      -5.022  -2.602  -2.218  0.00  0.00    +0.047 A 
ATOM     10  C   UNL     1      -5.883  -2.390  -1.151  0.00  0.00    +0.121 A 
ATOM     11  C   UNL     1      -5.483  -1.602  -0.083  0.00  0.00    +0.047 A 
ATOM     12  C   UNL     1      -4.225  -1.032  -0.077  0.00  0.00    +0.027 A 
BRANCH  10  13
ATOM     13  O   UNL     1      -7.120  -2.955  -1.154  0.00  0.00    -0.487 OA
BRANCH  13  14
ATOM     14  C   UNL     1      -7.954  -2.695  -0.024  0.00  0.00    +0.264 C 
BRANCH  14  15
ATOM     15  C   UNL     1      -9.275  -3.398  -0.202  0.00  0.00    -0.010 A 
ATOM     16  C   UNL     1     -10.320  -2.754  -0.837  0.00  0.00    +0.007 A 
ATOM     17  C   UNL     1     -11.532  -3.399  -1.000  0.00  0.00    +0.000 A 
ATOM     18  C   UNL     1     -11.698  -4.688  -0.529  0.00  0.00    +0.000 A 
ATOM     19  C   UNL     1     -10.653  -5.332   0.106  0.00  0.00    +0.000 A 
ATOM     20  C   UNL     1      -9.440  -4.688   0.266  0.00  0.00    +0.007 A 
ENDBRANCH  14  15
ENDBRANCH  13  14
ENDBRANCH  10  13
ENDBRANCH   5   7
ENDBRANCH   2   3
BRANCH   2  21
ATOM     21  S   UNL     1       0.882  -0.601   1.468  0.00  0.00    -0.084 S 
BRANCH  21  22
ATOM     22  C   UNL     1       2.581  -0.010   1.231  0.00  0.00    +0.340 C 
ATOM     23  N   UNL     1       2.603   1.457   1.104  0.00  0.00    -0.219 N 
ATOM     24  N   UNL     1       3.125   1.717  -0.171  0.00  0.00    -0.145 NA
ATOM     25  C   UNL     1       3.401   0.594  -0.781  0.00  0.00    +0.238 C 
ATOM     26  O   UNL     1       3.108  -0.488  -0.015  0.00  0.00    -0.443 OA
ATOM     27  H   UNL     1       2.316   2.107   1.764  0.00  0.00    +0.173 HD
BRANCH  25  28
ATOM     28  C   UNL     1       3.937   0.516  -2.074  0.00  0.00    +0.043 C 
ATOM     29  C   UNL     1       4.270   1.579  -2.915  0.00  0.00    +0.008 A 
ATOM     30  C   UNL     1       4.184   2.979  -2.761  0.00  0.00    +0.010 A 
ATOM     31  C   UNL     1       4.590   3.794  -3.769  0.00  0.00    +0.001 A 
ATOM     32  C   UNL     1       5.094   3.281  -4.966  0.00  0.00    +0.002 A 
ATOM     33  C   UNL     1       5.204   1.947  -5.182  0.00  0.00    +0.026 A 
ATOM     34  C   UNL     1       4.800   1.033  -4.174  0.00  0.00    +0.043 A 
ATOM     35  N   UNL     1       4.806  -0.285  -4.139  0.00  0.00    -0.380 N 
ATOM     36  C   UNL     1       4.283  -0.737  -2.846  0.00  0.00    +0.154 C 
ATOM     37  H   UNL     1       5.111  -0.865  -4.855  0.00  0.00    +0.160 HD
ENDBRANCH  25  28
ENDBRANCH  21  22
ENDBRANCH   2  21
TORSDOF 8
