REMARK  Name = ZINC66208350
REMARK  8 active torsions:
REMARK  status: ('A' for Active; 'I' for Inactive)
REMARK    1  A    between atoms: C_1  and  C_2
REMARK    2  A    between atoms: C_2  and  C_3
REMARK    3  A    between atoms: C_2  and  C_4
REMARK    4  A    between atoms: N_6  and  C_7
REMARK    5  A    between atoms: C_10  and  N_13
REMARK    6  A    between atoms: C_14  and  C_16
REMARK    7  A    between atoms: C_16  and  N_17
REMARK    8  A    between atoms: N_17  and  C_18
REMARK                            x       y       z     vdW  Elec       q    Type
REMARK                         _______ _______ _______ _____ _____    ______ ____
ROOT
ATOM      1  N   UNL     1       4.301  -1.750  -6.271  0.00  0.00    -0.284 N 
ATOM      2  C   UNL     1       5.600  -2.107  -6.308  0.00  0.00    +0.234 C 
ATOM      3  O   UNL     1       6.289  -1.994  -5.316  0.00  0.00    -0.274 OA
ATOM      4  H   UNL     1       3.767  -1.777  -7.080  0.00  0.00    +0.155 HD
ENDROOT
BRANCH   1   8
ATOM      5  C   UNL     1       2.578  -0.526  -2.675  0.00  0.00    +0.034 A 
ATOM      6  C   UNL     1       1.828  -1.249  -3.594  0.00  0.00    +0.025 A 
ATOM      7  C   UNL     1       2.398  -1.654  -4.785  0.00  0.00    +0.025 A 
ATOM      8  C   UNL     1       3.722  -1.338  -5.063  0.00  0.00    +0.034 A 
ATOM      9  C   UNL     1       4.472  -0.616  -4.144  0.00  0.00    +0.025 A 
ATOM     10  C   UNL     1       3.900  -0.206  -2.957  0.00  0.00    +0.025 A 
BRANCH   5  13
ATOM     11  C   UNL     1       2.343   1.069  -0.925  0.00  0.00    +0.220 C 
ATOM     12  O   UNL     1       3.213   1.742  -1.436  0.00  0.00    -0.275 OA
ATOM     13  N   UNL     1       1.999  -0.115  -1.468  0.00  0.00    -0.285 N 
ATOM     14  H   UNL     1       1.351  -0.684  -1.022  0.00  0.00    +0.155 HD
BRANCH  11  16
ATOM     15  C   UNL     1       1.862   0.555   1.453  0.00  0.00    +0.017 C 
ATOM     16  C   UNL     1       1.645   1.559   0.318  0.00  0.00    +0.069 C 
ATOM     17  C   UNL     1       2.219   2.918   0.723  0.00  0.00    +0.017 C 
ENDBRANCH  11  16
ENDBRANCH   5  13
ENDBRANCH   1   8
BRANCH   2  18
ATOM     18  C   UNL     1       6.196  -2.648  -7.582  0.00  0.00    +0.198 C 
BRANCH  18  19
ATOM     19  N   UNL     1       7.611  -2.961  -7.364  0.00  0.00    -0.335 N 
ATOM     20  H   UNL     1       8.013  -2.808  -6.495  0.00  0.00    +0.147 HD
BRANCH  19  21
ATOM     21  C   UNL     1       8.380  -3.479  -8.409  0.00  0.00    +0.028 A 
ATOM     22  C   UNL     1       7.806  -3.694  -9.656  0.00  0.00    +0.024 A 
ATOM     23  C   UNL     1       8.569  -4.206 -10.687  0.00  0.00    +0.016 A 
ATOM     24  C   UNL     1       9.903  -4.507 -10.478  0.00  0.00    +0.013 A 
ATOM     25  C   UNL     1      10.477  -4.294  -9.238  0.00  0.00    +0.016 A 
ATOM     26  C   UNL     1       9.721  -3.776  -8.205  0.00  0.00    +0.024 A 
ATOM     27  I   UNL     1      11.056  -5.286 -12.044  0.00  0.00    -0.044 I 
ENDBRANCH  19  21
ENDBRANCH  18  19
ENDBRANCH   2  18
TORSDOF 6
