REMARK  Name = ZINC09844125
REMARK  6 active torsions:
REMARK  status: ('A' for Active; 'I' for Inactive)
REMARK    1  A    between atoms: C_6  and  C_7
REMARK    2  A    between atoms: N_12  and  C_14
REMARK    3  A    between atoms: C_14  and  C_15
REMARK    4  A    between atoms: C_15  and  N_16
REMARK    5  A    between atoms: C_17  and  C_19
REMARK    6  A    between atoms: C_23  and  N_25
REMARK                            x       y       z     vdW  Elec       q    Type
REMARK                         _______ _______ _______ _____ _____    ______ ____
ROOT
ATOM      1  C   UNL     1      -0.013   1.086   0.008  0.00  0.00    +0.166 C 
ENDROOT
BRANCH   1   7
ATOM      2  C   UNL     1      -2.334   1.228  -2.745  0.00  0.00    +0.092 A 
ATOM      3  C   UNL     1      -2.042   2.459  -3.377  0.00  0.00    +0.035 A 
ATOM      4  C   UNL     1      -1.050   3.234  -2.855  0.00  0.00    +0.074 A 
ATOM      5  C   UNL     1      -0.376   2.760  -1.707  0.00  0.00    +0.267 A 
ATOM      6  O   UNL     1       0.517   3.421  -1.202  0.00  0.00    -0.266 OA
ATOM      7  N   UNL     1      -0.721   1.571  -1.179  0.00  0.00    -0.227 N 
ATOM      8  N   UNL     1      -1.658   0.853  -1.684  0.00  0.00    -0.168 NA
BRANCH   2  14
ATOM      9  C   UNL     1      -4.130   0.751  -4.407  0.00  0.00    +0.013 A 
ATOM     10  C   UNL     1      -5.125  -0.065  -4.906  0.00  0.00    +0.039 A 
ATOM     11  C   UNL     1      -5.410  -1.271  -4.288  0.00  0.00    +0.123 A 
ATOM     12  C   UNL     1      -4.696  -1.666  -3.168  0.00  0.00    +0.039 A 
ATOM     13  C   UNL     1      -3.697  -0.859  -2.664  0.00  0.00    +0.013 A 
ATOM     14  C   UNL     1      -3.406   0.356  -3.283  0.00  0.00    +0.002 A 
ATOM     15  F   UNL     1      -6.387  -2.065  -4.777  0.00  0.00    -0.205 F 
ENDBRANCH   2  14
ENDBRANCH   1   7
BRANCH   1  16
ATOM     16  C   UNL     1      -0.729   1.579   1.267  0.00  0.00    +0.128 C 
BRANCH  16  17
ATOM     17  N   UNL     1      -0.020   1.094   2.454  0.00  0.00    -0.310 N 
ATOM     18  C   UNL     1      -0.473   1.407   3.684  0.00  0.00    +0.244 C 
ATOM     19  O   UNL     1      -1.470   2.091   3.809  0.00  0.00    -0.270 OA
ATOM     20  H   UNL     1       0.775   0.547   2.354  0.00  0.00    +0.149 HD
BRANCH  18  21
ATOM     21  C   UNL     1       0.241   0.917   4.881  0.00  0.00    +0.039 A 
ATOM     22  C   UNL     1       1.383   0.126   4.741  0.00  0.00    +0.014 A 
ATOM     23  C   UNL     1       2.049  -0.324   5.862  0.00  0.00    +0.023 A 
ATOM     24  C   UNL     1       1.580  -0.001   7.125  0.00  0.00    +0.071 A 
ATOM     25  C   UNL     1       0.445   0.779   7.270  0.00  0.00    +0.145 A 
ATOM     26  C   UNL     1      -0.226   1.239   6.157  0.00  0.00    +0.047 A 
ATOM     27 CL   UNL     1       2.420  -0.577   8.531  0.00  0.00    -0.081 Cl
BRANCH  25  28
ATOM     28  N   UNL     1      -0.048   1.120   8.623  0.00  0.00    +0.058 N 
ATOM     29  O   UNL     1      -1.046   1.807   8.752  0.00  0.00    -0.126 OA
ATOM     30  O   UNL     1       0.544   0.715   9.608  0.00  0.00    -0.126 OA
ENDBRANCH  25  28
ENDBRANCH  18  21
ENDBRANCH  16  17
ENDBRANCH   1  16
TORSDOF 6
