REMARK  Name = ZINC20685190
REMARK  7 active torsions:
REMARK  status: ('A' for Active; 'I' for Inactive)
REMARK    1  A    between atoms: C_1  and  C_2
REMARK    2  A    between atoms: C_2  and  C_4
REMARK    3  A    between atoms: C_2  and  N_20
REMARK    4  A    between atoms: N_9  and  C_10
REMARK    5  A    between atoms: N_23  and  S_26
REMARK    6  A    between atoms: S_26  and  C_29
REMARK    7  A    between atoms: C_34  and  C_35
REMARK                            x       y       z     vdW  Elec       q    Type
REMARK                         _______ _______ _______ _____ _____    ______ ____
ROOT
ATOM      1  C   UNL     1      -1.223   5.077   5.086  0.00  0.00    -0.004 C 
ATOM      2  C   UNL     1      -2.013   5.570   3.872  0.00  0.00    +0.017 C 
ENDROOT
BRANCH   2   3
ATOM      3  C   UNL     1      -1.299   5.163   2.609  0.00  0.00    +0.207 C 
ATOM      4  O   UNL     1      -0.920   6.009   1.827  0.00  0.00    -0.277 OA
ATOM      5  N   UNL     1      -1.081   3.859   2.348  0.00  0.00    -0.242 N 
ATOM      6  C   UNL     1      -0.442   3.495   1.219  0.00  0.00    +0.306 C 
ATOM      7  O   UNL     1      -0.063   4.343   0.435  0.00  0.00    -0.252 OA
ATOM      8  N   UNL     1      -0.225   2.191   0.958  0.00  0.00    -0.294 N 
ATOM      9  H   UNL     1      -1.425   3.091   3.058  0.00  0.00    +0.159 HD
ATOM     10  H   UNL     1      -0.568   1.423   1.667  0.00  0.00    +0.151 HD
BRANCH   8  11
ATOM     11  C   UNL     1       0.470   1.795  -0.270  0.00  0.00    +0.037 C 
ATOM     12  C   UNL     1       1.869   2.414  -0.287  0.00  0.00    +0.029 C 
ATOM     13  C   UNL     1       2.594   2.001  -1.569  0.00  0.00    -0.008 C 
ATOM     14  C   UNL     1       2.710   0.476  -1.621  0.00  0.00    +0.007 C 
ATOM     15  C   UNL     1       1.311  -0.143  -1.604  0.00  0.00    -0.008 C 
ATOM     16  C   UNL     1       0.586   0.270  -0.321  0.00  0.00    +0.029 C 
ATOM     17  C   UNL     1       0.521   0.350  -2.818  0.00  0.00    +0.007 C 
ATOM     18  C   UNL     1       0.405   1.874  -2.766  0.00  0.00    -0.008 C 
ATOM     19  C   UNL     1       1.804   2.493  -2.783  0.00  0.00    +0.007 C 
ATOM     20  C   UNL     1      -0.321   2.288  -1.484  0.00  0.00    +0.029 C 
ENDBRANCH   8  11
ENDBRANCH   2   3
BRANCH   2  21
ATOM     21  N   UNL     1      -2.124   7.034   3.921  0.00  0.00    +0.389 N 
ATOM     22  C   UNL     1      -0.797   7.663   3.924  0.00  0.00    -0.060 C 
ATOM     23  C   UNL     1      -0.955   9.182   3.793  0.00  0.00    +0.091 C 
ATOM     24  N   UNL     1      -1.867   9.649   4.848  0.00  0.00    -0.180 NA
ATOM     25  C   UNL     1      -3.164   8.973   4.997  0.00  0.00    +0.091 C 
ATOM     26  C   UNL     1      -2.919   7.463   5.080  0.00  0.00    -0.060 C 
ATOM     27  H   UNL     1      -2.650   7.366   3.014  0.00  0.00    -0.081 HD
BRANCH  24  28
ATOM     28  S   UNL     1      -1.444  10.904   5.843  0.00  0.00    +0.062 S 
ATOM     29  O   UNL     1      -0.354  11.569   5.217  0.00  0.00    -0.153 OA
ATOM     30  O   UNL     1      -2.649  11.574   6.186  0.00  0.00    -0.153 OA
BRANCH  28  31
ATOM     31  C   UNL     1      -0.817  10.201   7.331  0.00  0.00    +0.123 A 
ATOM     32  C   UNL     1      -1.515  10.347   8.512  0.00  0.00    +0.030 A 
ATOM     33  C   UNL     1      -1.026   9.791   9.681  0.00  0.00    +0.002 A 
ATOM     34  C   UNL     1       0.170   9.095   9.677  0.00  0.00    +0.001 A 
ATOM     35  C   UNL     1       0.881   8.946   8.504  0.00  0.00    +0.021 A 
ATOM     36  C   UNL     1       0.391   9.500   7.320  0.00  0.00    +0.078 A 
BRANCH  36  37
ATOM     37  C   UNL     1       1.123   9.350   6.098  0.00  0.00    +0.101 C 
ATOM     38  N   UNL     1       1.705   9.230   5.130  0.00  0.00    -0.191 NA
ENDBRANCH  36  37
ENDBRANCH  28  31
ENDBRANCH  24  28
ENDBRANCH   2  21
TORSDOF 6
