REMARK  Name = ZINC35785173
REMARK  5 active torsions:
REMARK  status: ('A' for Active; 'I' for Inactive)
REMARK    1  A    between atoms: C_3  and  C_6
REMARK    2  A    between atoms: C_9  and  C_24
REMARK    3  A    between atoms: C_12  and  C_14
REMARK    4  A    between atoms: C_14  and  N_15
REMARK    5  A    between atoms: C_18  and  C_21
REMARK                            x       y       z     vdW  Elec       q    Type
REMARK                         _______ _______ _______ _____ _____    ______ ____
ROOT
ATOM      1  C   UNL     1       3.599   0.625  -0.029  0.00  0.00    +0.172 C 
ATOM      2  C   UNL     1       4.148   0.302   1.374  0.00  0.00    +0.090 C 
ATOM      3  C   UNL     1       4.900  -0.996   1.181  0.00  0.00    +0.069 C 
ATOM      4  N   UNL     1       4.819  -1.361  -0.051  0.00  0.00    -0.181 NA
ATOM      5  N   UNL     1       4.083  -0.490  -0.858  0.00  0.00    -0.184 N 
ATOM      6  C   UNL     1       3.852  -0.645  -2.177  0.00  0.00    +0.219 C 
ATOM      7  O   UNL     1       3.195   0.179  -2.778  0.00  0.00    -0.276 OA
ENDROOT
BRANCH   3   8
ATOM      8  C   UNL     1       5.617  -1.729   2.240  0.00  0.00    -0.002 A 
ATOM      9  C   UNL     1       5.633  -1.236   3.548  0.00  0.00    +0.012 A 
ATOM     10  C   UNL     1       6.304  -1.927   4.534  0.00  0.00    +0.039 A 
ATOM     11  C   UNL     1       6.964  -3.108   4.231  0.00  0.00    +0.123 A 
ATOM     12  C   UNL     1       6.952  -3.602   2.936  0.00  0.00    +0.039 A 
ATOM     13  C   UNL     1       6.279  -2.923   1.942  0.00  0.00    +0.012 A 
ATOM     14  F   UNL     1       7.621  -3.780   5.201  0.00  0.00    -0.205 F 
ENDBRANCH   3   8
BRANCH   1  17
ATOM     15  C   UNL     1      -0.016   1.341   0.009  0.00  0.00    +0.041 A 
ATOM     16  C   UNL     1       1.331   1.769  -0.001  0.00  0.00    +0.046 A 
ATOM     17  C   UNL     1       2.092   0.660  -0.014  0.00  0.00    +0.128 A 
ATOM     18  O   UNL     1       1.282  -0.411  -0.012  0.00  0.00    -0.466 OA
ATOM     19  C   UNL     1       0.002  -0.004   0.002  0.00  0.00    +0.195 A 
ENDBRANCH   1  17
BRANCH   6  20
ATOM     20  C   UNL     1       4.410  -1.840  -2.905  0.00  0.00    +0.021 C 
BRANCH  20  21
ATOM     21  N   UNL     1       4.021  -1.777  -4.320  0.00  0.00    +0.385 N 
ATOM     22  C   UNL     1       2.562  -1.892  -4.431  0.00  0.00    -0.077 C 
ATOM     23  C   UNL     1       2.145  -1.746  -5.896  0.00  0.00    -0.006 C 
ATOM     24  C   UNL     1       2.809  -2.850  -6.723  0.00  0.00    +0.071 C 
ATOM     25  C   UNL     1       4.327  -2.768  -6.541  0.00  0.00    -0.006 C 
ATOM     26  C   UNL     1       4.664  -2.876  -5.052  0.00  0.00    -0.077 C 
ATOM     27  H   UNL     1       4.318  -0.896  -4.711  0.00  0.00    -0.081 HD
BRANCH  24  28
ATOM     28  C   UNL     1       2.465  -2.666  -8.178  0.00  0.00    +0.213 C 
ATOM     29  O   UNL     1       1.758  -1.742  -8.522  0.00  0.00    -0.276 OA
ATOM     30  N   UNL     1       2.943  -3.528  -9.098  0.00  0.00    -0.329 N 
ATOM     31  H   UNL     1       3.508  -4.266  -8.823  0.00  0.00    +0.145 HD
ATOM     32  H   UNL     1       2.722  -3.409 -10.035  0.00  0.00    +0.145 HD
ENDBRANCH  24  28
ENDBRANCH  20  21
ENDBRANCH   6  20
TORSDOF 5
