REMARK  Name = ZINC11815462
REMARK  7 active torsions:
REMARK  status: ('A' for Active; 'I' for Inactive)
REMARK    1  A    between atoms: C_1  and  C_2
REMARK    2  A    between atoms: C_3  and  C_9
REMARK    3  A    between atoms: N_5  and  C_7
REMARK    4  A    between atoms: C_9  and  N_55
REMARK    5  A    between atoms: C_22  and  C_24
REMARK    6  A    between atoms: C_29  and  O_30
REMARK    7  A    between atoms: O_30  and  C_31
REMARK                            x       y       z     vdW  Elec       q    Type
REMARK                         _______ _______ _______ _____ _____    ______ ____
ROOT
ATOM      1  C   UNL     1      -0.640   3.036  -1.284  0.00  0.00    -0.072 C 
ATOM      2  C   UNL     1      -1.036   3.474  -2.700  0.00  0.00    +0.019 C 
ATOM      3  C   UNL     1      -2.331   2.787  -3.055  0.00  0.00    -0.022 A 
ATOM      4  C   UNL     1      -3.264   3.083  -4.119  0.00  0.00    +0.003 A 
ATOM      5  C   UNL     1      -3.282   4.052  -5.126  0.00  0.00    +0.010 A 
ATOM      6  C   UNL     1      -4.353   4.037  -5.985  0.00  0.00    +0.001 A 
ATOM      7  C   UNL     1      -5.376   3.109  -5.870  0.00  0.00    +0.002 A 
ATOM      8  C   UNL     1      -5.384   2.138  -4.883  0.00  0.00    +0.026 A 
ATOM      9  C   UNL     1      -4.309   2.130  -3.997  0.00  0.00    +0.047 A 
ATOM     10  N   UNL     1      -4.008   1.329  -2.932  0.00  0.00    -0.359 N 
ATOM     11  H   UNL     1      -4.552   0.590  -2.618  0.00  0.00    +0.166 HD
ATOM     12  C   UNL     1      -2.823   1.726  -2.375  0.00  0.00    +0.011 A 
ATOM     13  C   UNL     1      -2.121   1.113  -1.186  0.00  0.00    +0.014 C 
ATOM     14  N   UNL     1      -0.708   1.560  -1.206  0.00  0.00    +0.391 N 
ATOM     15  H   UNL     1      -0.245   1.162  -2.032  0.00  0.00    -0.080 HD
ENDROOT
BRANCH  13  16
ATOM     16  C   UNL     1      -2.160  -0.390  -1.295  0.00  0.00    -0.014 A 
ATOM     17  C   UNL     1      -1.063  -1.077  -1.778  0.00  0.00    +0.006 A 
ATOM     18  C   UNL     1      -1.098  -2.455  -1.878  0.00  0.00    +0.000 A 
ATOM     19  C   UNL     1      -2.230  -3.150  -1.494  0.00  0.00    +0.004 A 
ATOM     20  C   UNL     1      -3.330  -2.468  -1.010  0.00  0.00    +0.046 A 
ATOM     21  C   UNL     1      -3.296  -1.085  -0.905  0.00  0.00    +0.122 A 
BRANCH  21  22
ATOM     22  O   UNL     1      -4.374  -0.412  -0.424  0.00  0.00    -0.495 OA
ATOM     23  C   UNL     1      -5.508  -1.192  -0.041  0.00  0.00    +0.277 C 
ENDBRANCH  21  22
ENDBRANCH  13  16
BRANCH  14  24
ATOM     24  C   UNL     1      -0.013   1.086   0.008  0.00  0.00    -0.037 C 
BRANCH  24  27
ATOM     25  C   UNL     1       0.575   3.794   1.545  0.00  0.00    +0.068 C 
ATOM     26  C   UNL     1      -0.459   2.767   1.927  0.00  0.00    +0.063 A 
ATOM     27  C   UNL     1      -0.718   1.572   1.248  0.00  0.00    -0.005 A 
ATOM     28  C   UNL     1      -1.711   0.926   1.905  0.00  0.00    +0.128 A 
ATOM     29  N   UNL     1      -2.071   1.689   2.959  0.00  0.00    -0.256 N 
ATOM     30  N   UNL     1      -1.273   2.841   2.949  0.00  0.00    -0.175 NA
ATOM     31  C   UNL     1      -3.110   1.369   3.940  0.00  0.00    +0.174 C 
ATOM     32 CL   UNL     1      -2.397  -0.608   1.471  0.00  0.00    -0.062 Cl
ENDBRANCH  24  27
ENDBRANCH  14  24
TORSDOF 4
