REMARK  Name = ZINC03013618
REMARK  5 active torsions:
REMARK  status: ('A' for Active; 'I' for Inactive)
REMARK    1  A    between atoms: C_8  and  C_10
REMARK    2  A    between atoms: C_13  and  N_16
REMARK    3  A    between atoms: C_20  and  N_48
REMARK    4  A    between atoms: C_24  and  C_25
REMARK    5  A    between atoms: C_24  and  N_48
REMARK                            x       y       z     vdW  Elec       q    Type
REMARK                         _______ _______ _______ _____ _____    ______ ____
ROOT
ATOM      1  N   UNL     1       2.810   6.787   2.477  0.00  0.00    -0.212 N 
ATOM      2  C   UNL     1       1.824   6.779   3.383  0.00  0.00    +0.225 C 
ATOM      3  O   UNL     1       1.870   7.305   4.474  0.00  0.00    -0.275 OA
ATOM      4  C   UNL     1       0.645   6.010   2.829  0.00  0.00    +0.090 C 
ATOM      5  C   UNL     1       1.124   5.569   1.431  0.00  0.00    +0.026 C 
ATOM      6  C   UNL     1       2.525   6.136   1.342  0.00  0.00    +0.213 C 
ATOM      7  O   UNL     1       3.270   6.019   0.393  0.00  0.00    -0.277 OA
ENDROOT
BRANCH   1  11
ATOM      8  C   UNL     1       6.466   8.681   3.135  0.00  0.00    +0.037 A 
ATOM      9  C   UNL     1       5.299   9.437   3.011  0.00  0.00    +0.015 A 
ATOM     10  C   UNL     1       4.093   8.808   2.793  0.00  0.00    +0.025 A 
ATOM     11  C   UNL     1       4.037   7.422   2.697  0.00  0.00    +0.044 A 
ATOM     12  C   UNL     1       5.196   6.666   2.826  0.00  0.00    +0.025 A 
ATOM     13  C   UNL     1       6.407   7.289   3.039  0.00  0.00    +0.015 A 
BRANCH   8  21
ATOM     14  C   UNL     1      11.344  11.999   4.064  0.00  0.00    +0.002 A 
ATOM     15  C   UNL     1      11.986  10.769   4.081  0.00  0.00    +0.004 A 
ATOM     16  C   UNL     1      11.269   9.603   3.902  0.00  0.00    +0.048 A 
ATOM     17  C   UNL     1       9.899   9.658   3.704  0.00  0.00    +0.156 A 
ATOM     18  C   UNL     1       9.245  10.901   3.685  0.00  0.00    +0.110 A 
ATOM     19  C   UNL     1       9.984  12.073   3.867  0.00  0.00    +0.031 A 
ATOM     20  N   UNL     1       7.929  10.646   3.469  0.00  0.00    -0.209 NA
ATOM     21  C   UNL     1       7.761   9.352   3.369  0.00  0.00    +0.228 A 
ATOM     22  O   UNL     1       8.944   8.722   3.504  0.00  0.00    -0.435 OA
ENDBRANCH   8  21
ENDBRANCH   1  11
BRANCH   5  23
ATOM     23  N   UNL     1       1.153   4.097   1.341  0.00  0.00    +0.390 N 
ATOM     24  H   UNL     1       0.335   3.712   1.828  0.00  0.00    -0.084 HD
ATOM     25  H   UNL     1       2.011   3.747   1.784  0.00  0.00    -0.084 HD
BRANCH  23  26
ATOM     26  C   UNL     1       1.124   3.670  -0.070  0.00  0.00    -0.046 C 
BRANCH  26  27
ATOM     27  C   UNL     1       1.154   2.164  -0.131  0.00  0.00    -0.064 A 
ATOM     28  C   UNL     1      -0.029   1.449  -0.127  0.00  0.00    +0.003 A 
ATOM     29  C   UNL     1      -0.002   0.068  -0.184  0.00  0.00    +0.020 A 
ATOM     30  C   UNL     1       1.209  -0.598  -0.244  0.00  0.00    +0.041 A 
ATOM     31  C   UNL     1       2.393   0.119  -0.248  0.00  0.00    +0.020 A 
ATOM     32  C   UNL     1       2.365   1.499  -0.192  0.00  0.00    +0.003 A 
ATOM     33 CL   UNL     1       1.244  -2.332  -0.315  0.00  0.00    -0.084 Cl
ENDBRANCH  26  27
ENDBRANCH  23  26
ENDBRANCH   5  23
TORSDOF 5
