REMARK  Name = ZINC60362214
REMARK  2 active torsions:
REMARK  status: ('A' for Active; 'I' for Inactive)
REMARK    1  A    between atoms: C_3  and  C_6
REMARK    2  A    between atoms: C_12  and  C_14
REMARK                            x       y       z     vdW  Elec       q    Type
REMARK                         _______ _______ _______ _____ _____    ______ ____
ROOT
ATOM      1  C   UNL     1       6.502   1.830  -1.271  0.00  0.00    +0.239 C 
ATOM      2  O   UNL     1       5.744   1.868  -2.216  0.00  0.00    -0.273 OA
ATOM      3  N   UNL     1       7.664   2.513  -1.312  0.00  0.00    -0.263 N 
ATOM      4  C   UNL     1       7.990   3.256  -2.431  0.00  0.00    +0.165 A 
ATOM      5  N   UNL     1       9.079   3.977  -2.645  0.00  0.00    -0.229 NA
ATOM      6  C   UNL     1       9.270   4.639  -3.760  0.00  0.00    +0.061 A 
ATOM      7  C   UNL     1       8.230   4.514  -4.690  0.00  0.00    +0.079 A 
ATOM      8  S   UNL     1       7.098   3.452  -3.849  0.00  0.00    -0.049 S 
ATOM      9  C   UNL     1       8.195   5.112  -5.946  0.00  0.00    +0.172 C 
ATOM     10  O   UNL     1       7.244   4.972  -6.688  0.00  0.00    -0.291 OA
ATOM     11  C   UNL     1       9.398   5.947  -6.348  0.00  0.00    +0.080 C 
ATOM     12  C   UNL     1      10.019   6.576  -5.101  0.00  0.00    +0.014 C 
ATOM     13  C   UNL     1      10.474   5.500  -4.110  0.00  0.00    +0.057 C 
ATOM     14  H   UNL     1       8.271   2.482  -0.556  0.00  0.00    +0.157 HD
ENDROOT
BRANCH   1  21
ATOM     15  C   UNL     1       3.725   1.670  -0.025  0.00  0.00    +0.254 C 
ATOM     16  O   UNL     1       4.008   2.853  -0.021  0.00  0.00    -0.269 OA
ATOM     17  N   UNL     1       4.703   0.743  -0.039  0.00  0.00    -0.286 N 
ATOM     18  C   UNL     1       4.502  -0.718  -0.051  0.00  0.00    +0.109 C 
ATOM     19  C   UNL     1       5.798  -1.291  -0.677  0.00  0.00    +0.021 C 
ATOM     20  C   UNL     1       6.875  -0.340  -0.090  0.00  0.00    +0.033 C 
ATOM     21  C   UNL     1       6.147   1.020  -0.051  0.00  0.00    +0.163 C 
BRANCH  15  24
ATOM     22  C   UNL     1      -0.016   1.352   0.009  0.00  0.00    +0.008 A 
ATOM     23  C   UNL     1       1.175   2.036   0.002  0.00  0.00    +0.021 A 
ATOM     24  C   UNL     1       2.320   1.253  -0.013  0.00  0.00    +0.074 A 
ATOM     25  S   UNL     1       1.636  -0.394  -0.016  0.00  0.00    -0.092 S 
ATOM     26  C   UNL     1       0.002  -0.004   0.002  0.00  0.00    +0.046 A 
ENDBRANCH  15  24
ENDBRANCH   1  21
TORSDOF 2
