REMARK  Name = ZINC13096790
REMARK  8 active torsions:
REMARK  status: ('A' for Active; 'I' for Inactive)
REMARK    1  A    between atoms: C_1  and  C_2
REMARK    2  A    between atoms: C_7  and  C_9
REMARK    3  A    between atoms: C_7  and  C_10
REMARK    4  A    between atoms: N_13  and  C_17
REMARK    5  A    between atoms: C_17  and  C_18
REMARK    6  A    between atoms: N_20  and  C_21
REMARK    7  A    between atoms: C_25  and  S_27
REMARK    8  A    between atoms: S_27  and  N_30
REMARK                            x       y       z     vdW  Elec       q    Type
REMARK                         _______ _______ _______ _____ _____    ______ ____
ROOT
ATOM      1  C   UNL     1      -1.430  -5.487  -2.763  0.00  0.00    +0.235 C 
ATOM      2  O   UNL     1      -1.049  -5.762  -1.645  0.00  0.00    -0.274 OA
ATOM      3  N   UNL     1      -1.311  -6.390  -3.757  0.00  0.00    -0.284 N 
ATOM      4  H   UNL     1      -1.677  -6.197  -4.634  0.00  0.00    +0.155 HD
ENDROOT
BRANCH   3   5
ATOM      5  C   UNL     1      -0.660  -7.607  -3.522  0.00  0.00    +0.035 A 
ATOM      6  C   UNL     1      -0.777  -8.232  -2.287  0.00  0.00    +0.023 A 
ATOM      7  C   UNL     1      -0.133  -9.432  -2.059  0.00  0.00    +0.004 A 
ATOM      8  C   UNL     1       0.628 -10.011  -3.058  0.00  0.00    +0.028 A 
ATOM      9  C   UNL     1       0.747  -9.391  -4.288  0.00  0.00    +0.107 A 
ATOM     10  C   UNL     1       0.100  -8.194  -4.525  0.00  0.00    +0.051 A 
BRANCH   9  11
ATOM     11  S   UNL     1       1.718 -10.133  -5.557  0.00  0.00    +0.061 S 
ATOM     12  O   UNL     1       2.114  -9.084  -6.431  0.00  0.00    -0.153 OA
ATOM     13  O   UNL     1       2.658 -10.978  -4.908  0.00  0.00    -0.153 OA
BRANCH  11  14
ATOM     14  N   UNL     1       0.715 -11.121  -6.428  0.00  0.00    -0.177 NA
ATOM     15  C   UNL     1       0.532 -12.528  -6.044  0.00  0.00    +0.109 C 
ATOM     16  C   UNL     1      -0.966 -12.806  -5.887  0.00  0.00    +0.017 C 
ATOM     17  C   UNL     1      -1.692 -12.406  -7.173  0.00  0.00    +0.003 C 
ATOM     18  C   UNL     1      -1.503 -10.908  -7.424  0.00  0.00    +0.017 C 
ATOM     19  C   UNL     1      -0.015 -10.607  -7.594  0.00  0.00    +0.109 C 
ENDBRANCH  11  14
ENDBRANCH   9  11
ENDBRANCH   3   5
BRANCH   1  20
ATOM     20  C   UNL     1      -2.038  -4.136  -3.042  0.00  0.00    +0.214 C 
BRANCH  20  32
ATOM     21  C   UNL     1      -0.035   1.537  -0.005  0.00  0.00    +0.007 C 
ATOM     22  C   UNL     1      -0.007   0.006  -0.011  0.00  0.00    -0.011 C 
ATOM     23  C   UNL     1      -1.442  -0.525   0.016  0.00  0.00    +0.038 C 
ATOM     24  C   UNL     1      -1.427  -2.047  -0.040  0.00  0.00    +0.113 C 
ATOM     25  C   UNL     1      -0.566  -2.668   1.042  0.00  0.00    +0.041 C 
ATOM     26  C   UNL     1       0.789  -2.016   1.255  0.00  0.00    -0.032 C 
ATOM     27  C   UNL     1       0.718  -0.493   1.236  0.00  0.00    +0.009 C 
ATOM     28  C   UNL     1       1.312  -2.445   2.643  0.00  0.00    +0.011 C 
ATOM     29  C   UNL     1       1.798  -2.508   0.214  0.00  0.00    +0.011 C 
ATOM     30  C   UNL     1      -1.050  -2.531  -1.418  0.00  0.00    +0.247 C 
ATOM     31  O   UNL     1      -0.068  -2.246  -2.071  0.00  0.00    -0.273 OA
ATOM     32  N   UNL     1      -2.054  -3.345  -1.810  0.00  0.00    -0.215 N 
ATOM     33  C   UNL     1      -3.062  -3.336  -0.931  0.00  0.00    +0.310 C 
ATOM     34  O   UNL     1      -4.085  -3.978  -1.070  0.00  0.00    -0.252 OA
ATOM     35  N   UNL     1      -2.814  -2.540   0.123  0.00  0.00    -0.285 N 
ATOM     36  H   UNL     1      -3.413  -2.322   0.851  0.00  0.00    +0.151 HD
ENDBRANCH  20  32
ENDBRANCH   1  20
TORSDOF 5
