REMARK  Name = ZINC39666671
REMARK  7 active torsions:
REMARK  status: ('A' for Active; 'I' for Inactive)
REMARK    1  A    between atoms: C_1  and  C_2
REMARK    2  A    between atoms: C_2  and  C_4
REMARK    3  A    between atoms: C_2  and  O_30
REMARK    4  A    between atoms: C_4  and  N_5
REMARK    5  A    between atoms: C_6  and  C_8
REMARK    6  A    between atoms: C_19  and  C_21
REMARK    7  A    between atoms: O_30  and  C_31
REMARK                            x       y       z     vdW  Elec       q    Type
REMARK                         _______ _______ _______ _____ _____    ______ ____
ROOT
ATOM      1  C   UNL     1       1.667  -4.300  -2.660  0.00  0.00    +0.100 C 
ATOM      2  C   UNL     1       0.301  -4.941  -2.994  0.00  0.00    +0.121 C 
ATOM      3  N   UNL     1       0.296  -5.064  -4.470  0.00  0.00    -0.296 N 
ATOM      4  C   UNL     1       1.681  -5.470  -4.811  0.00  0.00    +0.115 C 
ATOM      5  C   UNL     1       2.571  -4.652  -3.853  0.00  0.00    -0.004 C 
ATOM      6  C   UNL     1       3.056  -3.381  -4.542  0.00  0.00    -0.010 C 
ATOM      7  C   UNL     1       3.998  -3.755  -5.690  0.00  0.00    -0.082 C 
ATOM      8  N   UNL     1       5.138  -4.515  -5.163  0.00  0.00    +0.379 N 
ATOM      9  C   UNL     1       4.671  -5.781  -4.584  0.00  0.00    -0.082 C 
ATOM     10  C   UNL     1       3.757  -5.492  -3.389  0.00  0.00    -0.010 C 
ATOM     11  C   UNL     1      -0.734  -4.855  -5.313  0.00  0.00    +0.252 C 
ATOM     12  O   UNL     1      -0.579  -4.999  -6.511  0.00  0.00    -0.270 OA
ATOM     13  H   UNL     1       5.787  -4.708  -5.911  0.00  0.00    -0.086 HD
ATOM     14  H   UNL     1       5.601  -3.972  -4.450  0.00  0.00    -0.086 HD
ENDROOT
BRANCH  11  15
ATOM     15  C   UNL     1      -2.050  -4.451  -4.783  0.00  0.00    +0.108 A 
ATOM     16  C   UNL     1      -2.363  -3.096  -4.635  0.00  0.00    +0.138 A 
ATOM     17  C   UNL     1      -3.599  -2.726  -4.138  0.00  0.00    +0.041 A 
ATOM     18  C   UNL     1      -4.525  -3.691  -3.787  0.00  0.00    +0.026 A 
ATOM     19  C   UNL     1      -4.225  -5.034  -3.930  0.00  0.00    +0.077 A 
ATOM     20  C   UNL     1      -2.995  -5.421  -4.432  0.00  0.00    +0.156 A 
ATOM     21  F   UNL     1      -2.704  -6.733  -4.577  0.00  0.00    -0.203 F 
ATOM     22 CL   UNL     1      -5.396  -6.236  -3.486  0.00  0.00    -0.081 Cl
ATOM     23  F   UNL     1      -1.460  -2.151  -4.975  0.00  0.00    -0.205 F 
ENDBRANCH  11  15
BRANCH   1  25
ATOM     24  N   UNL     1       2.364  -2.118  -1.727  0.00  0.00    -0.312 N 
ATOM     25  C   UNL     1       1.528  -2.805  -2.531  0.00  0.00    +0.218 C 
ATOM     26  O   UNL     1       0.665  -2.221  -3.150  0.00  0.00    -0.275 OA
ATOM     27  H   UNL     1       3.054  -2.585  -1.232  0.00  0.00    +0.149 HD
BRANCH  24  28
ATOM     28  C   UNL     1       2.228  -0.664  -1.601  0.00  0.00    +0.148 C 
BRANCH  28  30
ATOM     29  C   UNL     1       3.071   1.362  -0.407  0.00  0.00    +0.053 C 
ATOM     30  C   UNL     1       3.290  -0.135  -0.635  0.00  0.00    +0.187 C 
BRANCH  30  31
ATOM     31  O   UNL     1       4.589  -0.347  -1.193  0.00  0.00    -0.486 OA
BRANCH  31  32
ATOM     32  C   UNL     1       5.630  -0.421  -0.322  0.00  0.00    +0.139 A 
ATOM     33  C   UNL     1       5.424  -0.180   1.029  0.00  0.00    +0.047 A 
ATOM     34  C   UNL     1       6.483  -0.256   1.912  0.00  0.00    +0.004 A 
ATOM     35  C   UNL     1       7.748  -0.572   1.452  0.00  0.00    +0.002 A 
ATOM     36  C   UNL     1       7.957  -0.812   0.106  0.00  0.00    +0.023 A 
ATOM     37  C   UNL     1       6.899  -0.744  -0.781  0.00  0.00    +0.083 A 
ATOM     38 CL   UNL     1       7.160  -1.052  -2.469  0.00  0.00    -0.080 Cl
ENDBRANCH  31  32
ENDBRANCH  30  31
ENDBRANCH  28  30
ENDBRANCH  24  28
ENDBRANCH   1  25
TORSDOF 6
