REMARK  Name = ZINC64481661
REMARK  6 active torsions:
REMARK  status: ('A' for Active; 'I' for Inactive)
REMARK    1  A    between atoms: C_6  and  C_7
REMARK    2  A    between atoms: C_7  and  S_8
REMARK    3  A    between atoms: S_8  and  C_9
REMARK    4  A    between atoms: C_15  and  C_23
REMARK    5  A    between atoms: C_26  and  O_30
REMARK    6  A    between atoms: C_27  and  O_29
REMARK                            x       y       z     vdW  Elec       q    Type
REMARK                         _______ _______ _______ _____ _____    ______ ____
ROOT
ATOM      1  C   UNL     1      -3.335  -1.973  -1.518  0.00  0.00    +0.182 C 
ATOM      2  N   UNL     1      -3.750  -2.228  -0.289  0.00  0.00    -0.154 NA
ATOM      3  C   UNL     1      -4.909  -2.843  -0.045  0.00  0.00    +0.249 C 
ATOM      4  O   UNL     1      -5.270  -3.097   1.088  0.00  0.00    -0.273 OA
ATOM      5  C   UNL     1      -5.752  -3.209  -1.249  0.00  0.00    +0.148 C 
ATOM      6  C   UNL     1      -6.049  -4.709  -1.188  0.00  0.00    +0.047 C 
ATOM      7  C   UNL     1      -7.040  -5.057  -2.301  0.00  0.00    +0.105 C 
ATOM      8  C   UNL     1      -6.595  -4.484  -3.616  0.00  0.00    +0.219 C 
ATOM      9  O   UNL     1      -7.060  -4.946  -4.636  0.00  0.00    -0.275 OA
ATOM     10  N   UNL     1      -5.705  -3.483  -3.713  0.00  0.00    -0.273 N 
ATOM     11  C   UNL     1      -5.116  -2.958  -2.603  0.00  0.00    +0.117 C 
ATOM     12  N   UNL     1      -3.970  -2.339  -2.637  0.00  0.00    -0.212 NA
ATOM     13  H   UNL     1      -5.487  -3.117  -4.584  0.00  0.00    +0.156 HD
ENDROOT
BRANCH   6  14
ATOM     14  C   UNL     1      -6.647  -5.052   0.152  0.00  0.00    -0.039 A 
ATOM     15  C   UNL     1      -7.835  -4.466   0.547  0.00  0.00    +0.008 A 
ATOM     16  C   UNL     1      -8.388  -4.778   1.775  0.00  0.00    +0.049 A 
ATOM     17  C   UNL     1      -7.752  -5.680   2.613  0.00  0.00    +0.158 A 
ATOM     18  C   UNL     1      -6.556  -6.270   2.215  0.00  0.00    +0.158 A 
ATOM     19  C   UNL     1      -6.010  -5.957   0.981  0.00  0.00    +0.053 A 
BRANCH  18  20
ATOM     20  O   UNL     1      -5.927  -7.155   3.034  0.00  0.00    -0.503 OA
ATOM     21  H   UNL     1      -6.196  -8.075   2.899  0.00  0.00    +0.292 HD
ENDBRANCH  18  20
BRANCH  17  22
ATOM     22  O   UNL     1      -8.294  -5.987   3.822  0.00  0.00    -0.503 OA
ATOM     23  H   UNL     1      -8.902  -6.739   3.800  0.00  0.00    +0.292 HD
ENDBRANCH  17  22
ENDBRANCH   6  14
BRANCH   1  24
ATOM     24  S   UNL     1      -1.829  -1.075  -1.696  0.00  0.00    -0.084 S 
BRANCH  24  25
ATOM     25  C   UNL     1      -1.293  -0.775   0.011  0.00  0.00    +0.112 C 
BRANCH  25  31
ATOM     26  C   UNL     1      -0.017   1.378   0.010  0.00  0.00    +0.006 A 
ATOM     27  C   UNL     1       1.171   2.086   0.002  0.00  0.00    +0.020 A 
ATOM     28  C   UNL     1       2.378   1.410  -0.013  0.00  0.00    +0.041 A 
ATOM     29  C   UNL     1       2.396   0.027  -0.021  0.00  0.00    +0.020 A 
ATOM     30  C   UNL     1       1.208  -0.679  -0.013  0.00  0.00    +0.006 A 
ATOM     31  C   UNL     1       0.002  -0.004   0.002  0.00  0.00    -0.037 A 
ATOM     32 CL   UNL     1       3.870   2.298  -0.023  0.00  0.00    -0.084 Cl
ENDBRANCH  25  31
ENDBRANCH  24  25
ENDBRANCH   1  24
TORSDOF 6
