REMARK  Name = ZINC67311137
REMARK  15 active torsions:
REMARK  status: ('A' for Active; 'I' for Inactive)
REMARK    1  A    between atoms: C_1  and  C_2
REMARK    2  A    between atoms: C_2  and  N_3
REMARK    3  A    between atoms: N_3  and  C_4
REMARK    4  A    between atoms: N_3  and  C_6
REMARK    5  A    between atoms: C_4  and  C_5
REMARK    6  A    between atoms: C_6  and  C_7
REMARK    7  A    between atoms: C_7  and  C_8
REMARK    8  A    between atoms: C_8  and  N_9
REMARK    9  A    between atoms: N_9  and  C_10
REMARK   10  A    between atoms: C_11  and  C_13
REMARK   11  A    between atoms: C_13  and  C_14
REMARK   12  A    between atoms: C_14  and  C_15
REMARK   13  A    between atoms: C_15  and  N_16
REMARK   14  A    between atoms: N_23  and  C_28
REMARK   15  A    between atoms: N_26  and  C_27
REMARK                            x       y       z     vdW  Elec       q    Type
REMARK                         _______ _______ _______ _____ _____    ______ ____
ROOT
ATOM      1  C   UNL     1       2.486  -4.617  -5.156  0.00  0.00    +0.031 C 
ENDROOT
BRANCH   1   2
ATOM      2  C   UNL     1       3.402  -4.322  -3.966  0.00  0.00    +0.098 C 
BRANCH   2   5
ATOM      3  N   UNL     1       3.163  -3.820  -1.556  0.00  0.00    -0.305 N 
ATOM      4  C   UNL     1       4.623  -3.737  -1.477  0.00  0.00    +0.132 C 
ATOM      5  C   UNL     1       2.567  -4.098  -2.733  0.00  0.00    +0.215 C 
ATOM      6  O   UNL     1       1.357  -4.166  -2.798  0.00  0.00    -0.276 OA
BRANCH   3   7
ATOM      7  C   UNL     1       2.351  -3.601  -0.357  0.00  0.00    +0.105 C 
BRANCH   7   8
ATOM      8  C   UNL     1       2.004  -2.115  -0.240  0.00  0.00    +0.000 C 
BRANCH   8   9
ATOM      9  C   UNL     1       1.156  -1.887   1.013  0.00  0.00    -0.077 C 
BRANCH   9  10
ATOM     10  N   UNL     1       0.823  -0.461   1.126  0.00  0.00    +0.379 N 
ATOM     11  H   UNL     1       1.671   0.085   1.109  0.00  0.00    -0.082 HD
BRANCH  10  13
ATOM     12  C   UNL     1      -0.264   1.445   0.037  0.00  0.00    -0.017 C 
ATOM     13  C   UNL     1      -0.034  -0.067  -0.001  0.00  0.00    -0.082 C 
ENDBRANCH  10  13
BRANCH  10  14
ATOM     14  C   UNL     1       0.111  -0.222   2.389  0.00  0.00    -0.082 C 
ATOM     15  C   UNL     1       1.053  -0.495   3.563  0.00  0.00    -0.017 C 
ENDBRANCH  10  14
ENDBRANCH   9  10
ENDBRANCH   8   9
ENDBRANCH   7   8
ENDBRANCH   3   7
ENDBRANCH   2   5
ENDBRANCH   1   2
BRANCH   1  16
ATOM     16  C   UNL     1       3.334  -4.846  -6.409  0.00  0.00    +0.124 C 
BRANCH  16  17
ATOM     17  N   UNL     1       2.457  -5.128  -7.547  0.00  0.00    -0.325 N 
ATOM     18  C   UNL     1       2.096  -6.345  -7.998  0.00  0.00    +0.202 A 
ATOM     19  N   UNL     1       1.304  -6.216  -9.032  0.00  0.00    -0.218 NA
ATOM     20  C   UNL     1       1.116  -4.921  -9.299  0.00  0.00    +0.168 A 
ATOM     21  C   UNL     1       1.839  -4.198  -8.359  0.00  0.00    +0.151 A 
ATOM     22  C   UNL     1       1.812  -2.787  -8.406  0.00  0.00    +0.282 A 
ATOM     23  O   UNL     1       2.440  -2.131  -7.595  0.00  0.00    -0.265 OA
ATOM     24  N   UNL     1       1.081  -2.174  -9.361  0.00  0.00    -0.262 N 
ATOM     25  C   UNL     1       0.384  -2.886 -10.262  0.00  0.00    +0.333 A 
ATOM     26  O   UNL     1      -0.263  -2.300 -11.109  0.00  0.00    -0.246 OA
ATOM     27  N   UNL     1       0.389  -4.233 -10.257  0.00  0.00    -0.280 N 
ATOM     28  C   UNL     1      -0.387  -4.972 -11.256  0.00  0.00    +0.155 C 
ATOM     29  C   UNL     1       1.048  -0.711  -9.415  0.00  0.00    +0.157 C 
ENDBRANCH  16  17
ENDBRANCH   1  16
TORSDOF 10
