REMARK  Name = ZINC12809345
REMARK  8 active torsions:
REMARK  status: ('A' for Active; 'I' for Inactive)
REMARK    1  A    between atoms: C_1  and  C_2
REMARK    2  A    between atoms: C_3  and  N_9
REMARK    3  A    between atoms: C_13  and  S_15
REMARK    4  A    between atoms: S_15  and  C_16
REMARK    5  A    between atoms: C_16  and  C_18
REMARK    6  A    between atoms: C_16  and  C_21
REMARK    7  A    between atoms: C_18  and  C_19
REMARK    8  A    between atoms: C_18  and  C_20
REMARK                            x       y       z     vdW  Elec       q    Type
REMARK                         _______ _______ _______ _____ _____    ______ ____
ROOT
ATOM      1  N   UNL     1       1.320   2.512   2.293  0.00  0.00    -0.292 N 
ATOM      2  C   UNL     1       2.068   2.668   3.455  0.00  0.00    +0.187 A 
ATOM      3  N   UNL     1       1.659   2.904   4.687  0.00  0.00    -0.125 NA
ATOM      4  N   UNL     1       2.579   3.021   5.703  0.00  0.00    -0.133 NA
ATOM      5  C   UNL     1       3.867   2.907   5.438  0.00  0.00    +0.161 A 
ATOM      6  S   UNL     1       3.839   2.611   3.677  0.00  0.00    -0.024 S 
ATOM      7  H   UNL     1       1.759   2.273   1.462  0.00  0.00    +0.154 HD
ENDROOT
BRANCH   1  10
ATOM      8  C   UNL     1      -0.095   2.465  -0.175  0.00  0.00    +0.047 C 
ATOM      9  C   UNL     1      -0.795   2.683   1.142  0.00  0.00    -0.011 A 
ATOM     10  C   UNL     1      -0.065   2.699   2.324  0.00  0.00    +0.037 A 
ATOM     11  C   UNL     1      -0.714   2.901   3.535  0.00  0.00    +0.023 A 
ATOM     12  C   UNL     1      -2.082   3.086   3.562  0.00  0.00    +0.003 A 
ATOM     13  C   UNL     1      -2.807   3.069   2.385  0.00  0.00    +0.020 A 
ATOM     14  C   UNL     1      -2.163   2.874   1.175  0.00  0.00    +0.046 A 
ATOM     15 CL   UNL     1      -3.076   2.862  -0.302  0.00  0.00    -0.083 Cl
ENDBRANCH   1  10
BRANCH   5  16
ATOM     16  S   UNL     1       5.245   3.018   6.530  0.00  0.00    -0.084 S 
BRANCH  16  17
ATOM     17  C   UNL     1       4.492   3.176   8.173  0.00  0.00    +0.142 C 
BRANCH  17  18
ATOM     18  C   UNL     1       3.764   1.902   8.516  0.00  0.00    +0.234 C 
ATOM     19  O   UNL     1       4.097   0.856   8.002  0.00  0.00    -0.274 OA
ATOM     20  N   UNL     1       2.742   1.926   9.395  0.00  0.00    -0.239 N 
ATOM     21  C   UNL     1       2.091   0.786   9.702  0.00  0.00    +0.303 C 
ATOM     22  O   UNL     1       2.425  -0.262   9.187  0.00  0.00    -0.253 OA
ATOM     23  N   UNL     1       1.069   0.810  10.581  0.00  0.00    -0.313 N 
ATOM     24  H   UNL     1       2.475   2.763   9.806  0.00  0.00    +0.159 HD
ATOM     25  H   UNL     1       0.802   1.647  10.992  0.00  0.00    +0.146 HD
ATOM     26  H   UNL     1       0.601  -0.010  10.802  0.00  0.00    +0.146 HD
ENDBRANCH  17  18
BRANCH  17  27
ATOM     27  C   UNL     1       5.585   3.435   9.212  0.00  0.00    +0.005 C 
ATOM     28  C   UNL     1       6.321   4.731   8.866  0.00  0.00    +0.009 C 
ATOM     29  C   UNL     1       4.950   3.564  10.598  0.00  0.00    +0.009 C 
ENDBRANCH  17  27
ENDBRANCH  16  17
ENDBRANCH   5  16
TORSDOF 5
