REMARK  Name = ZINC14991529
REMARK  13 active torsions:
REMARK  status: ('A' for Active; 'I' for Inactive)
REMARK    1  A    between atoms: C_1  and  O_2
REMARK    2  A    between atoms: O_2  and  C_3
REMARK    3  A    between atoms: C_7  and  C_20
REMARK    4  A    between atoms: N_10  and  C_16
REMARK    5  A    between atoms: C_13  and  O_14
REMARK    6  A    between atoms: O_14  and  C_15
REMARK    7  A    between atoms: C_16  and  C_17
REMARK    8  A    between atoms: C_20  and  N_48
REMARK    9  A    between atoms: C_21  and  C_22
REMARK   10  A    between atoms: C_21  and  N_48
REMARK   11  A    between atoms: C_22  and  C_24
REMARK   12  A    between atoms: C_22  and  O_26
REMARK   13  A    between atoms: C_24  and  O_25
REMARK                            x       y       z     vdW  Elec       q    Type
REMARK                         _______ _______ _______ _____ _____    ______ ____
ROOT
ATOM      1  C   UNL     1      -1.180  -6.307  -2.372  0.00  0.00    +0.162 A 
ATOM      2  C   UNL     1      -1.234  -4.932  -2.433  0.00  0.00    +0.059 A 
ATOM      3  C   UNL     1      -0.258  -4.171  -1.778  0.00  0.00    +0.003 A 
ATOM      4  C   UNL     1      -0.286  -2.710  -1.822  0.00  0.00    +0.017 A 
ATOM      5  C   UNL     1       0.684  -2.022  -1.168  0.00  0.00    +0.001 A 
ATOM      6  C   UNL     1       1.696  -2.711  -0.469  0.00  0.00    +0.253 A 
ATOM      7  O   UNL     1       2.560  -2.073   0.107  0.00  0.00    -0.267 OA
ATOM      8  N   UNL     1       1.728  -4.054  -0.417  0.00  0.00    -0.303 N 
ATOM      9  C   UNL     1       0.771  -4.812  -1.060  0.00  0.00    +0.056 A 
ATOM     10  C   UNL     1       0.810  -6.200  -1.008  0.00  0.00    +0.076 A 
ATOM     11  C   UNL     1      -0.158  -6.942  -1.659  0.00  0.00    +0.163 A 
ENDROOT
BRANCH   1  13
ATOM     12  C   UNL     1      -3.142  -6.339  -3.717  0.00  0.00    +0.277 C 
ATOM     13  O   UNL     1      -2.126  -7.051  -3.007  0.00  0.00    -0.491 OA
ENDBRANCH   1  13
BRANCH  11  14
ATOM     14  O   UNL     1      -0.116  -8.299  -1.606  0.00  0.00    -0.491 OA
ATOM     15  C   UNL     1       0.953  -8.886  -0.861  0.00  0.00    +0.277 C 
ENDBRANCH  11  14
BRANCH   8  16
ATOM     16  C   UNL     1       2.797  -4.722   0.329  0.00  0.00    +0.172 C 
BRANCH  16  17
ATOM     17  C   UNL     1       3.968  -4.971  -0.587  0.00  0.00    +0.031 C 
ATOM     18  C   UNL     1       5.112  -4.367  -0.369  0.00  0.00    +0.027 C 
ATOM     19 CL   UNL     1       3.803  -6.056  -1.932  0.00  0.00    -0.087 Cl
ENDBRANCH  16  17
ENDBRANCH   8  16
BRANCH   5  20
ATOM     20  C   UNL     1       0.683  -0.515  -1.195  0.00  0.00    -0.041 C 
BRANCH  20  21
ATOM     21  N   UNL     1      -0.002  -0.010   0.010  0.00  0.00    +0.384 N 
ATOM     22  H   UNL     1       0.492  -0.344   0.845  0.00  0.00    -0.085 HD
ATOM     23  H   UNL     1      -0.968  -0.359   0.021  0.00  0.00    -0.085 HD
BRANCH  21  24
ATOM     24  C   UNL     1      -0.018   1.465   0.010  0.00  0.00    -0.048 C 
BRANCH  24  25
ATOM     25  C   UNL     1      -0.734   1.958   1.269  0.00  0.00    +0.123 C 
BRANCH  25  26
ATOM     26  O   UNL     1       0.020   1.584   2.424  0.00  0.00    -0.391 OA
ATOM     27  H   UNL     1       0.916   1.948   2.443  0.00  0.00    +0.210 HD
ENDBRANCH  25  26
BRANCH  25  28
ATOM     28  C   UNL     1      -0.865   3.482   1.217  0.00  0.00    +0.185 C 
BRANCH  28  29
ATOM     29  O   UNL     1      -1.635   3.932   2.334  0.00  0.00    -0.393 OA
ATOM     30  H   UNL     1      -1.759   4.890   2.365  0.00  0.00    +0.210 HD
ENDBRANCH  28  29
ENDBRANCH  25  28
ENDBRANCH  24  25
ENDBRANCH  21  24
ENDBRANCH  20  21
ENDBRANCH   5  20
TORSDOF 11
