REMARK  Name = ZINC40734844
REMARK  10 active torsions:
REMARK  status: ('A' for Active; 'I' for Inactive)
REMARK    1  A    between atoms: C_1  and  C_2
REMARK    2  A    between atoms: C_7  and  C_9
REMARK    3  A    between atoms: C_7  and  C_10
REMARK    4  A    between atoms: C_14  and  N_30
REMARK    5  A    between atoms: C_15  and  N_19
REMARK    6  A    between atoms: N_19  and  C_20
REMARK    7  A    between atoms: C_22  and  C_28
REMARK    8  A    between atoms: C_22  and  C_29
REMARK    9  A    between atoms: C_24  and  C_26
REMARK   10  A    between atoms: C_24  and  C_27
REMARK                            x       y       z     vdW  Elec       q    Type
REMARK                         _______ _______ _______ _____ _____    ______ ____
ROOT
ATOM      1  C   UNL     1      -0.640   0.850  -2.432  0.00  0.00    +0.013 C 
ATOM      2  C   UNL     1      -0.650  -0.640  -2.054  0.00  0.00    -0.014 C 
ATOM      3  C   UNL     1      -1.893  -1.383  -2.615  0.00  0.00    +0.030 C 
ATOM      4  C   UNL     1      -1.385  -2.844  -2.517  0.00  0.00    +0.076 C 
ATOM      5  C   UNL     1      -1.454  -3.250  -1.047  0.00  0.00    +0.029 C 
ATOM      6  C   UNL     1      -0.703  -2.318  -0.115  0.00  0.00    -0.033 C 
ATOM      7  C   UNL     1      -0.631  -0.864  -0.542  0.00  0.00    +0.014 C 
ATOM      8  C   UNL     1       0.712  -2.863   0.134  0.00  0.00    +0.011 C 
ATOM      9  C   UNL     1      -1.431  -2.356   1.252  0.00  0.00    +0.011 C 
ATOM     10  N   UNL     1       0.029  -2.784  -2.937  0.00  0.00    -0.310 N 
ATOM     11  C   UNL     1       0.518  -1.417  -2.699  0.00  0.00    +0.113 C 
ATOM     12  C   UNL     1       0.768  -3.831  -3.474  0.00  0.00    +0.147 A 
ATOM     13  C   UNL     1       2.059  -3.613  -3.957  0.00  0.00    +0.105 A 
ATOM     14  C   UNL     1       2.758  -4.700  -4.485  0.00  0.00    +0.145 A 
ATOM     15  N   UNL     1       2.171  -5.894  -4.508  0.00  0.00    -0.219 NA
ATOM     16  C   UNL     1       0.950  -6.057  -4.041  0.00  0.00    +0.225 A 
ATOM     17  N   UNL     1       0.258  -5.059  -3.530  0.00  0.00    -0.219 NA
ENDROOT
BRANCH  13  18
ATOM     18  N   UNL     1       2.639  -2.334  -3.914  0.00  0.00    -0.353 N 
ATOM     19  H   UNL     1       2.469  -1.750  -3.158  0.00  0.00    +0.143 HD
ATOM     20  H   UNL     1       3.210  -2.036  -4.639  0.00  0.00    +0.143 HD
ENDBRANCH  13  18
BRANCH  14  21
ATOM     21  N   UNL     1       4.046  -4.537  -4.980  0.00  0.00    -0.325 N 
ATOM     22  H   UNL     1       4.467  -3.663  -4.960  0.00  0.00    +0.148 HD
BRANCH  21  23
ATOM     23  C   UNL     1       4.771  -5.688  -5.533  0.00  0.00    +0.069 C 
ATOM     24  C   UNL     1       5.493  -6.419  -4.400  0.00  0.00    +0.009 C 
ATOM     25  C   UNL     1       6.263  -7.614  -4.962  0.00  0.00    -0.072 C 
ATOM     26  N   UNL     1       7.162  -7.229  -6.039  0.00  0.00    +0.386 N 
ATOM     27  C   UNL     1       6.637  -6.357  -7.078  0.00  0.00    -0.072 C 
ATOM     28  C   UNL     1       5.819  -5.193  -6.529  0.00  0.00    +0.009 C 
ATOM     29  C   UNL     1       5.813  -7.135  -8.107  0.00  0.00    -0.010 C 
ATOM     30  C   UNL     1       7.846  -5.753  -7.832  0.00  0.00    -0.010 C 
ATOM     31  C   UNL     1       5.292  -8.715  -5.387  0.00  0.00    -0.010 C 
ATOM     32  C   UNL     1       7.127  -8.183  -3.813  0.00  0.00    -0.010 C 
ATOM     33  H   UNL     1       7.983  -6.780  -5.627  0.00  0.00    -0.084 HD
ATOM     34  H   UNL     1       7.516  -8.081  -6.482  0.00  0.00    -0.084 HD
ENDBRANCH  21  23
ENDBRANCH  14  21
TORSDOF 3
