REMARK  Name = ZINC36742648
REMARK  3 active torsions:
REMARK  status: ('A' for Active; 'I' for Inactive)
REMARK    1  A    between atoms: C_1  and  C_2
REMARK    2  A    between atoms: C_7  and  N_21
REMARK    3  A    between atoms: C_12  and  C_14
REMARK                            x       y       z     vdW  Elec       q    Type
REMARK                         _______ _______ _______ _____ _____    ______ ____
ROOT
ATOM      1  C   UNL     1       0.117   2.009   0.729  0.00  0.00    +0.029 C 
ATOM      2  C   UNL     1      -0.107   0.521   0.453  0.00  0.00    +0.083 C 
ATOM      3  C   UNL     1      -1.550   0.124   0.805  0.00  0.00    +0.059 C 
ATOM      4  C   UNL     1      -1.405  -0.917   1.892  0.00  0.00    -0.022 A 
ATOM      5  C   UNL     1      -2.357  -1.631   2.593  0.00  0.00    +0.028 A 
ATOM      6  C   UNL     1      -1.968  -2.548   3.560  0.00  0.00    +0.025 A 
ATOM      7  C   UNL     1      -0.617  -2.744   3.818  0.00  0.00    +0.024 A 
ATOM      8  C   UNL     1       0.331  -2.031   3.117  0.00  0.00    +0.025 A 
ATOM      9  C   UNL     1      -0.056  -1.108   2.144  0.00  0.00    +0.040 A 
ATOM     10  N   UNL     1       0.742  -0.292   1.329  0.00  0.00    -0.264 N 
ATOM     11  C   UNL     1       2.089  -0.259   1.347  0.00  0.00    +0.251 C 
ATOM     12  O   UNL     1       2.705  -0.993   2.096  0.00  0.00    -0.270 OA
ENDROOT
BRANCH  11  13
ATOM     13  C   UNL     1       2.817   0.668   0.457  0.00  0.00    +0.037 A 
ATOM     14  C   UNL     1       2.130   1.372  -0.535  0.00  0.00    +0.016 A 
ATOM     15  C   UNL     1       2.814   2.236  -1.362  0.00  0.00    +0.039 A 
ATOM     16  C   UNL     1       4.182   2.407  -1.212  0.00  0.00    +0.123 A 
ATOM     17  C   UNL     1       4.869   1.710  -0.229  0.00  0.00    +0.039 A 
ATOM     18  C   UNL     1       4.194   0.848   0.608  0.00  0.00    +0.016 A 
ATOM     19  F   UNL     1       4.848   3.255  -2.026  0.00  0.00    -0.205 F 
ENDBRANCH  11  13
BRANCH   6  20
ATOM     20  N   UNL     1      -2.931  -3.271   4.272  0.00  0.00    -0.358 N 
ATOM     21  H   UNL     1      -3.874  -3.133   4.090  0.00  0.00    +0.142 HD
ATOM     22  H   UNL     1      -2.657  -3.911   4.947  0.00  0.00    +0.142 HD
ENDBRANCH   6  20
TORSDOF 2
