REMARK  Name = ZINC35487054
REMARK  10 active torsions:
REMARK  status: ('A' for Active; 'I' for Inactive)
REMARK    1  A    between atoms: C_1  and  N_2
REMARK    2  A    between atoms: N_2  and  C_3
REMARK    3  A    between atoms: N_2  and  C_4
REMARK    4  A    between atoms: C_4  and  C_5
REMARK    5  A    between atoms: C_5  and  C_6
REMARK    6  A    between atoms: C_6  and  N_7
REMARK    7  A    between atoms: C_8  and  C_24
REMARK    8  A    between atoms: C_27  and  O_30
REMARK    9  A    between atoms: O_30  and  C_31
REMARK   10  A    between atoms: C_31  and  C_32
REMARK                            x       y       z     vdW  Elec       q    Type
REMARK                         _______ _______ _______ _____ _____    ______ ____
ROOT
ATOM      1  N   UNL     1       4.282  -0.140  -2.368  0.00  0.00    -0.284 N 
ATOM      2  C   UNL     1       4.836   1.119  -2.890  0.00  0.00    +0.144 C 
ATOM      3  C   UNL     1       6.302   1.067  -2.609  0.00  0.00    +0.072 A 
ATOM      4  C   UNL     1       7.377   2.021  -2.901  0.00  0.00    +0.199 A 
ATOM      5  O   UNL     1       7.173   3.153  -3.304  0.00  0.00    -0.287 OA
ATOM      6  C   UNL     1       8.737   1.477  -2.658  0.00  0.00    +0.066 A 
ATOM      7  C   UNL     1       9.864   2.185  -3.074  0.00  0.00    +0.035 A 
ATOM      8  C   UNL     1      11.119   1.662  -2.844  0.00  0.00    +0.042 A 
ATOM      9  C   UNL     1      11.256   0.438  -2.203  0.00  0.00    +0.023 A 
ATOM     10  C   UNL     1      10.150  -0.268  -1.787  0.00  0.00    +0.048 A 
ATOM     11  C   UNL     1       8.869   0.240  -2.006  0.00  0.00    +0.140 A 
ATOM     12  O   UNL     1       7.800  -0.469  -1.578  0.00  0.00    -0.450 OA
ATOM     13  C   UNL     1       6.562  -0.116  -1.977  0.00  0.00    +0.199 A 
ATOM     14  C   UNL     1       5.295  -0.852  -1.834  0.00  0.00    +0.283 C 
ATOM     15  O   UNL     1       5.179  -1.943  -1.312  0.00  0.00    -0.267 OA
ATOM     16 CL   UNL     1      12.529   2.536  -3.357  0.00  0.00    -0.084 Cl
ENDROOT
BRANCH   2  17
ATOM     17  C   UNL     1       4.593   1.219  -4.375  0.00  0.00    -0.022 A 
ATOM     18  C   UNL     1       4.726   0.097  -5.172  0.00  0.00    +0.009 A 
ATOM     19  C   UNL     1       4.505   0.186  -6.533  0.00  0.00    +0.046 A 
ATOM     20  C   UNL     1       4.148   1.401  -7.099  0.00  0.00    +0.121 A 
ATOM     21  C   UNL     1       4.015   2.525  -6.296  0.00  0.00    +0.046 A 
ATOM     22  C   UNL     1       4.232   2.430  -4.935  0.00  0.00    +0.009 A 
BRANCH  20  23
ATOM     23  O   UNL     1       3.930   1.491  -8.437  0.00  0.00    -0.487 OA
BRANCH  23  24
ATOM     24  C   UNL     1       3.566   2.774  -8.950  0.00  0.00    +0.264 C 
BRANCH  24  25
ATOM     25  C   UNL     1       3.366   2.680 -10.441  0.00  0.00    -0.010 A 
ATOM     26  C   UNL     1       4.432   2.892 -11.296  0.00  0.00    +0.007 A 
ATOM     27  C   UNL     1       4.249   2.806 -12.663  0.00  0.00    +0.000 A 
ATOM     28  C   UNL     1       3.000   2.508 -13.176  0.00  0.00    +0.000 A 
ATOM     29  C   UNL     1       1.935   2.296 -12.322  0.00  0.00    +0.000 A 
ATOM     30  C   UNL     1       2.119   2.378 -10.954  0.00  0.00    +0.007 A 
ENDBRANCH  24  25
ENDBRANCH  23  24
ENDBRANCH  20  23
ENDBRANCH   2  17
BRANCH   1  31
ATOM     31  C   UNL     1       2.875  -0.547  -2.416  0.00  0.00    +0.107 C 
BRANCH  31  32
ATOM     32  C   UNL     1       2.159  -0.053  -1.157  0.00  0.00    +0.000 C 
BRANCH  32  33
ATOM     33  C   UNL     1       0.690  -0.478  -1.207  0.00  0.00    -0.078 C 
BRANCH  33  35
ATOM     34  C   UNL     1      -0.018   1.465   0.010  0.00  0.00    -0.097 C 
ATOM     35  N   UNL     1       0.002  -0.004   0.002  0.00  0.00    +0.376 N 
ATOM     36  C   UNL     1      -1.376  -0.512   0.012  0.00  0.00    -0.097 C 
ATOM     37  H   UNL     1       0.490  -0.338   0.820  0.00  0.00    -0.083 HD
ENDBRANCH  33  35
ENDBRANCH  32  33
ENDBRANCH  31  32
ENDBRANCH   1  31
TORSDOF 8
