REMARK  Name = ZINC01896240
REMARK  7 active torsions:
REMARK  status: ('A' for Active; 'I' for Inactive)
REMARK    1  A    between atoms: C_2  and  C_3
REMARK    2  A    between atoms: C_3  and  N_4
REMARK    3  A    between atoms: C_13  and  S_14
REMARK    4  A    between atoms: S_14  and  C_15
REMARK    5  A    between atoms: C_15  and  C_16
REMARK    6  A    between atoms: N_18  and  C_19
REMARK    7  A    between atoms: C_20  and  C_28
REMARK                            x       y       z     vdW  Elec       q    Type
REMARK                         _______ _______ _______ _____ _____    ______ ____
ROOT
ATOM      1  S   UNL     1       4.785   4.519  -0.022  0.00  0.00    -0.078 S 
ENDROOT
BRANCH   1  11
ATOM      2  N   UNL     1       4.416   1.836  -0.031  0.00  0.00    -0.283 N 
ATOM      3  C   UNL     1       3.700   0.696  -0.030  0.00  0.00    +0.263 A 
ATOM      4  O   UNL     1       4.260  -0.387  -0.041  0.00  0.00    -0.267 OA
ATOM      5  C   UNL     1       2.272   0.775  -0.016  0.00  0.00    +0.076 A 
ATOM      6  C   UNL     1       1.303  -0.334  -0.013  0.00  0.00    -0.023 A 
ATOM      7  C   UNL     1       0.002  -0.004   0.002  0.00  0.00    -0.004 A 
ATOM      8  S   UNL     1      -0.022   1.774   0.012  0.00  0.00    -0.073 S 
ATOM      9  C   UNL     1       1.727   2.067  -0.003  0.00  0.00    +0.117 A 
ATOM     10  N   UNL     1       2.489   3.155  -0.006  0.00  0.00    -0.216 NA
ATOM     11  C   UNL     1       3.804   3.055  -0.019  0.00  0.00    +0.173 A 
ATOM     12  C   UNL     1      -0.892  -1.215   0.007  0.00  0.00    +0.043 C 
ATOM     13  C   UNL     1       0.034  -2.377   0.430  0.00  0.00    +0.010 C 
ATOM     14  C   UNL     1       1.413  -1.862  -0.026  0.00  0.00    +0.037 C 
BRANCH   2  15
ATOM     15  C   UNL     1       5.879   1.766  -0.045  0.00  0.00    +0.154 C 
BRANCH  15  17
ATOM     16  C   UNL     1       7.238   2.640  -1.876  0.00  0.00    +0.005 C 
ATOM     17  C   UNL     1       6.367   1.749  -1.471  0.00  0.00    -0.013 C 
ENDBRANCH  15  17
ENDBRANCH   2  15
ENDBRANCH   1  11
BRANCH   1  18
ATOM     18  C   UNL     1       3.479   5.773  -0.003  0.00  0.00    +0.173 C 
BRANCH  18  19
ATOM     19  C   UNL     1       4.101   7.146  -0.003  0.00  0.00    +0.228 C 
ATOM     20  O   UNL     1       5.308   7.265  -0.015  0.00  0.00    -0.275 OA
ATOM     21  N   UNL     1       3.316   8.241   0.010  0.00  0.00    -0.278 N 
ATOM     22  H   UNL     1       2.350   8.146   0.019  0.00  0.00    +0.155 HD
BRANCH  21  23
ATOM     23  C   UNL     1       3.888   9.505   0.010  0.00  0.00    +0.090 A 
ATOM     24  C   UNL     1       3.254  10.738   0.017  0.00  0.00    +0.084 A 
ATOM     25  C   UNL     1       4.091  11.925   0.019  0.00  0.00    -0.018 A 
ATOM     26  C   UNL     1       5.422  11.690   0.004  0.00  0.00    -0.004 A 
ATOM     27  S   UNL     1       5.569   9.926  -0.005  0.00  0.00    -0.077 S 
ATOM     28  C   UNL     1       6.519  12.709  -0.004  0.00  0.00    +0.043 C 
ATOM     29  C   UNL     1       5.911  14.071  -0.370  0.00  0.00    +0.005 C 
ATOM     30  C   UNL     1       4.658  14.297   0.481  0.00  0.00    +0.005 C 
ATOM     31  C   UNL     1       3.546  13.348   0.031  0.00  0.00    +0.037 C 
BRANCH  24  32
ATOM     32  C   UNL     1       1.825  10.838   0.025  0.00  0.00    +0.102 C 
ATOM     33  N   UNL     1       0.692  10.917   0.031  0.00  0.00    -0.191 NA
ENDBRANCH  24  32
ENDBRANCH  21  23
ENDBRANCH  18  19
ENDBRANCH   1  18
TORSDOF 7
