REMARK  Name = ZINC66858061
REMARK  8 active torsions:
REMARK  status: ('A' for Active; 'I' for Inactive)
REMARK    1  A    between atoms: C_1  and  C_2
REMARK    2  A    between atoms: C_2  and  C_3
REMARK    3  A    between atoms: C_2  and  C_4
REMARK    4  A    between atoms: C_2  and  C_5
REMARK    5  A    between atoms: C_8  and  C_11
REMARK    6  A    between atoms: C_16  and  C_19
REMARK    7  A    between atoms: C_19  and  C_20
REMARK    8  A    between atoms: N_25  and  C_28
REMARK                            x       y       z     vdW  Elec       q    Type
REMARK                         _______ _______ _______ _____ _____    ______ ____
ROOT
ATOM      1  C   UNL     1       2.835  -0.441  -5.006  0.00  0.00    +0.219 C 
ATOM      2  O   UNL     1       2.277  -1.210  -5.759  0.00  0.00    -0.275 OA
ATOM      3  N   UNL     1       4.084  -0.015  -5.281  0.00  0.00    -0.301 N 
ATOM      4  C   UNL     1       4.815   0.829  -4.326  0.00  0.00    +0.108 C 
ATOM      5  C   UNL     1       5.297   2.090  -5.051  0.00  0.00    +0.023 C 
ATOM      6  C   UNL     1       6.110   1.685  -6.283  0.00  0.00    +0.001 C 
ATOM      7  C   UNL     1       5.224   0.886  -7.241  0.00  0.00    +0.023 C 
ATOM      8  C   UNL     1       4.743  -0.393  -6.539  0.00  0.00    +0.108 C 
ENDROOT
BRANCH   1  12
ATOM      9  C   UNL     1      -0.312   0.853  -2.368  0.00  0.00    -0.006 C 
ATOM     10  C   UNL     1       0.750   1.875  -2.780  0.00  0.00    +0.005 C 
ATOM     11  C   UNL     1       1.463   1.387  -4.043  0.00  0.00    +0.013 C 
ATOM     12  C   UNL     1       2.132   0.040  -3.762  0.00  0.00    +0.075 C 
ATOM     13  C   UNL     1       1.071  -0.981  -3.350  0.00  0.00    +0.013 C 
ATOM     14  C   UNL     1       0.357  -0.494  -2.087  0.00  0.00    +0.005 C 
BRANCH   9  16
ATOM     15  C   UNL     1      -0.008   1.503   0.025  0.00  0.00    +0.011 C 
ATOM     16  C   UNL     1      -1.026   1.341  -1.105  0.00  0.00    -0.035 C 
ATOM     17  C   UNL     1      -2.088   0.320  -0.693  0.00  0.00    +0.011 C 
ATOM     18  C   UNL     1      -1.695   2.688  -1.386  0.00  0.00    +0.011 C 
ENDBRANCH   9  16
ENDBRANCH   1  12
BRANCH   6  19
ATOM     19  C   UNL     1       6.622   2.942  -6.990  0.00  0.00    +0.099 C 
BRANCH  19  20
ATOM     20  C   UNL     1       7.523   2.544  -8.131  0.00  0.00    +0.216 C 
ATOM     21  O   UNL     1       7.735   1.371  -8.356  0.00  0.00    -0.276 OA
ATOM     22  N   UNL     1       8.094   3.492  -8.901  0.00  0.00    -0.305 N 
ATOM     23  C   UNL     1       7.856   4.920  -8.643  0.00  0.00    +0.089 C 
ATOM     24  C   UNL     1       9.210   5.636  -8.586  0.00  0.00    -0.060 C 
ATOM     25  N   UNL     1       9.960   5.359  -9.818  0.00  0.00    +0.380 N 
ATOM     26  C   UNL     1      10.273   3.926  -9.901  0.00  0.00    -0.060 C 
ATOM     27  C   UNL     1       8.977   3.127 -10.020  0.00  0.00    +0.089 C 
ATOM     28  C   UNL     1      11.210   6.132  -9.812  0.00  0.00    -0.096 C 
ATOM     29  H   UNL     1       9.405   5.628 -10.616  0.00  0.00    -0.082 HD
ENDBRANCH  19  20
ENDBRANCH   6  19
TORSDOF 4
