REMARK  Name = ZINC09381920
REMARK  9 active torsions:
REMARK  status: ('A' for Active; 'I' for Inactive)
REMARK    1  A    between atoms: C_1  and  C_2
REMARK    2  A    between atoms: N_7  and  S_9
REMARK    3  A    between atoms: S_9  and  C_12
REMARK    4  A    between atoms: C_15  and  C_18
REMARK    5  A    between atoms: N_20  and  N_21
REMARK    6  A    between atoms: C_25  and  O_33
REMARK    7  A    between atoms: C_28  and  O_31
REMARK    8  A    between atoms: O_31  and  C_32
REMARK    9  A    between atoms: O_33  and  C_34
REMARK                            x       y       z     vdW  Elec       q    Type
REMARK                         _______ _______ _______ _____ _____    ______ ____
ROOT
ATOM      1  C   UNL     1       0.081  -1.812   5.733  0.00  0.00    +0.260 C 
ATOM      2  O   UNL     1      -0.964  -2.009   6.322  0.00  0.00    -0.269 OA
ATOM      3  N   UNL     1       1.257  -2.000   6.364  0.00  0.00    -0.231 N 
ATOM      4  H   UNL     1       2.090  -1.843   5.894  0.00  0.00    +0.173 HD
ENDROOT
BRANCH   3   5
ATOM      5  N   UNL     1       1.275  -2.421   7.700  0.00  0.00    -0.242 N 
ATOM      6  C   UNL     1       2.480  -2.613   8.347  0.00  0.00    +0.176 A 
ATOM      7  N   UNL     1       3.699  -2.460   7.882  0.00  0.00    -0.220 NA
ATOM      8  C   UNL     1       4.797  -2.681   8.639  0.00  0.00    +0.125 A 
ATOM      9  C   UNL     1       6.159  -2.549   8.263  0.00  0.00    +0.147 A 
ATOM     10  C   UNL     1       7.164  -2.821   9.159  0.00  0.00    +0.051 A 
ATOM     11  C   UNL     1       6.887  -3.233  10.456  0.00  0.00    +0.050 A 
ATOM     12  C   UNL     1       5.567  -3.373  10.856  0.00  0.00    +0.136 A 
ATOM     13  C   UNL     1       4.554  -3.102   9.963  0.00  0.00    +0.086 A 
ATOM     14  S   UNL     1       2.779  -3.140  10.028  0.00  0.00    -0.047 S 
ATOM     15  H   UNL     1       0.442  -2.578   8.171  0.00  0.00    +0.172 HD
BRANCH  12  16
ATOM     16  O   UNL     1       5.274  -3.775  12.122  0.00  0.00    -0.494 OA
ATOM     17  C   UNL     1       6.378  -4.038  12.991  0.00  0.00    +0.277 C 
ENDBRANCH  12  16
BRANCH   9  18
ATOM     18  O   UNL     1       6.473  -2.148   7.002  0.00  0.00    -0.493 OA
ATOM     19  C   UNL     1       7.862  -2.034   6.684  0.00  0.00    +0.277 C 
ENDBRANCH   9  18
ENDBRANCH   3   5
BRANCH   1  23
ATOM     20  C   UNL     1       0.025  -0.534   1.682  0.00  0.00    +0.106 A 
ATOM     21  C   UNL     1       1.234  -0.730   2.326  0.00  0.00    +0.029 A 
ATOM     22  C   UNL     1       1.259  -1.141   3.643  0.00  0.00    +0.015 A 
ATOM     23  C   UNL     1       0.062  -1.368   4.323  0.00  0.00    +0.038 A 
ATOM     24  C   UNL     1      -1.155  -1.173   3.666  0.00  0.00    +0.015 A 
ATOM     25  C   UNL     1      -1.166  -0.757   2.350  0.00  0.00    +0.029 A 
BRANCH  20  26
ATOM     26  S   UNL     1       0.002  -0.004   0.002  0.00  0.00    +0.061 S 
ATOM     27  O   UNL     1      -1.243  -0.424  -0.539  0.00  0.00    -0.153 OA
ATOM     28  O   UNL     1       1.248  -0.390  -0.563  0.00  0.00    -0.153 OA
BRANCH  26  34
ATOM     29  C   UNL     1       2.453   4.301   1.106  0.00  0.00    +0.009 C 
ATOM     30  C   UNL     1       1.217   3.403   1.176  0.00  0.00    +0.002 C 
ATOM     31  C   UNL     1      -0.046   4.264   1.096  0.00  0.00    +0.006 C 
ATOM     32  C   UNL     1      -1.283   3.369   1.199  0.00  0.00    +0.017 C 
ATOM     33  C   UNL     1      -1.295   2.383   0.021  0.00  0.00    +0.109 C 
ATOM     34  N   UNL     1      -0.020   1.652   0.011  0.00  0.00    -0.176 NA
ATOM     35  C   UNL     1       1.234   2.417   0.003  0.00  0.00    +0.112 C 
ENDBRANCH  26  34
ENDBRANCH  20  26
ENDBRANCH   1  23
TORSDOF 6
