REMARK  Name = ZINC29887943
REMARK  6 active torsions:
REMARK  status: ('A' for Active; 'I' for Inactive)
REMARK    1  A    between atoms: C_1  and  C_2
REMARK    2  A    between atoms: C_9  and  C_11
REMARK    3  A    between atoms: C_11  and  N_12
REMARK    4  A    between atoms: N_15  and  C_18
REMARK    5  A    between atoms: C_18  and  C_19
REMARK    6  A    between atoms: C_24  and  O_25
REMARK                            x       y       z     vdW  Elec       q    Type
REMARK                         _______ _______ _______ _____ _____    ______ ____
ROOT
ATOM      1  N   UNL     1       3.065   0.891   3.746  0.00  0.00    -0.298 NA
ATOM      2  C   UNL     1       3.895   1.679   2.824  0.00  0.00    +0.066 C 
ATOM      3  C   UNL     1       4.478   2.882   3.568  0.00  0.00    -0.063 C 
ATOM      4  N   UNL     1       5.285   2.412   4.702  0.00  0.00    +0.384 N 
ATOM      5  C   UNL     1       4.437   1.648   5.626  0.00  0.00    -0.063 C 
ATOM      6  C   UNL     1       3.854   0.435   4.899  0.00  0.00    +0.066 C 
ATOM      7  H   UNL     1       6.030   1.821   4.363  0.00  0.00    -0.081 HD
ENDROOT
BRANCH   1   8
ATOM      8  C   UNL     1       2.441  -0.244   3.053  0.00  0.00    +0.180 C 
BRANCH   8  16
ATOM      9  C   UNL     1      -0.218   1.412   0.269  0.00  0.00    +0.028 C 
ATOM     10  C   UNL     1      -0.132  -0.114   0.211  0.00  0.00    +0.073 C 
ATOM     11  C   UNL     1      -1.527  -0.715   0.414  0.00  0.00    +0.022 C 
ATOM     12  C   UNL     1      -1.415  -2.239   0.495  0.00  0.00    +0.003 C 
ATOM     13  C   UNL     1      -0.543  -2.626   1.692  0.00  0.00    +0.019 C 
ATOM     14  C   UNL     1       0.863  -2.047   1.504  0.00  0.00    +0.108 C 
ATOM     15  N   UNL     1       0.754  -0.599   1.278  0.00  0.00    -0.298 N 
ATOM     16  C   UNL     1       1.452   0.269   2.038  0.00  0.00    +0.230 C 
ATOM     17  O   UNL     1       1.284   1.463   1.905  0.00  0.00    -0.274 OA
ENDBRANCH   8  16
ENDBRANCH   1   8
BRANCH   4  18
ATOM     18  C   UNL     1       5.859   3.567   5.406  0.00  0.00    -0.039 C 
BRANCH  18  19
ATOM     19  C   UNL     1       6.803   3.084   6.477  0.00  0.00    -0.019 A 
ATOM     20  C   UNL     1       6.424   3.135   7.805  0.00  0.00    +0.055 A 
ATOM     21  C   UNL     1       7.289   2.692   8.792  0.00  0.00    +0.167 A 
ATOM     22  C   UNL     1       8.543   2.195   8.444  0.00  0.00    +0.170 A 
ATOM     23  C   UNL     1       8.920   2.144   7.113  0.00  0.00    +0.095 A 
ATOM     24  C   UNL     1       8.049   2.584   6.128  0.00  0.00    +0.122 A 
ATOM     25  O   UNL     1       9.198   1.827   9.584  0.00  0.00    -0.452 OA
ATOM     26  C   UNL     1       8.498   2.483  10.659  0.00  0.00    +0.466 C 
ATOM     27  O   UNL     1       7.159   2.637  10.151  0.00  0.00    -0.453 OA
BRANCH  24  28
ATOM     28  O   UNL     1       8.417   2.529   4.820  0.00  0.00    -0.506 OA
ATOM     29  H   UNL     1       8.938   3.289   4.526  0.00  0.00    +0.292 HD
ENDBRANCH  24  28
ENDBRANCH  18  19
ENDBRANCH   4  18
TORSDOF 5
