REMARK  Name = ZINC39522639
REMARK  8 active torsions:
REMARK  status: ('A' for Active; 'I' for Inactive)
REMARK    1  A    between atoms: C_1  and  S_2
REMARK    2  A    between atoms: S_2  and  N_3
REMARK    3  A    between atoms: C_4  and  S_26
REMARK    4  A    between atoms: C_13  and  S_16
REMARK    5  A    between atoms: S_16  and  O_19
REMARK    6  A    between atoms: O_19  and  C_20
REMARK    7  A    between atoms: S_26  and  O_29
REMARK    8  A    between atoms: O_29  and  C_30
REMARK                            x       y       z     vdW  Elec       q    Type
REMARK                         _______ _______ _______ _____ _____    ______ ____
ROOT
ATOM      1  N   UNL     1      -1.917  -0.275  -0.214  0.00  0.00    -0.218 NA
ATOM      2  C   UNL     1      -2.457   0.508   0.901  0.00  0.00    +0.251 C 
ATOM      3  C   UNL     1      -3.986   0.476   0.865  0.00  0.00    +0.047 C 
ATOM      4  C   UNL     1      -4.458  -0.981   0.886  0.00  0.00    +0.005 C 
ATOM      5  C   UNL     1      -3.840  -1.727  -0.295  0.00  0.00    +0.023 C 
ATOM      6  C   UNL     1      -2.295  -1.680  -0.175  0.00  0.00    +0.036 C 
ATOM      7  C   UNL     1      -1.755  -2.459  -1.369  0.00  0.00    +0.023 C 
ATOM      8  C   UNL     1      -0.287  -2.832  -1.251  0.00  0.00    +0.004 C 
ATOM      9  C   UNL     1      -0.028  -3.561   0.068  0.00  0.00    +0.030 C 
ATOM     10  C   UNL     1      -0.428  -2.650   1.230  0.00  0.00    +0.173 C 
ATOM     11  C   UNL     1      -1.919  -2.341   1.144  0.00  0.00    +0.053 C 
ENDROOT
BRANCH  10  12
ATOM     12  S   UNL     1      -0.079  -3.497   2.799  0.00  0.00    +0.124 S 
ATOM     13  O   UNL     1      -0.273  -2.607   3.889  0.00  0.00    -0.136 OA
ATOM     14  O   UNL     1      -0.674  -4.787   2.801  0.00  0.00    -0.136 OA
BRANCH  12  15
ATOM     15  O   UNL     1       1.420  -3.761   2.776  0.00  0.00    -0.346 OA
BRANCH  15  16
ATOM     16  C   UNL     1       2.179  -2.658   3.007  0.00  0.00    +0.156 A 
ATOM     17  C   UNL     1       2.585  -1.859   1.948  0.00  0.00    +0.048 A 
ATOM     18  C   UNL     1       3.357  -0.738   2.186  0.00  0.00    +0.004 A 
ATOM     19  C   UNL     1       3.725  -0.412   3.478  0.00  0.00    +0.000 A 
ATOM     20  C   UNL     1       3.322  -1.207   4.535  0.00  0.00    +0.004 A 
ATOM     21  C   UNL     1       2.545  -2.326   4.303  0.00  0.00    +0.048 A 
ENDBRANCH  15  16
ENDBRANCH  12  15
ENDBRANCH  10  12
BRANCH   2  22
ATOM     22  S   UNL     1      -1.892   2.228   0.757  0.00  0.00    +0.138 S 
ATOM     23  O   UNL     1      -0.515   2.321   1.096  0.00  0.00    -0.135 OA
ATOM     24  O   UNL     1      -2.383   2.805  -0.445  0.00  0.00    -0.135 OA
BRANCH  22  25
ATOM     25  O   UNL     1      -2.617   2.972   1.870  0.00  0.00    -0.345 OA
BRANCH  25  26
ATOM     26  C   UNL     1      -2.118   2.733   3.111  0.00  0.00    +0.156 A 
ATOM     27  C   UNL     1      -2.613   1.683   3.870  0.00  0.00    +0.048 A 
ATOM     28  C   UNL     1      -2.103   1.443   5.131  0.00  0.00    +0.004 A 
ATOM     29  C   UNL     1      -1.100   2.249   5.637  0.00  0.00    +0.000 A 
ATOM     30  C   UNL     1      -0.605   3.296   4.883  0.00  0.00    +0.004 A 
ATOM     31  C   UNL     1      -1.107   3.537   3.619  0.00  0.00    +0.048 A 
ENDBRANCH  25  26
ENDBRANCH  22  25
ENDBRANCH   2  22
BRANCH   1  33
ATOM     32  C   UNL     1       0.011   0.020  -2.242  0.00  0.00    +0.103 C 
ATOM     33  S   UNL     1      -0.202   0.026  -0.440  0.00  0.00    -0.079 S 
ENDBRANCH   1  33
TORSDOF 7
