REMARK  Name = ZINC48839567
REMARK  5 active torsions:
REMARK  status: ('A' for Active; 'I' for Inactive)
REMARK    1  A    between atoms: C_4  and  S_10
REMARK    2  A    between atoms: C_6  and  C_7
REMARK    3  A    between atoms: S_10  and  N_13
REMARK    4  A    between atoms: N_13  and  C_14
REMARK    5  A    between atoms: C_20  and  N_22
REMARK                            x       y       z     vdW  Elec       q    Type
REMARK                         _______ _______ _______ _____ _____    ______ ____
ROOT
ATOM      1  S   UNL     1       4.018  -0.835  -0.015  0.00  0.00    +0.060 S 
ATOM      2  O   UNL     1       3.712  -2.215  -0.162  0.00  0.00    -0.153 OA
ATOM      3  O   UNL     1       3.041   0.125   0.365  0.00  0.00    -0.153 OA
ENDROOT
BRANCH   1   7
ATOM      4  C   UNL     1       7.374  -0.578   3.029  0.00  0.00    +0.016 A 
ATOM      5  C   UNL     1       7.455  -1.468   1.979  0.00  0.00    +0.023 A 
ATOM      6  C   UNL     1       6.430  -1.545   1.051  0.00  0.00    +0.067 A 
ATOM      7  C   UNL     1       5.316  -0.729   1.171  0.00  0.00    +0.124 A 
ATOM      8  C   UNL     1       5.222   0.165   2.216  0.00  0.00    +0.045 A 
ATOM      9  C   UNL     1       6.253   0.247   3.156  0.00  0.00    +0.065 A 
ATOM     10 CL   UNL     1       6.541  -2.667  -0.268  0.00  0.00    -0.082 Cl
BRANCH   9  11
ATOM     11  C   UNL     1       6.159   1.202   4.276  0.00  0.00    +0.387 C 
ATOM     12  O   UNL     1       7.063   1.272   5.097  0.00  0.00    -0.241 OA
ATOM     13  O   UNL     1       5.178   1.923   4.384  0.00  0.00    -0.241 OA
ENDBRANCH   9  11
ENDBRANCH   1   7
BRANCH   1  14
ATOM     14  N   UNL     1       4.637  -0.331  -1.466  0.00  0.00    -0.188 NA
ATOM     15  H   UNL     1       4.719  -0.957  -2.202  0.00  0.00    +0.148 HD
BRANCH  14  16
ATOM     16  C   UNL     1       5.062   1.061  -1.637  0.00  0.00    +0.062 C 
ATOM     17  C   UNL     1       6.573   1.163  -1.419  0.00  0.00    +0.019 C 
ATOM     18  C   UNL     1       7.296   0.280  -2.438  0.00  0.00    +0.001 C 
ATOM     19  C   UNL     1       6.953   0.748  -3.853  0.00  0.00    -0.001 C 
ATOM     20  C   UNL     1       5.442   0.646  -4.071  0.00  0.00    -0.015 C 
ATOM     21  C   UNL     1       4.718   1.529  -3.053  0.00  0.00    -0.056 C 
BRANCH  21  22
ATOM     22  N   UNL     1       3.268   1.431  -3.262  0.00  0.00    +0.381 N 
ATOM     23  H   UNL     1       2.791   2.013  -2.590  0.00  0.00    -0.090 HD
ATOM     24  H   UNL     1       3.041   1.739  -4.196  0.00  0.00    -0.090 HD
ATOM     25  H   UNL     1       2.975   0.472  -3.144  0.00  0.00    -0.090 HD
ENDBRANCH  21  22
ENDBRANCH  14  16
ENDBRANCH   1  14
TORSDOF 5
