REMARK  Name = ZINC16711907
REMARK  3 active torsions:
REMARK  status: ('A' for Active; 'I' for Inactive)
REMARK    1  A    between atoms: C_3  and  C_6
REMARK    2  A    between atoms: C_7  and  C_8
REMARK    3  A    between atoms: N_24  and  C_27
REMARK                            x       y       z     vdW  Elec       q    Type
REMARK                         _______ _______ _______ _____ _____    ______ ____
ROOT
ATOM      1  C   UNL     1       5.711  -0.586  -0.056  0.00  0.00    +0.065 C 
ATOM      2  C   UNL     1       6.186  -1.308  -1.285  0.00  0.00    +0.032 A 
ATOM      3  C   UNL     1       6.605  -2.585  -1.423  0.00  0.00    +0.088 A 
ATOM      4  N   UNL     1       6.996  -2.934  -2.692  0.00  0.00    -0.311 N 
ATOM      5  H   UNL     1       7.319  -3.830  -2.871  0.00  0.00    +0.170 HD
ATOM      6  C   UNL     1       6.929  -2.030  -3.689  0.00  0.00    +0.289 A 
ATOM      7  O   UNL     1       7.230  -2.175  -4.861  0.00  0.00    -0.260 OA
ATOM      8  S   UNL     1       6.331  -0.655  -2.928  0.00  0.00    -0.030 S 
ATOM      9  S   UNL     1       6.617  -3.707  -0.033  0.00  0.00    -0.093 S 
ATOM     10  C   UNL     1       5.612  -2.766   1.145  0.00  0.00    +0.152 C 
ATOM     11  C   UNL     1       6.211  -1.323   1.161  0.00  0.00    +0.110 C 
ATOM     12  C   UNL     1       5.792  -0.860   2.520  0.00  0.00    +0.232 C 
ATOM     13  O   UNL     1       5.544   0.277   2.858  0.00  0.00    -0.274 OA
ATOM     14  N   UNL     1       5.745  -1.973   3.299  0.00  0.00    -0.209 N 
ATOM     15  C   UNL     1       5.798  -3.160   2.585  0.00  0.00    +0.240 C 
ATOM     16  O   UNL     1       5.970  -4.279   3.017  0.00  0.00    -0.274 OA
ENDROOT
BRANCH  14  17
ATOM     17  C   UNL     1       5.632  -1.928   4.696  0.00  0.00    +0.044 A 
ATOM     18  C   UNL     1       5.557  -0.705   5.349  0.00  0.00    +0.025 A 
ATOM     19  C   UNL     1       5.446  -0.663   6.725  0.00  0.00    +0.017 A 
ATOM     20  C   UNL     1       5.410  -1.839   7.453  0.00  0.00    +0.018 A 
ATOM     21  C   UNL     1       5.485  -3.059   6.805  0.00  0.00    +0.017 A 
ATOM     22  C   UNL     1       5.590  -3.106   5.429  0.00  0.00    +0.025 A 
ATOM     23 BR   UNL     1       5.258  -1.778   9.337  0.00  0.00    -0.050 Br
ENDBRANCH  14  17
BRANCH   1  25
ATOM     24  C   UNL     1       3.567   0.618  -0.029  0.00  0.00    +0.042 C 
ATOM     25  C   UNL     1       4.204  -0.549  -0.041  0.00  0.00    -0.014 C 
BRANCH  24  28
ATOM     26  C   UNL     1      -0.016   1.344   0.009  0.00  0.00    +0.042 A 
ATOM     27  C   UNL     1       1.324   1.775  -0.001  0.00  0.00    +0.049 A 
ATOM     28  C   UNL     1       2.097   0.654  -0.015  0.00  0.00    +0.127 A 
ATOM     29  O   UNL     1       1.280  -0.418  -0.012  0.00  0.00    -0.464 OA
ATOM     30  C   UNL     1       0.002  -0.004   0.002  0.00  0.00    +0.195 A 
ENDBRANCH  24  28
ENDBRANCH   1  25
TORSDOF 3
