REMARK  Name = ZINC21264348
REMARK  11 active torsions:
REMARK  status: ('A' for Active; 'I' for Inactive)
REMARK    1  A    between atoms: C_1  and  C_2
REMARK    2  A    between atoms: C_8  and  N_10
REMARK    3  A    between atoms: N_10  and  C_11
REMARK    4  A    between atoms: N_10  and  C_17
REMARK    5  A    between atoms: C_11  and  C_12
REMARK    6  A    between atoms: C_17  and  N_19
REMARK    7  A    between atoms: N_19  and  C_20
REMARK    8  A    between atoms: C_22  and  C_28
REMARK    9  A    between atoms: C_22  and  C_29
REMARK   10  A    between atoms: C_24  and  C_26
REMARK   11  A    between atoms: C_24  and  C_27
REMARK                            x       y       z     vdW  Elec       q    Type
REMARK                         _______ _______ _______ _____ _____    ______ ____
ROOT
ATOM      1  C   UNL     1      -1.098   3.694   3.817  0.00  0.00    +0.134 C 
ATOM      2  S   UNL     1       0.123   4.147   2.706  0.00  0.00    -0.019 S 
ENDROOT
BRANCH   1   3
ATOM      3  N   UNL     1      -1.621   2.452   3.774  0.00  0.00    -0.324 N 
ATOM      4  H   UNL     1      -2.405   2.161   4.488  0.00  0.00    +0.148 HD
BRANCH   3   5
ATOM      5  C   UNL     1      -1.142   1.488   2.775  0.00  0.00    +0.069 C 
ATOM      6  C   UNL     1       0.087   0.763   3.323  0.00  0.00    +0.009 C 
ATOM      7  C   UNL     1       0.593  -0.263   2.313  0.00  0.00    -0.072 C 
ATOM      8  N   UNL     1      -0.457  -1.122   1.804  0.00  0.00    +0.386 N 
ATOM      9  C   UNL     1      -1.758  -0.573   1.486  0.00  0.00    -0.072 C 
ATOM     10  C   UNL     1      -2.237   0.455   2.508  0.00  0.00    +0.009 C 
ATOM     11  C   UNL     1      -1.770   0.052   0.086  0.00  0.00    -0.010 C 
ATOM     12  C   UNL     1      -2.781  -1.731   1.478  0.00  0.00    -0.010 C 
ATOM     13  C   UNL     1       1.634  -1.149   3.033  0.00  0.00    -0.010 C 
ATOM     14  C   UNL     1       1.321   0.456   1.172  0.00  0.00    -0.010 C 
ATOM     15  H   UNL     1      -0.128  -1.583   0.861  0.00  0.00    -0.084 HD
ATOM     16  H   UNL     1      -0.675  -1.909   2.540  0.00  0.00    -0.084 HD
ENDBRANCH   3   5
ENDBRANCH   1   3
BRANCH   1  17
ATOM     17  N   UNL     1      -1.537   4.579   4.734  0.00  0.00    -0.302 N 
BRANCH  17  24
ATOM     18  C   UNL     1      -0.738   7.285   5.387  0.00  0.00    +0.009 C 
ATOM     19  C   UNL     1       0.144   6.073   5.695  0.00  0.00    +0.006 C 
ATOM     20  C   UNL     1       1.076   5.808   4.511  0.00  0.00    +0.005 C 
ATOM     21  C   UNL     1       1.958   4.596   4.819  0.00  0.00    +0.000 C 
ATOM     22  C   UNL     1       1.075   3.370   5.057  0.00  0.00    +0.002 C 
ATOM     23  C   UNL     1       0.143   3.635   6.241  0.00  0.00    +0.023 C 
ATOM     24  C   UNL     1      -0.739   4.847   5.933  0.00  0.00    +0.078 C 
ENDBRANCH  17  24
BRANCH  17  25
ATOM     25  C   UNL     1      -2.811   5.272   4.531  0.00  0.00    +0.181 C 
BRANCH  25  26
ATOM     26  C   UNL     1      -3.926   4.465   5.146  0.00  0.00    +0.122 A 
ATOM     27  C   UNL     1      -4.366   4.569   6.413  0.00  0.00    +0.046 A 
ATOM     28  C   UNL     1      -5.416   3.634   6.559  0.00  0.00    +0.041 A 
ATOM     29  C   UNL     1      -5.549   3.008   5.376  0.00  0.00    +0.195 A 
ATOM     30  O   UNL     1      -4.644   3.516   4.524  0.00  0.00    -0.466 OA
ENDBRANCH  25  26
ENDBRANCH  17  25
ENDBRANCH   1  17
TORSDOF 6
