REMARK  Name = ZINC39657125
REMARK  5 active torsions:
REMARK  status: ('A' for Active; 'I' for Inactive)
REMARK    1  A    between atoms: C_1  and  C_2
REMARK    2  A    between atoms: C_2  and  C_4
REMARK    3  A    between atoms: C_2  and  N_11
REMARK    4  A    between atoms: C_12  and  C_14
REMARK    5  A    between atoms: C_25  and  C_27
REMARK                            x       y       z     vdW  Elec       q    Type
REMARK                         _______ _______ _______ _____ _____    ______ ____
ROOT
ATOM      1  C   UNL     1      -3.473  -1.169  -1.125  0.00  0.00    +0.100 C 
ATOM      2  C   UNL     1      -4.371  -0.273  -0.243  0.00  0.00    +0.121 C 
ATOM      3  N   UNL     1      -4.989   0.685  -1.191  0.00  0.00    -0.296 N 
ATOM      4  C   UNL     1      -5.291  -0.129  -2.393  0.00  0.00    +0.115 C 
ATOM      5  C   UNL     1      -4.082  -1.075  -2.534  0.00  0.00    -0.004 C 
ATOM      6  C   UNL     1      -3.066  -0.489  -3.510  0.00  0.00    -0.010 C 
ATOM      7  C   UNL     1      -3.675  -0.458  -4.915  0.00  0.00    -0.082 C 
ATOM      8  N   UNL     1      -4.045  -1.819  -5.320  0.00  0.00    +0.379 N 
ATOM      9  C   UNL     1      -5.089  -2.341  -4.431  0.00  0.00    -0.082 C 
ATOM     10  C   UNL     1      -4.540  -2.451  -3.005  0.00  0.00    -0.010 C 
ATOM     11  C   UNL     1      -5.224   1.998  -1.002  0.00  0.00    +0.248 C 
ATOM     12  O   UNL     1      -4.829   2.548   0.009  0.00  0.00    -0.270 OA
ATOM     13  H   UNL     1      -4.389  -1.804  -6.269  0.00  0.00    -0.086 HD
ATOM     14  H   UNL     1      -3.233  -2.416  -5.269  0.00  0.00    -0.086 HD
ENDROOT
BRANCH  11  15
ATOM     15  C   UNL     1      -5.956   2.767  -2.017  0.00  0.00    +0.052 A 
ATOM     16  C   UNL     1      -6.962   2.200  -2.733  0.00  0.00    +0.059 A 
ATOM     17  S   UNL     1      -7.513   3.407  -3.759  0.00  0.00    -0.096 S 
ATOM     18  C   UNL     1      -6.434   4.733  -3.291  0.00  0.00    +0.020 A 
ATOM     19  C   UNL     1      -5.629   4.169  -2.284  0.00  0.00    +0.001 A 
ATOM     20  C   UNL     1      -4.654   4.999  -1.698  0.00  0.00    +0.010 A 
ATOM     21  C   UNL     1      -4.516   6.303  -2.104  0.00  0.00    +0.001 A 
ATOM     22  C   UNL     1      -5.326   6.836  -3.096  0.00  0.00    +0.001 A 
ATOM     23  C   UNL     1      -6.284   6.042  -3.696  0.00  0.00    +0.015 A 
ENDBRANCH  11  15
BRANCH   1  25
ATOM     24  N   UNL     1      -1.027  -1.508  -1.273  0.00  0.00    -0.308 N 
ATOM     25  C   UNL     1      -2.058  -0.652  -1.129  0.00  0.00    +0.219 C 
ATOM     26  O   UNL     1      -1.846   0.536  -1.002  0.00  0.00    -0.275 OA
ATOM     27  H   UNL     1      -1.196  -2.458  -1.375  0.00  0.00    +0.149 HD
BRANCH  24  29
ATOM     28  C   UNL     1       0.849  -0.876   0.163  0.00  0.00    +0.033 C 
ATOM     29  C   UNL     1       0.349  -1.005  -1.277  0.00  0.00    +0.100 C 
BRANCH  29  30
ATOM     30  C   UNL     1       1.232  -1.964  -2.032  0.00  0.00    -0.027 A 
ATOM     31  C   UNL     1       1.052  -3.328  -1.890  0.00  0.00    +0.006 A 
ATOM     32  C   UNL     1       1.862  -4.208  -2.582  0.00  0.00    +0.015 A 
ATOM     33  C   UNL     1       2.853  -3.725  -3.417  0.00  0.00    +0.018 A 
ATOM     34  C   UNL     1       3.033  -2.361  -3.559  0.00  0.00    +0.015 A 
ATOM     35  C   UNL     1       2.219  -1.481  -2.871  0.00  0.00    +0.006 A 
ATOM     36 BR   UNL     1       3.962  -4.929  -4.364  0.00  0.00    -0.050 Br
ENDBRANCH  29  30
ENDBRANCH  24  29
ENDBRANCH   1  25
TORSDOF 4
