REMARK  Name = ZINC35465634
REMARK  7 active torsions:
REMARK  status: ('A' for Active; 'I' for Inactive)
REMARK    1  A    between atoms: C_1  and  C_2
REMARK    2  A    between atoms: C_2  and  C_3
REMARK    3  A    between atoms: C_3  and  C_4
REMARK    4  A    between atoms: N_22  and  C_32
REMARK    5  A    between atoms: C_33  and  C_35
REMARK    6  A    between atoms: C_37  and  C_39
REMARK    7  A    between atoms: C_37  and  C_40
REMARK                            x       y       z     vdW  Elec       q    Type
REMARK                         _______ _______ _______ _____ _____    ______ ____
ROOT
ATOM      1  C   UNL     1      -0.267  -2.161  -0.262  0.00  0.00    +0.214 C 
ATOM      2  O   UNL     1       0.633  -2.954  -0.082  0.00  0.00    -0.276 OA
ATOM      3  N   UNL     1      -1.534  -2.600  -0.402  0.00  0.00    -0.314 N 
ATOM      4  C   UNL     1      -2.765  -1.787  -0.635  0.00  0.00    +0.107 C 
ATOM      5  C   UNL     1      -3.924  -2.794  -0.923  0.00  0.00    +0.031 C 
ATOM      6  C   UNL     1      -3.128  -4.025  -1.389  0.00  0.00    +0.015 C 
ATOM      7  C   UNL     1      -2.010  -3.969  -0.366  0.00  0.00    +0.035 C 
ATOM      8  N   UNL     1      -1.196  -5.135  -0.259  0.00  0.00    +0.399 N 
ATOM      9  C   UNL     1      -1.275  -5.907  -1.526  0.00  0.00    -0.074 C 
ATOM     10  C   UNL     1      -2.694  -6.367  -1.873  0.00  0.00    -0.003 C 
ATOM     11  C   UNL     1      -3.714  -5.394  -1.240  0.00  0.00    +0.040 C 
ATOM     12  C   UNL     1      -3.994  -5.943   0.102  0.00  0.00    -0.014 A 
ATOM     13  C   UNL     1      -3.078  -6.167   1.111  0.00  0.00    -0.053 A 
ATOM     14  C   UNL     1      -3.635  -6.645   2.288  0.00  0.00    +0.002 A 
ATOM     15  C   UNL     1      -4.976  -6.984   2.349  0.00  0.00    +0.002 A 
ATOM     16  C   UNL     1      -5.835  -6.928   1.257  0.00  0.00    +0.023 A 
ATOM     17  C   UNL     1      -5.301  -6.439   0.070  0.00  0.00    +0.035 A 
ATOM     18  N   UNL     1      -5.769  -6.455  -1.258  0.00  0.00    -0.314 N 
ATOM     19  C   UNL     1      -5.079  -5.377  -1.954  0.00  0.00    +0.170 C 
ATOM     20  N   UNL     1      -4.708  -5.439  -3.358  0.00  0.00    -0.325 N 
ATOM     21  C   UNL     1      -3.655  -4.578  -3.769  0.00  0.00    +0.032 A 
ATOM     22  C   UNL     1      -2.850  -3.878  -2.855  0.00  0.00    -0.019 A 
ATOM     23  C   UNL     1      -1.833  -3.076  -3.322  0.00  0.00    +0.006 A 
ATOM     24  C   UNL     1      -1.604  -2.946  -4.679  0.00  0.00    +0.000 A 
ATOM     25  C   UNL     1      -2.401  -3.625  -5.583  0.00  0.00    +0.002 A 
ATOM     26  C   UNL     1      -3.420  -4.438  -5.129  0.00  0.00    +0.023 A 
ATOM     27  C   UNL     1      -6.755  -7.376  -1.828  0.00  0.00    +0.131 C 
ATOM     28  C   UNL     1      -1.636  -6.002   0.824  0.00  0.00    -0.003 C 
ATOM     29  H   UNL     1      -5.155  -6.034  -3.980  0.00  0.00    +0.148 HD
ATOM     30  H   UNL     1      -0.238  -4.861  -0.100  0.00  0.00    -0.078 HD
ENDROOT
BRANCH  28  31
ATOM     31  C   UNL     1      -0.990  -5.486   2.111  0.00  0.00    +0.141 C 
ATOM     32  C   UNL     1       0.148  -6.310   2.718  0.00  0.00    +0.089 C 
ATOM     33  O   UNL     1      -1.159  -6.263   3.299  0.00  0.00    -0.367 OA
ATOM     34  C   UNL     1       0.562  -7.594   1.996  0.00  0.00    +0.044 C 
ATOM     35  C   UNL     1       1.272  -5.556   3.431  0.00  0.00    +0.044 C 
ENDBRANCH  28  31
BRANCH   1  36
ATOM     36  C   UNL     1       0.031  -0.686  -0.329  0.00  0.00    +0.095 C 
BRANCH  36  38
ATOM     37  C   UNL     1       1.835   1.039  -0.211  0.00  0.00    +0.004 C 
ATOM     38  C   UNL     1       1.532  -0.460  -0.142  0.00  0.00    +0.006 C 
ENDBRANCH  36  38
ENDBRANCH   1  36
TORSDOF 3
