REMARK  Name = ZINC46578707
REMARK  8 active torsions:
REMARK  status: ('A' for Active; 'I' for Inactive)
REMARK    1  A    between atoms: C_1  and  C_2
REMARK    2  A    between atoms: C_2  and  C_3
REMARK    3  A    between atoms: C_3  and  C_5
REMARK    4  A    between atoms: C_3  and  N_19
REMARK    5  A    between atoms: C_5  and  N_6
REMARK    6  A    between atoms: C_7  and  C_9
REMARK    7  A    between atoms: C_12  and  S_15
REMARK    8  A    between atoms: S_15  and  N_18
REMARK                            x       y       z     vdW  Elec       q    Type
REMARK                         _______ _______ _______ _____ _____    ______ ____
ROOT
ATOM      1  N   UNL     1       1.193  -2.526  -2.512  0.00  0.00    -0.313 N 
ATOM      2  C   UNL     1       1.083  -3.824  -2.860  0.00  0.00    +0.244 C 
ATOM      3  O   UNL     1       0.313  -4.550  -2.264  0.00  0.00    -0.270 OA
ATOM      4  H   UNL     1       1.808  -1.947  -2.988  0.00  0.00    +0.149 HD
ENDROOT
BRANCH   2   5
ATOM      5  C   UNL     1       1.900  -4.363  -3.968  0.00  0.00    +0.037 A 
ATOM      6  C   UNL     1       2.791  -3.533  -4.651  0.00  0.00    +0.015 A 
ATOM      7  C   UNL     1       3.550  -4.043  -5.684  0.00  0.00    +0.029 A 
ATOM      8  C   UNL     1       3.431  -5.374  -6.043  0.00  0.00    +0.105 A 
ATOM      9  C   UNL     1       2.550  -6.202  -5.370  0.00  0.00    +0.029 A 
ATOM     10  C   UNL     1       1.789  -5.706  -4.332  0.00  0.00    +0.015 A 
BRANCH   8  11
ATOM     11  S   UNL     1       4.404  -6.017  -7.363  0.00  0.00    +0.056 S 
ATOM     12  O   UNL     1       3.712  -7.154  -7.862  0.00  0.00    -0.153 OA
ATOM     13  O   UNL     1       4.750  -4.913  -8.188  0.00  0.00    -0.153 OA
BRANCH  11  14
ATOM     14  N   UNL     1       5.817  -6.575  -6.703  0.00  0.00    -0.204 NA
ATOM     15  H   UNL     1       6.284  -7.319  -7.115  0.00  0.00    +0.144 HD
ATOM     16  H   UNL     1       6.177  -6.159  -5.904  0.00  0.00    +0.144 HD
ENDBRANCH  11  14
ENDBRANCH   8  11
ENDBRANCH   2   5
BRANCH   1  17
ATOM     17  C   UNL     1       0.384  -1.992  -1.414  0.00  0.00    +0.089 C 
BRANCH  17  18
ATOM     18  C   UNL     1       0.825  -0.559  -1.106  0.00  0.00    -0.051 C 
BRANCH  18  19
ATOM     19  N   UNL     1       2.160  -0.579  -0.494  0.00  0.00    +0.385 N 
ATOM     20  C   UNL     1       3.120  -1.189  -1.427  0.00  0.00    -0.073 C 
ATOM     21  C   UNL     1       4.536  -0.925  -0.912  0.00  0.00    +0.017 C 
ATOM     22  C   UNL     1       4.636  -1.332   0.535  0.00  0.00    -0.048 A 
ATOM     23  C   UNL     1       5.893  -1.501   1.093  0.00  0.00    +0.004 A 
ATOM     24  C   UNL     1       6.024  -1.871   2.417  0.00  0.00    +0.000 A 
ATOM     25  C   UNL     1       4.895  -2.071   3.190  0.00  0.00    +0.000 A 
ATOM     26  C   UNL     1       3.643  -1.904   2.635  0.00  0.00    +0.002 A 
ATOM     27  C   UNL     1       3.509  -1.535   1.304  0.00  0.00    -0.061 A 
ATOM     28  C   UNL     1       2.124  -1.372   0.738  0.00  0.00    -0.042 C 
ATOM     29  H   UNL     1       2.448   0.364  -0.281  0.00  0.00    -0.081 HD
ENDBRANCH  18  19
BRANCH  18  31
ATOM     30  C   UNL     1       0.227   1.540   0.109  0.00  0.00    +0.002 C 
ATOM     31  C   UNL     1      -0.170   0.083  -0.138  0.00  0.00    -0.017 C 
ENDBRANCH  18  31
ENDBRANCH  17  18
ENDBRANCH   1  17
TORSDOF 7
