REMARK  Name = ZINC67538570
REMARK  9 active torsions:
REMARK  status: ('A' for Active; 'I' for Inactive)
REMARK    1  A    between atoms: C_1  and  N_2
REMARK    2  A    between atoms: N_2  and  C_3
REMARK    3  A    between atoms: N_2  and  C_4
REMARK    4  A    between atoms: C_4  and  C_10
REMARK    5  A    between atoms: C_10  and  N_11
REMARK    6  A    between atoms: C_12  and  C_14
REMARK    7  A    between atoms: C_16  and  N_24
REMARK    8  A    between atoms: C_18  and  S_20
REMARK    9  A    between atoms: S_20  and  C_23
REMARK                            x       y       z     vdW  Elec       q    Type
REMARK                         _______ _______ _______ _____ _____    ______ ____
ROOT
ATOM      1  N   UNL     1      -1.430  -0.478  -2.432  0.00  0.00    -0.313 N 
ATOM      2  C   UNL     1      -1.907  -0.152  -3.650  0.00  0.00    +0.244 C 
ATOM      3  O   UNL     1      -2.906   0.534  -3.749  0.00  0.00    -0.270 OA
ATOM      4  H   UNL     1      -0.633  -1.026  -2.354  0.00  0.00    +0.149 HD
ENDROOT
BRANCH   2   5
ATOM      5  C   UNL     1      -1.215  -0.629  -4.867  0.00  0.00    +0.041 A 
ATOM      6  C   UNL     1      -0.071  -1.422  -4.757  0.00  0.00    +0.046 A 
ATOM      7  C   UNL     1       0.570  -1.864  -5.896  0.00  0.00    +0.129 A 
ATOM      8  C   UNL     1       0.081  -1.523  -7.145  0.00  0.00    +0.059 A 
ATOM      9  C   UNL     1      -1.052  -0.737  -7.261  0.00  0.00    +0.091 A 
ATOM     10  C   UNL     1      -1.706  -0.293  -6.129  0.00  0.00    +0.040 A 
BRANCH   9  11
ATOM     11  S   UNL     1      -1.665  -0.308  -8.855  0.00  0.00    -0.006 S 
ATOM     12  O   UNL     1      -2.367   0.912  -8.658  0.00  0.00    -0.170 OA
ATOM     13  O   UNL     1      -0.529  -0.360  -9.707  0.00  0.00    -0.170 OA
ATOM     14  C   UNL     1      -2.826  -1.635  -9.281  0.00  0.00    +0.200 C 
ENDBRANCH   9  11
BRANCH   7  15
ATOM     15  N   UNL     1       1.782  -2.704  -5.782  0.00  0.00    +0.057 N 
ATOM     16  O   UNL     1       2.211  -3.003  -4.691  0.00  0.00    -0.126 OA
ATOM     17  O   UNL     1       2.345  -3.092  -6.779  0.00  0.00    -0.126 OA
ENDBRANCH   7  15
ENDBRANCH   2   5
BRANCH   1  18
ATOM     18  C   UNL     1      -2.116  -0.006  -1.227  0.00  0.00    +0.092 C 
BRANCH  18  19
ATOM     19  C   UNL     1      -1.376  -0.512   0.012  0.00  0.00    -0.050 C 
ATOM     20  C   UNL     1      -2.092  -0.019   1.271  0.00  0.00    -0.010 C 
ATOM     21  C   UNL     1      -3.528  -0.549   1.282  0.00  0.00    -0.001 C 
ATOM     22  C   UNL     1      -3.507  -2.079   1.274  0.00  0.00    -0.000 C 
ATOM     23  C   UNL     1      -2.791  -2.572   0.015  0.00  0.00    -0.001 C 
ATOM     24  C   UNL     1      -1.355  -2.042   0.004  0.00  0.00    -0.010 C 
BRANCH  19  26
ATOM     25  C   UNL     1      -0.018   1.465   0.010  0.00  0.00    -0.096 C 
ATOM     26  N   UNL     1       0.002  -0.004   0.002  0.00  0.00    +0.381 N 
ATOM     27  C   UNL     1       0.713  -0.491   1.192  0.00  0.00    -0.096 C 
ATOM     28  H   UNL     1       0.474  -0.330  -0.828  0.00  0.00    -0.082 HD
ENDBRANCH  19  26
ENDBRANCH  18  19
ENDBRANCH   1  18
TORSDOF 6
