REMARK  Name = ZINC10420684
REMARK  12 active torsions:
REMARK  status: ('A' for Active; 'I' for Inactive)
REMARK    1  A    between atoms: C_1  and  C_2
REMARK    2  A    between atoms: C_3  and  C_7
REMARK    3  A    between atoms: C_10  and  S_13
REMARK    4  A    between atoms: N_11  and  N_12
REMARK    5  A    between atoms: S_13  and  C_14
REMARK    6  A    between atoms: C_14  and  C_15
REMARK    7  A    between atoms: C_15  and  O_17
REMARK    8  A    between atoms: O_17  and  C_18
REMARK    9  A    between atoms: C_21  and  C_30
REMARK   10  A    between atoms: C_25  and  C_27
REMARK   11  A    between atoms: C_27  and  C_28
REMARK   12  A    between atoms: C_27  and  C_29
REMARK                            x       y       z     vdW  Elec       q    Type
REMARK                         _______ _______ _______ _____ _____    ______ ____
ROOT
ATOM      1  S   UNL     1      -6.337  -1.109  -0.437  0.00  0.00    -0.073 S 
ENDROOT
BRANCH   1   5
ATOM      2  C   UNL     1      -2.464  -0.600  -0.511  0.00  0.00    +0.185 A 
ATOM      3  N   UNL     1      -2.914   0.624  -0.366  0.00  0.00    -0.127 NA
ATOM      4  N   UNL     1      -4.198   0.618  -0.324  0.00  0.00    -0.121 NA
ATOM      5  C   UNL     1      -4.647  -0.610  -0.440  0.00  0.00    +0.209 A 
ATOM      6  N   UNL     1      -3.560  -1.428  -0.570  0.00  0.00    -0.224 N 
BRANCH   2   9
ATOM      7  C   UNL     1       0.031   1.294  -0.379  0.00  0.00    +0.087 C 
ATOM      8  C   UNL     1       0.048  -0.204  -0.546  0.00  0.00    +0.112 A 
ATOM      9  C   UNL     1      -1.046  -1.011  -0.602  0.00  0.00    +0.061 A 
ATOM     10  C   UNL     1      -0.527  -2.374  -0.771  0.00  0.00    +0.053 A 
ATOM     11  C   UNL     1       0.811  -2.260  -0.800  0.00  0.00    +0.196 A 
ATOM     12  O   UNL     1       1.144  -0.967  -0.671  0.00  0.00    -0.467 OA
ENDBRANCH   2   9
BRANCH   6  13
ATOM     13  N   UNL     1      -3.562  -2.786  -0.722  0.00  0.00    -0.295 N 
ATOM     14  H   UNL     1      -3.533  -3.250   0.173  0.00  0.00    +0.163 HD
ATOM     15  H   UNL     1      -4.360  -3.088  -1.261  0.00  0.00    +0.163 HD
ENDBRANCH   6  13
ENDBRANCH   1   5
BRANCH   1  16
ATOM     16  C   UNL     1      -7.253   0.444  -0.240  0.00  0.00    +0.197 C 
BRANCH  16  17
ATOM     17  C   UNL     1      -8.733   0.156  -0.221  0.00  0.00    +0.318 C 
ATOM     18  O   UNL     1      -9.128  -0.981  -0.329  0.00  0.00    -0.250 OA
BRANCH  17  19
ATOM     19  O   UNL     1      -9.611   1.162  -0.084  0.00  0.00    -0.460 OA
BRANCH  19  20
ATOM     20  C   UNL     1     -10.997   0.816  -0.075  0.00  0.00    +0.180 C 
ATOM     21  C   UNL     1     -11.540   0.846  -1.505  0.00  0.00    +0.048 C 
ATOM     22  C   UNL     1     -11.369   2.250  -2.086  0.00  0.00    -0.011 C 
ATOM     23  C   UNL     1     -12.139   3.255  -1.228  0.00  0.00    +0.004 C 
ATOM     24  C   UNL     1     -11.596   3.226   0.203  0.00  0.00    +0.007 C 
ATOM     25  C   UNL     1     -11.768   1.821   0.784  0.00  0.00    +0.032 C 
ATOM     26  C   UNL     1      -9.884   2.621  -2.097  0.00  0.00    +0.007 C 
BRANCH  25  27
ATOM     27  C   UNL     1     -11.225   1.791   2.214  0.00  0.00    -0.011 C 
ATOM     28  C   UNL     1     -11.995   2.796   3.073  0.00  0.00    +0.007 C 
ATOM     29  C   UNL     1     -11.396   0.387   2.796  0.00  0.00    +0.007 C 
ENDBRANCH  25  27
ENDBRANCH  19  20
ENDBRANCH  17  19
ENDBRANCH  16  17
ENDBRANCH   1  16
TORSDOF 8
