REMARK  Name = ZINC39980776
REMARK  5 active torsions:
REMARK  status: ('A' for Active; 'I' for Inactive)
REMARK    1  A    between atoms: C_1  and  C_2
REMARK    2  A    between atoms: C_7  and  N_28
REMARK    3  A    between atoms: C_8  and  C_16
REMARK    4  A    between atoms: C_14  and  C_15
REMARK    5  A    between atoms: N_18  and  C_19
REMARK                            x       y       z     vdW  Elec       q    Type
REMARK                         _______ _______ _______ _____ _____    ______ ____
ROOT
ATOM      1  C   UNL     1       0.550   1.524  -0.074  0.00  0.00    +0.044 C 
ATOM      2  C   UNL     1       0.429   0.022  -0.073  0.00  0.00    -0.047 A 
ATOM      3  C   UNL     1       0.500  -0.657  -1.250  0.00  0.00    +0.013 A 
ATOM      4  C   UNL     1       0.388  -2.060  -1.254  0.00  0.00    -0.001 A 
ATOM      5  C   UNL     1       0.459  -2.784  -2.449  0.00  0.00    +0.022 A 
ATOM      6  C   UNL     1       0.342  -4.184  -2.404  0.00  0.00    +0.028 A 
ATOM      7  C   UNL     1       0.386  -5.129  -3.514  0.00  0.00    +0.053 A 
ATOM      8  C   UNL     1       0.249  -6.469  -3.238  0.00  0.00    +0.097 A 
ATOM      9  S   UNL     1       0.056  -6.514  -1.467  0.00  0.00    -0.064 S 
ATOM     10  C   UNL     1       0.158  -4.774  -1.123  0.00  0.00    +0.088 A 
ATOM     11  N   UNL     1       0.095  -4.077  -0.016  0.00  0.00    -0.349 N 
ATOM     12  C   UNL     1       0.202  -2.746  -0.025  0.00  0.00    +0.047 A 
ATOM     13  C   UNL     1       0.134  -2.007   1.170  0.00  0.00    +0.029 A 
ATOM     14  C   UNL     1       0.252  -0.652   1.134  0.00  0.00    -0.046 A 
ATOM     15  C   UNL     1       0.184   0.133   2.419  0.00  0.00    +0.044 C 
ATOM     16  H   UNL     1      -0.033  -4.538   0.828  0.00  0.00    +0.166 HD
ENDROOT
BRANCH   8  17
ATOM     17  C   UNL     1       0.260  -7.556  -4.146  0.00  0.00    +0.257 C 
ATOM     18  O   UNL     1       0.403  -7.353  -5.338  0.00  0.00    -0.269 OA
ATOM     19  N   UNL     1       0.111  -8.816  -3.691  0.00  0.00    -0.276 N 
ATOM     20  H   UNL     1       0.069  -8.985  -2.737  0.00  0.00    +0.155 HD
BRANCH  19  21
ATOM     21  C   UNL     1       0.016  -9.885  -4.599  0.00  0.00    +0.115 A 
ATOM     22  H   UNL     1       1.426 -12.675  -5.415  0.00  0.00    +0.170 HD
ATOM     23  C   UNL     1       0.902 -10.908  -4.552  0.00  0.00    +0.116 A 
ATOM     24  N   UNL     1       0.792 -11.942  -5.447  0.00  0.00    -0.313 N 
ATOM     25  C   UNL     1      -0.187 -11.948  -6.370  0.00  0.00    +0.327 A 
ATOM     26  O   UNL     1      -0.265 -12.875  -7.154  0.00  0.00    -0.247 OA
ATOM     27  N   UNL     1      -1.081 -10.945  -6.440  0.00  0.00    -0.274 N 
ATOM     28  C   UNL     1      -1.015  -9.912  -5.576  0.00  0.00    +0.275 A 
ATOM     29  O   UNL     1      -1.828  -9.007  -5.637  0.00  0.00    -0.266 OA
ATOM     30  H   UNL     1      -1.780 -10.967  -7.113  0.00  0.00    +0.173 HD
ENDBRANCH  19  21
ENDBRANCH   8  17
BRANCH   7  31
ATOM     31  N   UNL     1       0.560  -4.686  -4.817  0.00  0.00    -0.356 N 
ATOM     32  H   UNL     1       0.655  -3.738  -4.999  0.00  0.00    +0.142 HD
ATOM     33  H   UNL     1       0.588  -5.325  -5.546  0.00  0.00    +0.142 HD
ENDBRANCH   7  31
TORSDOF 3
