REMARK  Name = ZINC39666468
REMARK  10 active torsions:
REMARK  status: ('A' for Active; 'I' for Inactive)
REMARK    1  A    between atoms: C_1  and  C_2
REMARK    2  A    between atoms: C_2  and  C_4
REMARK    3  A    between atoms: C_2  and  O_31
REMARK    4  A    between atoms: C_4  and  N_5
REMARK    5  A    between atoms: C_6  and  C_8
REMARK    6  A    between atoms: C_19  and  C_21
REMARK    7  A    between atoms: C_21  and  C_23
REMARK    8  A    between atoms: C_21  and  O_24
REMARK    9  A    between atoms: O_24  and  C_25
REMARK   10  A    between atoms: O_31  and  C_32
REMARK                            x       y       z     vdW  Elec       q    Type
REMARK                         _______ _______ _______ _____ _____    ______ ____
ROOT
ATOM      1  C   UNL     1       0.979  -2.722   2.392  0.00  0.00    +0.100 C 
ATOM      2  C   UNL     1       1.909  -3.288   1.296  0.00  0.00    +0.121 C 
ATOM      3  N   UNL     1       3.213  -3.478   1.974  0.00  0.00    -0.297 N 
ATOM      4  C   UNL     1       2.858  -3.987   3.320  0.00  0.00    +0.115 C 
ATOM      5  C   UNL     1       1.603  -3.186   3.718  0.00  0.00    -0.004 C 
ATOM      6  C   UNL     1       0.626  -4.078   4.478  0.00  0.00    -0.010 C 
ATOM      7  C   UNL     1       1.246  -4.480   5.820  0.00  0.00    -0.082 C 
ATOM      8  N   UNL     1       1.548  -3.274   6.601  0.00  0.00    +0.379 N 
ATOM      9  C   UNL     1       2.559  -2.468   5.906  0.00  0.00    -0.082 C 
ATOM     10  C   UNL     1       1.994  -1.981   4.568  0.00  0.00    -0.010 C 
ATOM     11  C   UNL     1       4.444  -3.243   1.478  0.00  0.00    +0.256 C 
ATOM     12  O   UNL     1       4.570  -2.736   0.383  0.00  0.00    -0.272 OA
ATOM     13  H   UNL     1       0.707  -2.730   6.717  0.00  0.00    -0.086 HD
ATOM     14  H   UNL     1       1.900  -3.543   7.508  0.00  0.00    -0.086 HD
ENDROOT
BRANCH   1  16
ATOM     15  N   UNL     1      -0.097  -0.542   2.850  0.00  0.00    -0.312 N 
ATOM     16  C   UNL     1       0.946  -1.217   2.326  0.00  0.00    +0.218 C 
ATOM     17  O   UNL     1       1.857  -0.613   1.801  0.00  0.00    -0.275 OA
ATOM     18  H   UNL     1      -0.826  -1.025   3.270  0.00  0.00    +0.149 HD
BRANCH  15  19
ATOM     19  C   UNL     1      -0.129   0.921   2.786  0.00  0.00    +0.148 C 
BRANCH  19  21
ATOM     20  C   UNL     1      -1.443   2.961   3.381  0.00  0.00    +0.053 C 
ATOM     21  C   UNL     1      -1.410   1.433   3.448  0.00  0.00    +0.187 C 
BRANCH  21  22
ATOM     22  O   UNL     1      -2.545   0.901   2.763  0.00  0.00    -0.486 OA
BRANCH  22  23
ATOM     23  C   UNL     1      -3.677   0.718   3.493  0.00  0.00    +0.139 A 
ATOM     24  C   UNL     1      -3.725   1.134   4.815  0.00  0.00    +0.047 A 
ATOM     25  C   UNL     1      -4.877   0.948   5.555  0.00  0.00    +0.004 A 
ATOM     26  C   UNL     1      -5.981   0.347   4.979  0.00  0.00    +0.002 A 
ATOM     27  C   UNL     1      -5.937  -0.068   3.661  0.00  0.00    +0.023 A 
ATOM     28  C   UNL     1      -4.789   0.121   2.914  0.00  0.00    +0.083 A 
ATOM     29 CL   UNL     1      -4.735  -0.394   1.258  0.00  0.00    -0.080 Cl
ENDBRANCH  22  23
ENDBRANCH  21  22
ENDBRANCH  19  21
ENDBRANCH  15  19
ENDBRANCH   1  16
BRANCH  11  30
ATOM     30  C   UNL     1       5.664  -3.608   2.284  0.00  0.00    +0.256 C 
ATOM     31  C   UNL     1       5.766  -5.130   2.393  0.00  0.00    +0.062 C 
BRANCH  30  32
ATOM     32  O   UNL     1       6.832  -3.097   1.638  0.00  0.00    -0.480 OA
BRANCH  32  33
ATOM     33  C   UNL     1       7.917  -2.861   2.422  0.00  0.00    +0.122 A 
ATOM     34  C   UNL     1       9.049  -2.268   1.882  0.00  0.00    +0.045 A 
ATOM     35  C   UNL     1      10.150  -2.029   2.680  0.00  0.00    +0.004 A 
ATOM     36  C   UNL     1      10.125  -2.381   4.017  0.00  0.00    +0.000 A 
ATOM     37  C   UNL     1       8.999  -2.973   4.558  0.00  0.00    +0.004 A 
ATOM     38  C   UNL     1       7.892  -3.208   3.765  0.00  0.00    +0.045 A 
ENDBRANCH  32  33
ENDBRANCH  30  32
ENDBRANCH  11  30
TORSDOF 8
