REMARK  Name = ZINC04073277
REMARK  4 active torsions:
REMARK  status: ('A' for Active; 'I' for Inactive)
REMARK    1  A    between atoms: C_4  and  C_13
REMARK    2  A    between atoms: C_11  and  O_12
REMARK    3  A    between atoms: C_13  and  C_14
REMARK    4  A    between atoms: C_19  and  O_27
REMARK                            x       y       z     vdW  Elec       q    Type
REMARK                         _______ _______ _______ _____ _____    ______ ____
ROOT
ATOM      1  C   UNL     1      -0.013   1.086   0.008  0.00  0.00    +0.132 C 
ENDROOT
BRANCH   1   2
ATOM      2  C   UNL     1      -0.742   1.585  -1.213  0.00  0.00    +0.220 C 
ATOM      3  O   UNL     1      -1.736   2.268  -1.088  0.00  0.00    -0.275 OA
ATOM      4  N   UNL     1      -0.288   1.272  -2.443  0.00  0.00    -0.301 N 
ATOM      5  C   UNL     1       0.918   0.451  -2.611  0.00  0.00    +0.110 C 
ATOM      6  C   UNL     1       0.575  -0.740  -3.518  0.00  0.00    +0.054 C 
ATOM      7  C   UNL     1      -0.015  -0.221  -4.832  0.00  0.00    +0.072 C 
ATOM      8  C   UNL     1      -0.335  -1.408  -5.745  0.00  0.00    +0.035 C 
ATOM      9  C   UNL     1      -1.334  -2.331  -5.045  0.00  0.00    +0.003 C 
ATOM     10  C   UNL     1      -2.620  -1.559  -4.745  0.00  0.00    +0.001 C 
ATOM     11  C   UNL     1      -2.302  -0.367  -3.839  0.00  0.00    +0.008 C 
ATOM     12  C   UNL     1      -1.303   0.553  -4.543  0.00  0.00    +0.038 C 
ATOM     13  C   UNL     1      -0.988   1.751  -3.643  0.00  0.00    +0.114 C 
BRANCH   7  14
ATOM     14  O   UNL     1       0.925   0.639  -5.479  0.00  0.00    -0.388 OA
ATOM     15  H   UNL     1       1.767   0.213  -5.692  0.00  0.00    +0.210 HD
ENDBRANCH   7  14
ENDBRANCH   1   2
BRANCH   1  19
ATOM     16  C   UNL     1      -3.374  -1.011   1.744  0.00  0.00    +0.046 A 
ATOM     17  C   UNL     1      -2.314  -0.342   1.203  0.00  0.00    +0.015 A 
ATOM     18  C   UNL     1      -1.857   0.837   1.802  0.00  0.00    +0.021 A 
ATOM     19  C   UNL     1      -0.718   1.572   1.248  0.00  0.00    -0.021 A 
ATOM     20  C   UNL     1      -0.318   2.707   1.879  0.00  0.00    +0.096 A 
ATOM     21  C   UNL     1      -0.995   3.141   3.037  0.00  0.00    +0.337 A 
ATOM     22  O   UNL     1      -0.626   4.160   3.592  0.00  0.00    -0.245 OA
ATOM     23  O   UNL     1      -2.035   2.460   3.543  0.00  0.00    -0.422 OA
ATOM     24  C   UNL     1      -2.482   1.325   2.965  0.00  0.00    +0.143 A 
ATOM     25  C   UNL     1      -3.558   0.633   3.501  0.00  0.00    +0.092 A 
ATOM     26  C   UNL     1      -4.001  -0.530   2.892  0.00  0.00    +0.120 A 
BRANCH  26  27
ATOM     27  O   UNL     1      -5.054  -1.206   3.417  0.00  0.00    -0.507 OA
ATOM     28  H   UNL     1      -5.913  -0.929   3.069  0.00  0.00    +0.292 HD
ENDBRANCH  26  27
ENDBRANCH   1  19
TORSDOF 4
