REMARK  Name = ZINC02255522
REMARK  4 active torsions:
REMARK  status: ('A' for Active; 'I' for Inactive)
REMARK    1  A    between atoms: C_4  and  C_7
REMARK    2  A    between atoms: C_7  and  C_9
REMARK    3  A    between atoms: C_7  and  N_17
REMARK    4  A    between atoms: N_17  and  C_18
REMARK                            x       y       z     vdW  Elec       q    Type
REMARK                         _______ _______ _______ _____ _____    ______ ____
ROOT
ATOM      1  C   UNL     1       2.456   1.054  -0.234  0.00  0.00    +0.111 C 
ENDROOT
BRANCH   1   2
ATOM      2  C   UNL     1       1.274   1.997   0.001  0.00  0.00    +0.080 C 
ATOM      3  C   UNL     1       1.202   3.030  -1.128  0.00  0.00    +0.013 C 
ATOM      4  C   UNL     1      -0.060   3.879  -0.961  0.00  0.00    +0.001 C 
ATOM      5  C   UNL     1      -1.301   2.996  -1.105  0.00  0.00    +0.008 C 
ATOM      6  C   UNL     1      -1.323   1.961   0.019  0.00  0.00    +0.075 C 
ATOM      7  C   UNL     1      -0.014   1.203   0.009  0.00  0.00    +0.138 C 
ATOM      8  O   UNL     1       0.002  -0.004   0.002  0.00  0.00    -0.297 OA
ENDBRANCH   1   2
BRANCH   1  12
ATOM      9  C   UNL     1       2.602  -1.855   2.890  0.00  0.00    +0.000 A 
ATOM     10  C   UNL     1       2.052  -2.183   1.665  0.00  0.00    +0.000 A 
ATOM     11  C   UNL     1       2.005  -1.242   0.654  0.00  0.00    +0.005 A 
ATOM     12  C   UNL     1       2.507   0.028   0.868  0.00  0.00    -0.027 A 
ATOM     13  C   UNL     1       3.062   0.355   2.091  0.00  0.00    +0.005 A 
ATOM     14  C   UNL     1       3.105  -0.585   3.104  0.00  0.00    +0.000 A 
ENDBRANCH   1  12
BRANCH   1  15
ATOM     15  N   UNL     1       3.701   1.826  -0.241  0.00  0.00    -0.336 N 
ATOM     16  H   UNL     1       3.750   2.673   0.229  0.00  0.00    +0.147 HD
BRANCH  15  17
ATOM     17  C   UNL     1       4.819   1.342  -0.926  0.00  0.00    +0.041 A 
ATOM     18  C   UNL     1       4.751   0.130  -1.601  0.00  0.00    +0.024 A 
ATOM     19  C   UNL     1       5.858  -0.345  -2.277  0.00  0.00    +0.002 A 
ATOM     20  C   UNL     1       7.032   0.384  -2.283  0.00  0.00    +0.001 A 
ATOM     21  C   UNL     1       7.104   1.591  -1.613  0.00  0.00    +0.016 A 
ATOM     22  C   UNL     1       5.999   2.076  -0.939  0.00  0.00    +0.034 A 
ATOM     23  I   UNL     1       6.106   3.909   0.069  0.00  0.00    -0.042 I 
ENDBRANCH  15  17
ENDBRANCH   1  15
TORSDOF 4
