REMARK  Name = ZINC40780086
REMARK  3 active torsions:
REMARK  status: ('A' for Active; 'I' for Inactive)
REMARK    1  A    between atoms: C_12  and  N_25
REMARK    2  A    between atoms: C_13  and  N_17
REMARK    3  A    between atoms: N_17  and  C_18
REMARK                            x       y       z     vdW  Elec       q    Type
REMARK                         _______ _______ _______ _____ _____    ______ ____
ROOT
ATOM      1  C   UNL     1       2.138  -0.765   3.911  0.00  0.00    +0.000 A 
ATOM      2  C   UNL     1       3.431  -0.334   3.678  0.00  0.00    +0.002 A 
ATOM      3  C   UNL     1       3.919  -0.288   2.388  0.00  0.00    +0.024 A 
ATOM      4  C   UNL     1       3.111  -0.677   1.324  0.00  0.00    +0.038 A 
ATOM      5  C   UNL     1       1.816  -1.113   1.559  0.00  0.00    -0.026 A 
ATOM      6  C   UNL     1       1.334  -1.153   2.857  0.00  0.00    +0.005 A 
ATOM      7  C   UNL     1       0.917  -1.551   0.434  0.00  0.00    +0.038 C 
ATOM      8  C   UNL     1       1.406  -0.978  -0.896  0.00  0.00    +0.024 C 
ATOM      9  C   UNL     1       2.897  -1.301  -1.058  0.00  0.00    +0.113 C 
ATOM     10  N   UNL     1       3.623  -0.619   0.022  0.00  0.00    -0.283 N 
ATOM     11  C   UNL     1       4.800   0.073  -0.244  0.00  0.00    +0.151 A 
ATOM     12  C   UNL     1       4.760   1.399  -0.677  0.00  0.00    +0.104 A 
ATOM     13  C   UNL     1       5.970   2.047  -0.930  0.00  0.00    +0.126 A 
ATOM     14  N   UNL     1       7.108   1.381  -0.749  0.00  0.00    -0.333 N 
ATOM     15  C   UNL     1       7.102   0.129  -0.339  0.00  0.00    +0.200 A 
ATOM     16  N   UNL     1       5.982  -0.518  -0.085  0.00  0.00    -0.220 NA
ATOM     17  H   UNL     1       7.954   1.823  -0.923  0.00  0.00    +0.168 HD
ENDROOT
BRANCH  12  18
ATOM     18  N   UNL     1       3.535   2.064  -0.854  0.00  0.00    -0.353 N 
ATOM     19  H   UNL     1       2.706   1.627  -0.604  0.00  0.00    +0.143 HD
ATOM     20  H   UNL     1       3.519   2.959  -1.226  0.00  0.00    +0.143 HD
ENDBRANCH  12  18
BRANCH  13  21
ATOM     21  N   UNL     1       5.987   3.368  -1.363  0.00  0.00    -0.298 N 
ATOM     22  H   UNL     1       5.161   3.876  -1.405  0.00  0.00    +0.154 HD
BRANCH  21  23
ATOM     23  C   UNL     1       7.194   3.965  -1.739  0.00  0.00    +0.047 A 
ATOM     24  C   UNL     1       7.733   4.989  -0.971  0.00  0.00    +0.024 A 
ATOM     25  C   UNL     1       8.926   5.576  -1.344  0.00  0.00    +0.002 A 
ATOM     26  C   UNL     1       9.584   5.146  -2.483  0.00  0.00    +0.001 A 
ATOM     27  C   UNL     1       9.050   4.128  -3.251  0.00  0.00    +0.017 A 
ATOM     28  C   UNL     1       7.860   3.532  -2.880  0.00  0.00    +0.039 A 
ATOM     29 BR   UNL     1       7.134   2.134  -3.926  0.00  0.00    -0.048 Br
ENDBRANCH  21  23
ENDBRANCH  13  21
TORSDOF 3
