REMARK  Name = ZINC66975787
REMARK  6 active torsions:
REMARK  status: ('A' for Active; 'I' for Inactive)
REMARK    1  A    between atoms: C_1  and  C_2
REMARK    2  A    between atoms: C_2  and  C_4
REMARK    3  A    between atoms: C_2  and  N_12
REMARK    4  A    between atoms: C_18  and  N_21
REMARK    5  A    between atoms: C_22  and  C_24
REMARK    6  A    between atoms: C_24  and  C_25
REMARK                            x       y       z     vdW  Elec       q    Type
REMARK                         _______ _______ _______ _____ _____    ______ ____
ROOT
ATOM      1  N   UNL     1      -1.306  -0.306  -2.405  0.00  0.00    -0.293 N 
ATOM      2  C   UNL     1       0.006  -0.608  -2.358  0.00  0.00    +0.303 C 
ATOM      3  O   UNL     1       0.642  -0.403  -1.343  0.00  0.00    -0.253 OA
ATOM      4  N   UNL     1       0.614  -1.138  -3.439  0.00  0.00    -0.286 N 
ATOM      5  C   UNL     1       2.014  -1.580  -3.368  0.00  0.00    +0.111 C 
ATOM      6  C   UNL     1       2.096  -3.033  -3.847  0.00  0.00    +0.041 C 
ATOM      7  C   UNL     1       1.471  -3.143  -5.240  0.00  0.00    +0.076 C 
ATOM      8  C   UNL     1      -0.004  -2.740  -5.172  0.00  0.00    +0.041 C 
ATOM      9  C   UNL     1      -0.112  -1.289  -4.707  0.00  0.00    +0.111 C 
ATOM     10  H   UNL     1      -1.797  -0.400  -3.236  0.00  0.00    +0.151 HD
ENDROOT
BRANCH   7  11
ATOM     11  N   UNL     1       1.578  -4.525  -5.714  0.00  0.00    -0.312 N 
ATOM     12  C   UNL     1       1.579  -4.785  -7.037  0.00  0.00    +0.214 C 
ATOM     13  O   UNL     1       1.491  -3.875  -7.834  0.00  0.00    -0.276 OA
ATOM     14  H   UNL     1       1.649  -5.253  -5.077  0.00  0.00    +0.149 HD
BRANCH  12  15
ATOM     15  C   UNL     1       1.689  -6.206  -7.525  0.00  0.00    +0.099 C 
BRANCH  15  16
ATOM     16  C   UNL     1       1.666  -6.223  -9.055  0.00  0.00    -0.002 C 
ATOM     17  C   UNL     1       0.276  -5.795  -9.568  0.00  0.00    +0.004 C 
ATOM     18  C   UNL     1       0.037  -6.689 -10.810  0.00  0.00    +0.000 C 
ATOM     19  C   UNL     1       0.648  -8.045 -10.377  0.00  0.00    +0.000 C 
ATOM     20  C   UNL     1       1.903  -7.654  -9.570  0.00  0.00    +0.004 C 
ENDBRANCH  15  16
ENDBRANCH  12  15
ENDBRANCH   7  11
BRANCH   1  22
ATOM     21  C   UNL     1      -2.449  -1.037  -0.369  0.00  0.00    +0.033 C 
ATOM     22  C   UNL     1      -1.992   0.165  -1.199  0.00  0.00    +0.104 C 
BRANCH  22  23
ATOM     23  C   UNL     1      -3.192   0.988  -1.592  0.00  0.00    +0.008 A 
ATOM     24  C   UNL     1      -3.798   0.784  -2.818  0.00  0.00    +0.011 A 
ATOM     25  C   UNL     1      -4.898   1.537  -3.180  0.00  0.00    +0.039 A 
ATOM     26  C   UNL     1      -5.395   2.499  -2.315  0.00  0.00    +0.126 A 
ATOM     27  C   UNL     1      -4.789   2.704  -1.088  0.00  0.00    +0.077 A 
ATOM     28  C   UNL     1      -3.690   1.944  -0.724  0.00  0.00    +0.131 A 
ATOM     29  F   UNL     1      -3.101   2.140   0.476  0.00  0.00    -0.205 F 
ATOM     30  F   UNL     1      -6.470   3.236  -2.670  0.00  0.00    -0.205 F 
ENDBRANCH  22  23
ENDBRANCH   1  22
TORSDOF 5
