REMARK  Name = ZINC03297745
REMARK  8 active torsions:
REMARK  status: ('A' for Active; 'I' for Inactive)
REMARK    1  A    between atoms: C_7  and  C_30
REMARK    2  A    between atoms: C_8  and  C_10
REMARK    3  A    between atoms: C_10  and  O_12
REMARK    4  A    between atoms: O_12  and  C_13
REMARK    5  A    between atoms: C_13  and  C_14
REMARK    6  A    between atoms: C_17  and  C_19
REMARK    7  A    between atoms: C_30  and  S_31
REMARK    8  A    between atoms: S_31  and  C_32
REMARK                            x       y       z     vdW  Elec       q    Type
REMARK                         _______ _______ _______ _____ _____    ______ ____
ROOT
ATOM      1  C   UNL     1      -9.586   2.402   0.221  0.00  0.00    +0.376 C 
ATOM      2  O   UNL     1      -9.844   1.375   0.819  0.00  0.00    -0.241 OA
ENDROOT
BRANCH   1  10
ATOM      3  C   UNL     1     -14.378   5.715  -1.377  0.00  0.00    +0.001 A 
ATOM      4  C   UNL     1     -13.392   6.539  -1.902  0.00  0.00    +0.004 A 
ATOM      5  C   UNL     1     -12.060   6.203  -1.791  0.00  0.00    +0.047 A 
ATOM      6  C   UNL     1     -11.694   5.028  -1.145  0.00  0.00    +0.136 A 
ATOM      7  C   UNL     1     -12.698   4.196  -0.614  0.00  0.00    +0.025 A 
ATOM      8  C   UNL     1     -14.043   4.554  -0.738  0.00  0.00    +0.012 A 
ATOM      9  C   UNL     1     -11.997   3.060  -0.017  0.00  0.00    +0.022 A 
ATOM     10  C   UNL     1     -10.672   3.288  -0.218  0.00  0.00    +0.217 A 
ATOM     11  O   UNL     1     -10.506   4.449  -0.886  0.00  0.00    -0.448 OA
BRANCH   9  12
ATOM     12  C   UNL     1     -12.617   1.879   0.683  0.00  0.00    +0.109 C 
BRANCH  12  13
ATOM     13  S   UNL     1     -12.785   2.243   2.452  0.00  0.00    -0.153 S 
BRANCH  13  14
ATOM     14  C   UNL     1     -13.537   0.742   3.140  0.00  0.00    +0.047 C 
ATOM     15  C   UNL     1     -14.943   0.565   2.563  0.00  0.00    +0.014 C 
ATOM     16  C   UNL     1     -15.576  -0.700   3.143  0.00  0.00    +0.001 C 
ATOM     17  C   UNL     1     -15.662  -0.576   4.665  0.00  0.00    +0.000 C 
ATOM     18  C   UNL     1     -14.256  -0.399   5.243  0.00  0.00    +0.001 C 
ATOM     19  C   UNL     1     -13.622   0.867   4.662  0.00  0.00    +0.014 C 
ENDBRANCH  13  14
ENDBRANCH  12  13
ENDBRANCH   9  12
ENDBRANCH   1  10
BRANCH   1  20
ATOM     20  O   UNL     1      -8.304   2.728  -0.040  0.00  0.00    -0.450 OA
BRANCH  20  21
ATOM     21  C   UNL     1      -7.282   1.806   0.424  0.00  0.00    +0.328 C 
BRANCH  21  22
ATOM     22  C   UNL     1      -5.922   2.331   0.045  0.00  0.00    +0.257 C 
ATOM     23  O   UNL     1      -5.823   3.380  -0.555  0.00  0.00    -0.272 OA
ATOM     24  N   UNL     1      -4.815   1.636   0.374  0.00  0.00    -0.250 N 
ATOM     25  C   UNL     1      -3.598   2.106   0.036  0.00  0.00    +0.263 C 
ATOM     26  O   UNL     1      -3.499   3.155  -0.565  0.00  0.00    -0.271 OA
ATOM     27  H   UNL     1      -4.895   0.797   0.855  0.00  0.00    +0.158 HD
BRANCH  25  28
ATOM     28  C   UNL     1      -2.361   1.329   0.404  0.00  0.00    +0.296 C 
ATOM     29  C   UNL     1      -2.350  -0.011  -0.344  0.00  0.00    +0.283 C 
ATOM     30  O   UNL     1      -1.158  -0.717   0.017  0.00  0.00    -0.484 OA
ATOM     31  C   UNL     1       0.002  -0.004   0.002  0.00  0.00    +0.162 A 
ATOM     32  C   UNL     1       1.214  -0.677  -0.017  0.00  0.00    +0.049 A 
ATOM     33  C   UNL     1       2.400   0.032  -0.027  0.00  0.00    +0.004 A 
ATOM     34  C   UNL     1       2.382   1.415  -0.017  0.00  0.00    +0.004 A 
ATOM     35  C   UNL     1       1.177   2.091   0.002  0.00  0.00    +0.049 A 
ATOM     36  C   UNL     1      -0.017   1.385   0.010  0.00  0.00    +0.163 A 
ATOM     37  O   UNL     1      -1.195   2.066   0.019  0.00  0.00    -0.473 OA
ENDBRANCH  25  28
ENDBRANCH  21  22
ENDBRANCH  20  21
ENDBRANCH   1  20
TORSDOF 8
