REMARK  Name = ZINC43259460
REMARK  6 active torsions:
REMARK  status: ('A' for Active; 'I' for Inactive)
REMARK    1  A    between atoms: C_1  and  C_2
REMARK    2  A    between atoms: C_2  and  C_4
REMARK    3  A    between atoms: C_2  and  N_21
REMARK    4  A    between atoms: C_4  and  C_6
REMARK    5  A    between atoms: C_4  and  N_12
REMARK    6  A    between atoms: C_16  and  C_18
REMARK                            x       y       z     vdW  Elec       q    Type
REMARK                         _______ _______ _______ _____ _____    ______ ____
ROOT
ATOM      1  C   UNL     1      -0.244  -0.386   1.521  0.00  0.00    -0.013 C 
ENDROOT
BRANCH   1   2
ATOM      2  C   UNL     1      -0.547  -0.383   2.997  0.00  0.00    -0.021 A 
ATOM      3  C   UNL     1      -0.329   0.594   3.911  0.00  0.00    +0.011 A 
ATOM      4  C   UNL     1      -0.691   0.374   5.227  0.00  0.00    +0.023 A 
ATOM      5  C   UNL     1      -1.255  -0.813   5.564  0.00  0.00    +0.055 A 
ATOM      6  S   UNL     1      -1.294  -1.662   3.994  0.00  0.00    -0.088 S 
ATOM      7 BR   UNL     1      -1.852  -1.410   7.256  0.00  0.00    -0.043 Br
ENDBRANCH   1   2
BRANCH   1   8
ATOM      8  N   UNL     1       0.187  -1.729   1.112  0.00  0.00    +0.393 N 
ATOM      9  C   UNL     1       1.290  -2.202   1.988  0.00  0.00    -0.077 C 
ATOM     10  C   UNL     1       1.235  -3.742   1.826  0.00  0.00    -0.020 C 
ATOM     11  C   UNL     1      -0.282  -4.027   1.741  0.00  0.00    -0.008 C 
ATOM     12  C   UNL     1      -0.917  -2.697   1.296  0.00  0.00    +0.020 C 
ATOM     13  H   UNL     1       0.486  -1.721   0.149  0.00  0.00    -0.080 HD
BRANCH  12  14
ATOM     14  C   UNL     1      -1.653  -2.889  -0.004  0.00  0.00    +0.197 C 
ATOM     15  O   UNL     1      -1.046  -2.866  -1.054  0.00  0.00    -0.278 OA
ATOM     16  N   UNL     1      -2.986  -3.086  -0.001  0.00  0.00    -0.331 N 
ATOM     17  H   UNL     1      -3.472  -3.104   0.838  0.00  0.00    +0.145 HD
ATOM     18  H   UNL     1      -3.460  -3.210  -0.839  0.00  0.00    +0.145 HD
ENDBRANCH  12  14
ENDBRANCH   1   8
BRANCH   1  20
ATOM     19  C   UNL     1      -2.000   1.367   1.230  0.00  0.00    +0.022 C 
ATOM     20  C   UNL     1      -1.501   0.006   0.742  0.00  0.00    +0.039 C 
BRANCH  20  21
ATOM     21  N   UNL     1      -1.183   0.086  -0.690  0.00  0.00    -0.329 NA
ATOM     22  H   UNL     1      -0.551   0.850  -0.879  0.00  0.00    +0.118 HD
ATOM     23  H   UNL     1      -0.806  -0.787  -1.026  0.00  0.00    +0.118 HD
ENDBRANCH  20  21
ENDBRANCH   1  20
TORSDOF 5
