REMARK  Name = ZINC38184282
REMARK  4 active torsions:
REMARK  status: ('A' for Active; 'I' for Inactive)
REMARK    1  A    between atoms: C_1  and  O_2
REMARK    2  A    between atoms: O_2  and  C_3
REMARK    3  A    between atoms: C_18  and  N_22
REMARK    4  A    between atoms: C_19  and  C_20
REMARK                            x       y       z     vdW  Elec       q    Type
REMARK                         _______ _______ _______ _____ _____    ______ ____
ROOT
ATOM      1  C   UNL     1       0.008  -0.718  -1.510  0.00  0.00    +0.168 C 
ATOM      2  C   UNL     1       0.615   0.043  -2.469  0.00  0.00    +0.058 C 
ATOM      3  C   UNL     1       1.685  -0.483  -3.206  0.00  0.00    -0.012 C 
ATOM      4  C   UNL     1       2.339   0.337  -4.240  0.00  0.00    +0.004 C 
ATOM      5  C   UNL     1       3.101  -0.265  -5.251  0.00  0.00    +0.034 C 
ATOM      6  C   UNL     1       3.702   0.517  -6.213  0.00  0.00    +0.043 C 
ATOM      7  C   UNL     1       4.525  -0.103  -7.270  0.00  0.00    +0.003 A 
ATOM      8  C   UNL     1       4.376  -1.443  -7.620  0.00  0.00    +0.059 A 
ATOM      9  C   UNL     1       5.168  -1.981  -8.617  0.00  0.00    +0.167 A 
ATOM     10  C   UNL     1       6.112  -1.185  -9.268  0.00  0.00    +0.167 A 
ATOM     11  C   UNL     1       6.258   0.153  -8.919  0.00  0.00    +0.054 A 
ATOM     12  C   UNL     1       5.473   0.691  -7.929  0.00  0.00    -0.033 A 
ATOM     13  C   UNL     1       5.600   2.138  -7.519  0.00  0.00    +0.055 C 
ATOM     14  C   UNL     1       4.186   2.682  -7.261  0.00  0.00    +0.117 C 
ATOM     15  N   UNL     1       3.556   1.882  -6.201  0.00  0.00    -0.287 N 
ATOM     16  C   UNL     1       2.836   2.497  -5.231  0.00  0.00    +0.106 C 
ATOM     17  C   UNL     1       2.205   1.747  -4.234  0.00  0.00    +0.095 C 
ATOM     18  O   UNL     1       6.756  -1.946 -10.199  0.00  0.00    -0.453 OA
ATOM     19  C   UNL     1       6.487  -3.312  -9.831  0.00  0.00    +0.466 C 
ATOM     20  O   UNL     1       5.225  -3.240  -9.142  0.00  0.00    -0.453 OA
ATOM     21  C   UNL     1       2.132  -1.786  -2.960  0.00  0.00    +0.028 C 
ATOM     22  C   UNL     1       1.526  -2.549  -2.003  0.00  0.00    +0.069 C 
ATOM     23  C   UNL     1       0.461  -2.025  -1.260  0.00  0.00    +0.234 C 
ATOM     24  O   UNL     1      -0.128  -2.769  -0.318  0.00  0.00    -0.283 OA
ATOM     25 BR   UNL     1       2.132  -4.309  -1.674  0.00  0.00    -0.046 Br
ENDROOT
BRANCH  16  26
ATOM     26  N   UNL     1       2.721   3.860  -5.230  0.00  0.00    -0.345 N 
ATOM     27  H   UNL     1       3.056   4.375  -5.981  0.00  0.00    +0.144 HD
ATOM     28  H   UNL     1       2.306   4.311  -4.479  0.00  0.00    +0.144 HD
ENDBRANCH  16  26
BRANCH   1  30
ATOM     29  C   UNL     1      -1.438   1.126  -1.100  0.00  0.00    +0.277 C 
ATOM     30  O   UNL     1      -1.031  -0.209  -0.793  0.00  0.00    -0.491 OA
ENDBRANCH   1  30
BRANCH  17  31
ATOM     31  C   UNL     1       1.436   2.397  -3.215  0.00  0.00    +0.103 C 
ATOM     32  N   UNL     1       0.826   2.912  -2.407  0.00  0.00    -0.191 NA
ENDBRANCH  17  31
TORSDOF 3
