REMARK  Name = ZINC20877845
REMARK  7 active torsions:
REMARK  status: ('A' for Active; 'I' for Inactive)
REMARK    1  A    between atoms: C_1  and  C_2
REMARK    2  A    between atoms: C_5  and  C_8
REMARK    3  A    between atoms: C_8  and  O_9
REMARK    4  A    between atoms: O_9  and  C_10
REMARK    5  A    between atoms: C_19  and  C_20
REMARK    6  A    between atoms: C_20  and  N_21
REMARK    7  A    between atoms: N_21  and  C_22
REMARK                            x       y       z     vdW  Elec       q    Type
REMARK                         _______ _______ _______ _____ _____    ______ ____
ROOT
ATOM      1  C   UNL     1       1.067   5.942   0.023  0.00  0.00    +0.126 A 
ATOM      2  C   UNL     1       2.292   5.268   0.007  0.00  0.00    +0.046 A 
ATOM      3  C   UNL     1       2.342   3.909   0.000  0.00  0.00    +0.012 A 
ATOM      4  C   UNL     1       1.148   3.167   0.008  0.00  0.00    -0.017 A 
ATOM      5  C   UNL     1       1.163   1.762   0.000  0.00  0.00    +0.008 A 
ATOM      6  C   UNL     1      -0.013   1.076   0.008  0.00  0.00    +0.001 A 
ATOM      7  C   UNL     1      -1.235   1.746   0.018  0.00  0.00    +0.001 A 
ATOM      8  C   UNL     1      -1.288   3.105   0.031  0.00  0.00    +0.009 A 
ATOM      9  C   UNL     1      -0.095   3.849   0.024  0.00  0.00    -0.010 A 
ATOM     10  C   UNL     1      -0.112   5.253   0.031  0.00  0.00    +0.019 A 
ENDROOT
BRANCH   1  11
ATOM     11  O   UNL     1       1.050   7.301   0.030  0.00  0.00    -0.487 OA
BRANCH  11  12
ATOM     12  C   UNL     1       2.315   7.966   0.021  0.00  0.00    +0.264 C 
BRANCH  12  17
ATOM     13  C   UNL     1       1.485  13.685   0.058  0.00  0.00    +0.044 C 
ATOM     14  C   UNL     1       1.702  12.193   0.049  0.00  0.00    -0.050 A 
ATOM     15  C   UNL     1       1.812  11.503   1.241  0.00  0.00    +0.004 A 
ATOM     16  C   UNL     1       2.010  10.135   1.232  0.00  0.00    +0.007 A 
ATOM     17  C   UNL     1       2.098   9.457   0.031  0.00  0.00    -0.010 A 
ATOM     18  C   UNL     1       1.993  10.148  -1.162  0.00  0.00    +0.007 A 
ATOM     19  C   UNL     1       1.790  11.515  -1.153  0.00  0.00    +0.004 A 
ENDBRANCH  12  17
ENDBRANCH  11  12
ENDBRANCH   1  11
BRANCH  10  20
ATOM     20  C   UNL     1      -1.423   5.995   0.047  0.00  0.00    +0.141 C 
BRANCH  20  21
ATOM     21  N   UNL     1      -1.861   6.243  -1.329  0.00  0.00    -0.340 N 
ATOM     22  H   UNL     1      -1.247   5.896  -2.172  0.00  0.00    +0.146 HD
BRANCH  21  23
ATOM     23  C   UNL     1      -3.061   6.922  -1.569  0.00  0.00    +0.029 A 
ATOM     24  C   UNL     1      -3.836   7.361  -0.501  0.00  0.00    +0.025 A 
ATOM     25  C   UNL     1      -5.021   8.031  -0.732  0.00  0.00    +0.029 A 
ATOM     26  C   UNL     1      -5.440   8.268  -2.032  0.00  0.00    +0.067 A 
ATOM     27  C   UNL     1      -4.664   7.829  -3.107  0.00  0.00    +0.069 A 
ATOM     28  C   UNL     1      -3.472   7.161  -2.872  0.00  0.00    +0.050 A 
ATOM     29  N   UNL     1      -5.333   8.207  -4.268  0.00  0.00    -0.306 N 
ATOM     30  H   UNL     1      -4.906   7.965  -5.253  0.00  0.00    +0.170 HD
ATOM     31  C   UNL     1      -6.464   8.847  -3.918  0.00  0.00    +0.325 A 
ATOM     32  O   UNL     1      -7.278   9.308  -4.696  0.00  0.00    -0.247 OA
ATOM     33  N   UNL     1      -6.558   8.901  -2.576  0.00  0.00    -0.306 N 
ATOM     34  H   UNL     1      -7.322   9.333  -1.913  0.00  0.00    +0.170 HD
ENDBRANCH  21  23
ENDBRANCH  20  21
ENDBRANCH  10  20
TORSDOF 6
