REMARK  Name = ZINC00028069
REMARK  8 active torsions:
REMARK  status: ('A' for Active; 'I' for Inactive)
REMARK    1  A    between atoms: C_1  and  C_2
REMARK    2  A    between atoms: C_2  and  O_3
REMARK    3  A    between atoms: O_3  and  C_4
REMARK    4  A    between atoms: C_4  and  C_6
REMARK    5  A    between atoms: C_6  and  C_26
REMARK    6  A    between atoms: C_7  and  C_20
REMARK    7  A    between atoms: C_15  and  C_18
REMARK    8  A    between atoms: C_16  and  N_17
REMARK                            x       y       z     vdW  Elec       q    Type
REMARK                         _______ _______ _______ _____ _____    ______ ____
ROOT
ATOM      1  C   UNL     1      -0.099   0.637   4.975  0.00  0.00    +0.202 C 
ATOM      2  C   UNL     1      -0.623   1.509   6.112  0.00  0.00    +0.082 C 
ATOM      3  C   UNL     1      -2.091   1.226   6.361  0.00  0.00    -0.055 C 
ATOM      4  C   UNL     1      -2.551  -0.006   6.247  0.00  0.00    -0.029 C 
ATOM      5  C   UNL     1      -3.992  -0.376   6.487  0.00  0.00    +0.036 C 
ATOM      6  C   UNL     1      -4.714   0.724   7.262  0.00  0.00    +0.005 C 
ATOM      7  C   UNL     1      -4.439   2.059   6.557  0.00  0.00    +0.005 C 
ATOM      8  C   UNL     1      -2.962   2.397   6.742  0.00  0.00    +0.032 C 
ATOM      9  C   UNL     1      -1.626  -1.099   5.856  0.00  0.00    +0.073 C 
ATOM     10  C   UNL     1      -0.442  -0.805   5.255  0.00  0.00    +0.051 C 
ENDROOT
BRANCH   2  11
ATOM     11  C   UNL     1       0.160   1.216   7.366  0.00  0.00    -0.038 A 
ATOM     12  C   UNL     1      -0.117   0.081   8.104  0.00  0.00    +0.004 A 
ATOM     13  C   UNL     1       0.604  -0.190   9.252  0.00  0.00    +0.000 A 
ATOM     14  C   UNL     1       1.596   0.679   9.667  0.00  0.00    +0.000 A 
ATOM     15  C   UNL     1       1.869   1.817   8.932  0.00  0.00    +0.000 A 
ATOM     16  C   UNL     1       1.151   2.086   7.782  0.00  0.00    +0.004 A 
ENDBRANCH   2  11
BRANCH  10  17
ATOM     17  N   UNL     1       0.425  -1.803   4.910  0.00  0.00    -0.359 N 
ATOM     18  H   UNL     1       0.168  -2.852   5.118  0.00  0.00    +0.142 HD
ATOM     19  H   UNL     1       1.381  -1.557   4.424  0.00  0.00    +0.142 HD
ENDBRANCH  10  17
BRANCH   1  20
ATOM     20  C   UNL     1      -0.738   1.063   3.679  0.00  0.00    +0.334 C 
ATOM     21  O   UNL     1      -1.531   1.975   3.667  0.00  0.00    -0.249 OA
BRANCH  20  22
ATOM     22  O   UNL     1      -0.426   0.431   2.537  0.00  0.00    -0.464 OA
BRANCH  22  24
ATOM     23  C   UNL     1      -0.603   0.059   0.136  0.00  0.00    +0.048 C 
ATOM     24  C   UNL     1      -1.080   0.895   1.326  0.00  0.00    +0.229 C 
ENDBRANCH  22  24
ENDBRANCH  20  22
ENDBRANCH   1  20
BRANCH   9  25
ATOM     25  C   UNL     1      -1.980  -2.463   6.110  0.00  0.00    +0.101 C 
ATOM     26  N   UNL     1      -2.261  -3.545   6.312  0.00  0.00    -0.191 NA
ENDBRANCH   9  25
BRANCH   1  27
ATOM     27  C   UNL     1       1.362   0.784   4.875  0.00  0.00    +0.088 C 
ATOM     28  N   UNL     1       2.490   0.898   4.798  0.00  0.00    -0.195 NA
ENDBRANCH   1  27
TORSDOF 7
