REMARK  Name = ZINC01139533
REMARK  10 active torsions:
REMARK  status: ('A' for Active; 'I' for Inactive)
REMARK    1  A    between atoms: C_1  and  C_2
REMARK    2  A    between atoms: C_2  and  O_3
REMARK    3  A    between atoms: O_3  and  C_4
REMARK    4  A    between atoms: C_6  and  C_20
REMARK    5  A    between atoms: C_9  and  O_10
REMARK    6  A    between atoms: O_10  and  C_11
REMARK    7  A    between atoms: C_11  and  C_12
REMARK    8  A    between atoms: C_23  and  C_34
REMARK    9  A    between atoms: C_29  and  N_33
REMARK   10  A    between atoms: C_30  and  C_31
REMARK                            x       y       z     vdW  Elec       q    Type
REMARK                         _______ _______ _______ _____ _____    ______ ____
ROOT
ATOM      1  C   UNL     1      -1.498  -1.849   0.006  0.00  0.00    +0.163 A 
ATOM      2  C   UNL     1      -0.389  -2.680  -0.003  0.00  0.00    +0.054 A 
ATOM      3  C   UNL     1      -0.553  -4.052  -0.009  0.00  0.00    -0.030 A 
ATOM      4  C   UNL     1      -1.822  -4.600  -0.006  0.00  0.00    +0.023 A 
ATOM      5  C   UNL     1      -2.934  -3.777   0.003  0.00  0.00    +0.063 A 
ATOM      6  C   UNL     1      -2.776  -2.400   0.016  0.00  0.00    +0.176 A 
ATOM      7 BR   UNL     1      -4.668  -4.531   0.006  0.00  0.00    -0.046 Br
ENDROOT
BRANCH   3   8
ATOM      8  C   UNL     1       0.655  -4.954  -0.020  0.00  0.00    +0.101 C 
ATOM      9  C   UNL     1       0.625  -5.830  -1.245  0.00  0.00    +0.049 A 
ATOM     10  C   UNL     1       0.852  -5.494  -2.573  0.00  0.00    +0.068 A 
ATOM     11  N   UNL     1       0.718  -6.579  -3.297  0.00  0.00    -0.176 NA
ATOM     12  N   UNL     1       0.398  -7.646  -2.442  0.00  0.00    -0.246 N 
ATOM     13  H   UNL     1       0.243  -8.565  -2.710  0.00  0.00    +0.192 HD
ATOM     14  C   UNL     1       0.347  -7.167  -1.189  0.00  0.00    +0.222 A 
ATOM     15  O   UNL     1       0.079  -7.811  -0.025  0.00  0.00    -0.423 OA
ATOM     16  C   UNL     1       0.359  -7.165   1.125  0.00  0.00    +0.200 C 
ATOM     17  C   UNL     1       0.637  -5.844   1.198  0.00  0.00    +0.098 C 
ATOM     18  C   UNL     1       1.194  -4.120  -3.091  0.00  0.00    +0.068 C 
BRANCH  16  19
ATOM     19  N   UNL     1       0.362  -7.891   2.290  0.00  0.00    -0.328 N 
ATOM     20  H   UNL     1       0.166  -8.841   2.270  0.00  0.00    +0.145 HD
ATOM     21  H   UNL     1       0.559  -7.454   3.133  0.00  0.00    +0.145 HD
ENDBRANCH  16  19
BRANCH  17  22
ATOM     22  C   UNL     1       0.924  -5.268   2.477  0.00  0.00    +0.101 C 
ATOM     23  N   UNL     1       1.152  -4.811   3.492  0.00  0.00    -0.191 NA
ENDBRANCH  17  22
ENDBRANCH   3   8
BRANCH   1  24
ATOM     24  O   UNL     1      -1.339  -0.499   0.012  0.00  0.00    -0.489 OA
BRANCH  24  26
ATOM     25  C   UNL     1      -0.019   1.526   0.010  0.00  0.00    +0.048 C 
ATOM     26  C   UNL     1       0.002  -0.004   0.002  0.00  0.00    +0.226 C 
ENDBRANCH  24  26
ENDBRANCH   1  24
BRANCH   6  27
ATOM     27  O   UNL     1      -3.868  -1.589   0.030  0.00  0.00    -0.483 OA
BRANCH  27  28
ATOM     28  C   UNL     1      -4.401  -1.195  -1.236  0.00  0.00    +0.267 C 
BRANCH  28  29
ATOM     29  C   UNL     1      -5.598  -0.305  -1.022  0.00  0.00    +0.025 A 
ATOM     30  C   UNL     1      -6.007   0.008   0.261  0.00  0.00    +0.010 A 
ATOM     31  C   UNL     1      -7.105   0.824   0.457  0.00  0.00    +0.001 A 
ATOM     32  C   UNL     1      -7.796   1.328  -0.629  0.00  0.00    +0.003 A 
ATOM     33  C   UNL     1      -7.389   1.017  -1.913  0.00  0.00    +0.039 A 
ATOM     34  C   UNL     1      -6.286   0.203  -2.110  0.00  0.00    +0.130 A 
ATOM     35  F   UNL     1      -5.884  -0.098  -3.365  0.00  0.00    -0.205 F 
ENDBRANCH  28  29
ENDBRANCH  27  28
ENDBRANCH   6  27
TORSDOF 8
