REMARK  Name = ZINC50704176
REMARK  2 active torsions:
REMARK  status: ('A' for Active; 'I' for Inactive)
REMARK    1  A    between atoms: C_3  and  N_16
REMARK    2  A    between atoms: C_6  and  C_7
REMARK                            x       y       z     vdW  Elec       q    Type
REMARK                         _______ _______ _______ _____ _____    ______ ____
ROOT
ATOM      1  C   UNL     1      -1.266  -0.763   0.010  0.00  0.00    +0.270 C 
ATOM      2  O   UNL     1      -2.328  -0.171   0.023  0.00  0.00    -0.268 OA
ATOM      3  N   UNL     1      -1.246  -2.110   0.003  0.00  0.00    -0.259 N 
ATOM      4  C   UNL     1      -2.438  -2.823   0.010  0.00  0.00    +0.166 A 
ATOM      5  N   UNL     1      -3.668  -2.358   0.019  0.00  0.00    -0.232 NA
ATOM      6  C   UNL     1      -4.707  -3.174   0.025  0.00  0.00    +0.136 A 
ATOM      7  C   UNL     1      -4.444  -4.505   0.023  0.00  0.00    +0.076 A 
ATOM      8  S   UNL     1      -2.659  -4.492   0.003  0.00  0.00    -0.045 S 
ATOM      9 BR   UNL     1      -5.639  -5.970   0.031  0.00  0.00    -0.041 Br
ATOM     10  H   UNL     1      -0.399  -2.582  -0.008  0.00  0.00    +0.157 HD
ENDROOT
BRANCH   1  16
ATOM     11  C   UNL     1      -0.017   1.396   0.010  0.00  0.00    +0.038 A 
ATOM     12  C   UNL     1       1.195   2.062   0.002  0.00  0.00    +0.047 A 
ATOM     13  C   UNL     1       2.363   1.298  -0.013  0.00  0.00    +0.139 A 
ATOM     14  N   UNL     1       2.287  -0.029  -0.020  0.00  0.00    -0.134 NA
ATOM     15  N   UNL     1       1.163  -0.648  -0.013  0.00  0.00    -0.143 NA
ATOM     16  C   UNL     1       0.002  -0.004   0.002  0.00  0.00    +0.148 A 
BRANCH  13  17
ATOM     17  N   UNL     1       3.600   1.922  -0.022  0.00  0.00    -0.342 N 
ATOM     18  H   UNL     1       3.655   2.890  -0.018  0.00  0.00    +0.144 HD
ATOM     19  H   UNL     1       4.411   1.390  -0.033  0.00  0.00    +0.144 HD
ENDBRANCH  13  17
ENDBRANCH   1  16
TORSDOF 2
