REMARK  Name = ZINC39515334
REMARK  7 active torsions:
REMARK  status: ('A' for Active; 'I' for Inactive)
REMARK    1  A    between atoms: N_4  and  C_7
REMARK    2  A    between atoms: C_7  and  C_8
REMARK    3  A    between atoms: C_8  and  N_9
REMARK    4  A    between atoms: C_10  and  C_12
REMARK    5  A    between atoms: C_16  and  C_19
REMARK    6  A    between atoms: N_24  and  C_25
REMARK    7  A    between atoms: C_25  and  C_26
REMARK                            x       y       z     vdW  Elec       q    Type
REMARK                         _______ _______ _______ _____ _____    ______ ____
ROOT
ATOM      1  C   UNL     1       4.654  -4.395  -4.662  0.00  0.00    +0.155 C 
ATOM      2  C   UNL     1       6.130  -4.398  -4.300  0.00  0.00    -0.007 C 
ATOM      3  C   UNL     1       6.817  -5.467  -4.513  0.00  0.00    -0.017 C 
ATOM      4  C   UNL     1       6.120  -6.674  -5.117  0.00  0.00    +0.056 C 
ATOM      5  S   UNL     1       4.349  -6.201  -4.889  0.00  0.00    -0.138 S 
ENDROOT
BRANCH   4   6
ATOM      6  C   UNL     1       6.465  -6.827  -6.599  0.00  0.00    -0.051 C 
ATOM      7  C   UNL     1       5.839  -5.670  -7.406  0.00  0.00    -0.016 C 
ATOM      8  C   UNL     1       5.380  -6.365  -8.715  0.00  0.00    -0.020 C 
ATOM      9  C   UNL     1       4.929  -7.751  -8.191  0.00  0.00    -0.078 C 
ATOM     10  N   UNL     1       5.896  -8.084  -7.120  0.00  0.00    +0.385 N 
ATOM     11  H   UNL     1       6.635  -8.662  -7.493  0.00  0.00    -0.081 HD
BRANCH  10  12
ATOM     12  C   UNL     1       5.210  -8.801  -6.037  0.00  0.00    -0.027 C 
BRANCH  12  13
ATOM     13  C   UNL     1       4.769 -10.178  -6.537  0.00  0.00    +0.204 C 
ATOM     14  N   UNL     1       5.926 -10.928  -7.043  0.00  0.00    -0.266 NA
ATOM     15  C   UNL     1       5.705 -11.176  -8.290  0.00  0.00    +0.126 C 
ATOM     16  C   UNL     1       4.404 -10.615  -8.687  0.00  0.00    +0.126 C 
ATOM     17  N   UNL     1       3.852 -10.034  -7.676  0.00  0.00    -0.266 NA
ENDBRANCH  12  13
ENDBRANCH  10  12
ENDBRANCH   4   6
BRANCH   1  19
ATOM     18  N   UNL     1       3.558  -2.519  -3.479  0.00  0.00    -0.316 N 
ATOM     19  C   UNL     1       3.820  -3.840  -3.537  0.00  0.00    +0.230 C 
ATOM     20  O   UNL     1       3.383  -4.582  -2.683  0.00  0.00    -0.274 OA
ATOM     21  H   UNL     1       3.908  -1.925  -4.162  0.00  0.00    +0.149 HD
BRANCH  18  22
ATOM     22  C   UNL     1       2.747  -1.979  -2.385  0.00  0.00    +0.086 C 
BRANCH  22  23
ATOM     23  C   UNL     1       2.603  -0.466  -2.556  0.00  0.00    -0.060 C 
BRANCH  23  27
ATOM     24  C   UNL     1      -0.455   1.562  -0.390  0.00  0.00    -0.004 C 
ATOM     25  C   UNL     1       0.973   2.113  -0.370  0.00  0.00    -0.019 C 
ATOM     26  C   UNL     1       1.752   1.540  -1.556  0.00  0.00    -0.079 C 
ATOM     27  N   UNL     1       1.790   0.075  -1.459  0.00  0.00    +0.381 N 
ATOM     28  C   UNL     1       0.428  -0.465  -1.549  0.00  0.00    -0.079 C 
ATOM     29  C   UNL     1      -0.402   0.031  -0.363  0.00  0.00    -0.019 C 
ATOM     30  H   UNL     1       2.199  -0.192  -0.576  0.00  0.00    -0.082 HD
ENDBRANCH  23  27
ENDBRANCH  22  23
ENDBRANCH  18  22
ENDBRANCH   1  19
TORSDOF 7
