REMARK  Name = ZINC22531429
REMARK  6 active torsions:
REMARK  status: ('A' for Active; 'I' for Inactive)
REMARK    1  A    between atoms: C_1  and  N_2
REMARK    2  A    between atoms: C_3  and  C_5
REMARK    3  A    between atoms: N_15  and  S_16
REMARK    4  A    between atoms: S_16  and  C_19
REMARK    5  A    between atoms: N_21  and  C_28
REMARK    6  A    between atoms: N_24  and  C_27
REMARK                            x       y       z     vdW  Elec       q    Type
REMARK                         _______ _______ _______ _____ _____    ______ ____
ROOT
ATOM      1  C   UNL     1       2.519   0.892  -0.097  0.00  0.00    +0.170 C 
ATOM      2  C   UNL     1       2.661  -0.041  -1.299  0.00  0.00    +0.065 C 
ATOM      3  C   UNL     1       4.085  -0.506  -1.451  0.00  0.00    -0.041 A 
ATOM      4  C   UNL     1       4.311  -1.650  -2.208  0.00  0.00    +0.004 A 
ATOM      5  C   UNL     1       5.593  -2.117  -2.408  0.00  0.00    +0.000 A 
ATOM      6  C   UNL     1       6.665  -1.444  -1.850  0.00  0.00    +0.000 A 
ATOM      7  C   UNL     1       6.443  -0.312  -1.093  0.00  0.00    +0.005 A 
ATOM      8  C   UNL     1       5.152   0.157  -0.888  0.00  0.00    -0.028 A 
ATOM      9  C   UNL     1       4.979   1.393  -0.042  0.00  0.00    +0.145 C 
ATOM     10  N   UNL     1       3.603   1.887  -0.165  0.00  0.00    -0.160 NA
ENDROOT
BRANCH   1  13
ATOM     11  C   UNL     1      -0.996   2.106   0.809  0.00  0.00    +0.128 C 
ATOM     12  N   UNL     1       0.304   1.433   0.861  0.00  0.00    -0.317 N 
ATOM     13  C   UNL     1       1.184   1.590  -0.148  0.00  0.00    +0.232 C 
ATOM     14  O   UNL     1       0.902   2.292  -1.096  0.00  0.00    -0.274 OA
ATOM     15  H   UNL     1       0.562   0.801   1.723  0.00  0.00    +0.148 HD
ENDBRANCH   1  13
BRANCH  10  16
ATOM     16  S   UNL     1       3.282   3.498  -0.372  0.00  0.00    +0.068 S 
ATOM     17  O   UNL     1       2.039   3.750   0.268  0.00  0.00    -0.153 OA
ATOM     18  O   UNL     1       4.471   4.196  -0.029  0.00  0.00    -0.153 OA
BRANCH  16  19
ATOM     19  C   UNL     1       3.024   3.760  -2.095  0.00  0.00    +0.186 A 
ATOM     20  C   UNL     1       1.823   4.177  -2.551  0.00  0.00    +0.124 A 
ATOM     21  N   UNL     1       1.639   4.376  -3.892  0.00  0.00    -0.301 N 
ATOM     22  C   UNL     1       2.644   4.160  -4.761  0.00  0.00    +0.332 A 
ATOM     23  O   UNL     1       2.459   4.343  -5.949  0.00  0.00    -0.246 OA
ATOM     24  N   UNL     1       3.851   3.745  -4.334  0.00  0.00    -0.262 N 
ATOM     25  C   UNL     1       4.074   3.543  -3.019  0.00  0.00    +0.283 A 
ATOM     26  O   UNL     1       5.167   3.172  -2.631  0.00  0.00    -0.265 OA
ATOM     27  C   UNL     1       4.928   3.517  -5.300  0.00  0.00    +0.157 C 
ATOM     28  C   UNL     1       0.337   4.827  -4.387  0.00  0.00    +0.153 C 
ENDBRANCH  16  19
ENDBRANCH  10  16
TORSDOF 3
