REMARK  Name = ZINC38971314
REMARK  4 active torsions:
REMARK  status: ('A' for Active; 'I' for Inactive)
REMARK    1  A    between atoms: N_7  and  S_8
REMARK    2  A    between atoms: S_8  and  C_11
REMARK    3  A    between atoms: C_19  and  N_24
REMARK    4  A    between atoms: N_24  and  C_25
REMARK                            x       y       z     vdW  Elec       q    Type
REMARK                         _______ _______ _______ _____ _____    ______ ____
ROOT
ATOM      1  C   UNL     1      -0.322   1.090   0.248  0.00  0.00    +0.002 A 
ATOM      2  C   UNL     1       0.787   1.947   0.142  0.00  0.00    +0.002 A 
ATOM      3  C   UNL     1       2.053   1.492   0.023  0.00  0.00    +0.030 A 
ATOM      4  C   UNL     1       2.315   0.099  -0.001  0.00  0.00    +0.089 A 
ATOM      5  N   UNL     1       3.551  -0.339  -0.116  0.00  0.00    -0.226 NA
ATOM      6  C   UNL     1       3.834  -1.651  -0.142  0.00  0.00    +0.192 C 
ATOM      7  N   UNL     1       5.063  -2.059  -0.257  0.00  0.00    -0.110 NA
ATOM      8  C   UNL     1       2.702  -2.648  -0.035  0.00  0.00    +0.237 C 
ATOM      9  N   UNL     1       1.334  -2.122   0.093  0.00  0.00    -0.359 N 
ATOM     10  C   UNL     1       1.163  -0.830   0.109  0.00  0.00    +0.063 A 
ATOM     11  C   UNL     1      -0.184  -0.254   0.236  0.00  0.00    +0.027 A 
ATOM     12  H   UNL     1       0.576  -2.724   0.165  0.00  0.00    +0.162 HD
ENDROOT
BRANCH   7  13
ATOM     13  S   UNL     1       6.294  -0.958  -0.373  0.00  0.00    +0.102 S 
ATOM     14  O   UNL     1       6.115  -0.277  -1.607  0.00  0.00    -0.146 OA
ATOM     15  O   UNL     1       6.347  -0.275   0.873  0.00  0.00    -0.146 OA
BRANCH  13  16
ATOM     16  C   UNL     1       7.796  -1.867  -0.513  0.00  0.00    +0.132 A 
ATOM     17  C   UNL     1       8.547  -1.787  -1.670  0.00  0.00    +0.050 A 
ATOM     18  C   UNL     1       9.727  -2.501  -1.780  0.00  0.00    +0.043 A 
ATOM     19  C   UNL     1      10.155  -3.296  -0.732  0.00  0.00    +0.021 A 
ATOM     20  C   UNL     1       9.404  -3.376   0.426  0.00  0.00    +0.023 A 
ATOM     21  C   UNL     1       8.227  -2.657   0.538  0.00  0.00    +0.068 A 
ATOM     22 CL   UNL     1       7.288  -2.752   1.994  0.00  0.00    -0.082 Cl
ATOM     23 CL   UNL     1      10.670  -2.401  -3.234  0.00  0.00    -0.083 Cl
ENDBRANCH  13  16
ENDBRANCH   7  13
BRANCH   8  24
ATOM     24  N   UNL     1       2.743  -3.501  -1.225  0.00  0.00    -0.316 N 
ATOM     25  H   UNL     1       2.889  -3.106  -2.099  0.00  0.00    +0.148 HD
BRANCH  24  26
ATOM     26  C   UNL     1       2.571  -4.883  -1.102  0.00  0.00    +0.065 A 
ATOM     27  C   UNL     1       2.236  -5.435   0.127  0.00  0.00    +0.026 A 
ATOM     28  C   UNL     1       2.066  -6.801   0.246  0.00  0.00    +0.002 A 
ATOM     29  C   UNL     1       2.230  -7.619  -0.856  0.00  0.00    +0.003 A 
ATOM     30  C   UNL     1       2.564  -7.074  -2.083  0.00  0.00    +0.040 A 
ATOM     31  C   UNL     1       2.729  -5.707  -2.211  0.00  0.00    +0.144 A 
ATOM     32  F   UNL     1       3.050  -5.174  -3.410  0.00  0.00    -0.204 F 
ENDBRANCH  24  26
ENDBRANCH   8  24
TORSDOF 4
