REMARK  Name = ZINC27016454
REMARK  10 active torsions:
REMARK  status: ('A' for Active; 'I' for Inactive)
REMARK    1  A    between atoms: C_1  and  C_2
REMARK    2  A    between atoms: C_9  and  N_26
REMARK    3  A    between atoms: C_10  and  C_13
REMARK    4  A    between atoms: N_17  and  C_21
REMARK    5  A    between atoms: C_21  and  C_22
REMARK    6  A    between atoms: C_22  and  C_23
REMARK    7  A    between atoms: C_23  and  O_24
REMARK    8  A    between atoms: O_24  and  C_25
REMARK    9  A    between atoms: C_28  and  C_35
REMARK   10  A    between atoms: C_31  and  C_34
REMARK                            x       y       z     vdW  Elec       q    Type
REMARK                         _______ _______ _______ _____ _____    ______ ____
ROOT
ATOM      1  C   UNL     1       0.890   1.393   0.044  0.00  0.00    +0.047 C 
ATOM      2  C   UNL     1       0.564  -0.078   0.012  0.00  0.00    -0.007 A 
ATOM      3  C   UNL     1       0.545  -0.751  -1.173  0.00  0.00    +0.008 A 
ATOM      4  C   UNL     1       0.240  -2.119  -1.187  0.00  0.00    +0.019 A 
ATOM      5  C   UNL     1      -0.033  -2.764  -0.031  0.00  0.00    +0.096 A 
ATOM      6  N   UNL     1      -0.017  -2.100   1.160  0.00  0.00    -0.267 N 
ATOM      7  C   UNL     1       0.283  -0.767   1.206  0.00  0.00    +0.145 A 
ATOM      8  N   UNL     1       0.310  -0.102   2.361  0.00  0.00    -0.213 NA
ATOM      9  C   UNL     1       0.054  -0.701   3.514  0.00  0.00    +0.136 A 
ATOM     10  C   UNL     1      -0.257  -2.081   3.530  0.00  0.00    +0.081 A 
ATOM     11  C   UNL     1      -0.294  -2.775   2.296  0.00  0.00    +0.267 A 
ATOM     12  O   UNL     1      -0.557  -3.965   2.262  0.00  0.00    -0.267 OA
ENDROOT
BRANCH  10  13
ATOM     13  C   UNL     1      -0.535  -2.748   4.745  0.00  0.00    +0.037 C 
ATOM     14  C   UNL     1       0.310  -3.719   5.200  0.00  0.00    +0.077 C 
ATOM     15  C   UNL     1       1.572  -4.134   4.687  0.00  0.00    +0.258 C 
ATOM     16  O   UNL     1       2.053  -3.604   3.701  0.00  0.00    -0.269 OA
ATOM     17  N   UNL     1       2.207  -5.111   5.311  0.00  0.00    -0.255 N 
ATOM     18  C   UNL     1       1.674  -5.699   6.405  0.00  0.00    +0.121 C 
ATOM     19  S   UNL     1       2.313  -6.967   7.362  0.00  0.00    -0.027 S 
ATOM     20  S   UNL     1       0.136  -4.811   6.604  0.00  0.00    -0.061 S 
BRANCH  17  21
ATOM     21  C   UNL     1       3.508  -5.562   4.811  0.00  0.00    +0.117 C 
BRANCH  21  22
ATOM     22  C   UNL     1       4.621  -4.751   5.478  0.00  0.00    +0.047 C 
BRANCH  22  23
ATOM     23  C   UNL     1       5.979  -5.223   4.955  0.00  0.00    +0.161 C 
BRANCH  23  24
ATOM     24  O   UNL     1       7.019  -4.465   5.579  0.00  0.00    -0.383 OA
ATOM     25  C   UNL     1       8.335  -4.829   5.158  0.00  0.00    +0.193 C 
ENDBRANCH  23  24
ENDBRANCH  22  23
ENDBRANCH  21  22
ENDBRANCH  17  21
ENDBRANCH  10  13
BRANCH   9  26
ATOM     26  N   UNL     1       0.090   0.015   4.691  0.00  0.00    -0.310 N 
ATOM     27  C   UNL     1      -0.442   1.385   4.761  0.00  0.00    +0.138 C 
ATOM     28  C   UNL     1       0.621   2.285   5.401  0.00  0.00    +0.133 C 
ATOM     29  O   UNL     1       1.046   1.706   6.636  0.00  0.00    -0.371 OA
ATOM     30  C   UNL     1       1.671   0.427   6.499  0.00  0.00    +0.133 C 
ATOM     31  C   UNL     1       0.656  -0.570   5.917  0.00  0.00    +0.138 C 
ATOM     32  C   UNL     1       2.139  -0.063   7.870  0.00  0.00    +0.039 C 
ATOM     33  C   UNL     1       0.028   3.671   5.662  0.00  0.00    +0.039 C 
ENDBRANCH   9  26
TORSDOF 6
