REMARK  Name = ZINC00709405
REMARK  3 active torsions:
REMARK  status: ('A' for Active; 'I' for Inactive)
REMARK    1  A    between atoms: C_8  and  C_26
REMARK    2  A    between atoms: C_14  and  C_19
REMARK    3  A    between atoms: C_31  and  N_32
REMARK                            x       y       z     vdW  Elec       q    Type
REMARK                         _______ _______ _______ _____ _____    ______ ____
ROOT
ATOM      1  C   UNL     1       6.869   1.338   2.484  0.00  0.00    +0.002 A 
ATOM      2  C   UNL     1       6.619   2.112   1.366  0.00  0.00    +0.002 A 
ATOM      3  C   UNL     1       5.317   2.407   0.997  0.00  0.00    +0.025 A 
ATOM      4  C   UNL     1       4.270   1.920   1.759  0.00  0.00    +0.052 A 
ATOM      5  C   UNL     1       4.517   1.113   2.859  0.00  0.00    +0.049 A 
ATOM      6  C   UNL     1       5.821   0.833   3.235  0.00  0.00    +0.025 A 
ATOM      7  N   UNL     1       3.430   0.590   3.558  0.00  0.00    -0.331 N 
ATOM      8  C   UNL     1       2.522  -0.350   2.935  0.00  0.00    +0.138 C 
ATOM      9  C   UNL     1       1.738   0.214   1.774  0.00  0.00    +0.036 C 
ATOM     10  C   UNL     1       1.970   1.387   1.162  0.00  0.00    +0.017 C 
ATOM     11  N   UNL     1       2.946   2.265   1.507  0.00  0.00    -0.316 N 
ATOM     12  C   UNL     1       1.123   1.814  -0.026  0.00  0.00    +0.059 C 
ATOM     13  C   UNL     1      -0.303   1.292   0.139  0.00  0.00    +0.032 C 
ATOM     14  C   UNL     1      -0.234  -0.237   0.216  0.00  0.00    +0.088 C 
ATOM     15  C   UNL     1       0.679  -0.619   1.342  0.00  0.00    +0.163 C 
ATOM     16  O   UNL     1       0.504  -1.683   1.903  0.00  0.00    -0.292 OA
ATOM     17  H   UNL     1       3.279   0.862   4.477  0.00  0.00    +0.147 HD
ATOM     18  H   UNL     1       2.703   3.201   1.584  0.00  0.00    +0.152 HD
ENDROOT
BRANCH   8  19
ATOM     19  C   UNL     1       3.320  -1.531   2.444  0.00  0.00    +0.011 A 
ATOM     20  C   UNL     1       3.517  -1.714   1.088  0.00  0.00    +0.057 A 
ATOM     21  C   UNL     1       4.250  -2.798   0.634  0.00  0.00    +0.167 A 
ATOM     22  C   UNL     1       4.788  -3.702   1.548  0.00  0.00    +0.168 A 
ATOM     23  C   UNL     1       4.586  -3.512   2.905  0.00  0.00    +0.082 A 
ATOM     24  C   UNL     1       3.857  -2.425   3.351  0.00  0.00    +0.135 A 
ATOM     25  O   UNL     1       5.459  -4.671   0.859  0.00  0.00    -0.453 OA
ATOM     26  C   UNL     1       4.984  -4.578  -0.497  0.00  0.00    +0.466 C 
ATOM     27  O   UNL     1       4.586  -3.200  -0.626  0.00  0.00    -0.453 OA
BRANCH  24  28
ATOM     28  N   UNL     1       3.648  -2.221   4.802  0.00  0.00    +0.057 N 
ATOM     29  O   UNL     1       4.202  -2.950   5.605  0.00  0.00    -0.126 OA
ATOM     30  O   UNL     1       2.923  -1.324   5.192  0.00  0.00    -0.126 OA
ENDBRANCH  24  28
ENDBRANCH   8  19
BRANCH  13  31
ATOM     31  C   UNL     1      -1.139   1.707  -1.044  0.00  0.00    -0.043 A 
ATOM     32  C   UNL     1      -0.761   1.335  -2.321  0.00  0.00    +0.005 A 
ATOM     33  C   UNL     1      -1.530   1.710  -3.407  0.00  0.00    +0.020 A 
ATOM     34  C   UNL     1      -2.672   2.468  -3.216  0.00  0.00    +0.041 A 
ATOM     35  C   UNL     1      -3.046   2.845  -1.939  0.00  0.00    +0.020 A 
ATOM     36  C   UNL     1      -2.280   2.464  -0.854  0.00  0.00    +0.005 A 
ATOM     37 CL   UNL     1      -3.635   2.945  -4.580  0.00  0.00    -0.084 Cl
ENDBRANCH  13  31
TORSDOF 3
