REMARK  Name = ZINC00999397
REMARK  7 active torsions:
REMARK  status: ('A' for Active; 'I' for Inactive)
REMARK    1  A    between atoms: C_1  and  C_2
REMARK    2  A    between atoms: C_2  and  C_4
REMARK    3  A    between atoms: C_2  and  O_34
REMARK    4  A    between atoms: C_7  and  N_10
REMARK    5  A    between atoms: C_11  and  C_13
REMARK    6  A    between atoms: C_18  and  C_29
REMARK    7  A    between atoms: C_21  and  C_24
REMARK                            x       y       z     vdW  Elec       q    Type
REMARK                         _______ _______ _______ _____ _____    ______ ____
ROOT
ATOM      1  C   UNL     1      -7.346  -2.701  -1.117  0.00  0.00    +0.167 A 
ATOM      2  C   UNL     1      -8.101  -3.074  -2.252  0.00  0.00    +0.112 A 
ATOM      3  C   UNL     1      -9.346  -3.373  -1.832  0.00  0.00    +0.137 A 
ATOM      4  N   UNL     1      -9.392  -3.198  -0.478  0.00  0.00    -0.237 N 
ATOM      5  N   UNL     1      -8.130  -2.784  -0.056  0.00  0.00    -0.163 NA
ATOM      6  C   UNL     1     -10.593  -3.426   0.331  0.00  0.00    +0.215 C 
ATOM      7  C   UNL     1     -11.821  -3.398  -0.586  0.00  0.00    +0.063 C 
ATOM      8  C   UNL     1     -11.595  -4.318  -1.791  0.00  0.00    +0.111 C 
ATOM      9  N   UNL     1     -10.456  -3.796  -2.572  0.00  0.00    -0.321 N 
ATOM     10 CL   UNL     1      -7.529  -3.134  -3.890  0.00  0.00    -0.078 Cl
ATOM     11  H   UNL     1     -10.476  -3.750  -3.541  0.00  0.00    +0.148 HD
ENDROOT
BRANCH   8  12
ATOM     12  C   UNL     1     -11.288  -5.713  -1.312  0.00  0.00    +0.010 A 
ATOM     13  C   UNL     1     -12.109  -6.789  -1.235  0.00  0.00    +0.013 A 
ATOM     14  C   UNL     1     -11.604  -7.985  -0.758  0.00  0.00    +0.008 A 
ATOM     15  C   UNL     1     -10.304  -8.046  -0.382  0.00  0.00    +0.045 A 
ATOM     16  S   UNL     1      -9.747  -6.381  -0.705  0.00  0.00    -0.100 S 
ENDBRANCH   8  12
BRANCH   1  18
ATOM     17  N   UNL     1      -5.320  -1.968   0.042  0.00  0.00    -0.280 N 
ATOM     18  C   UNL     1      -5.926  -2.295  -1.116  0.00  0.00    +0.270 C 
ATOM     19  O   UNL     1      -5.304  -2.256  -2.160  0.00  0.00    -0.268 OA
ATOM     20  H   UNL     1      -5.792  -2.072   0.883  0.00  0.00    +0.155 HD
BRANCH  17  24
ATOM     21  C   UNL     1      -1.419  -0.507   0.012  0.00  0.00    -0.019 A 
ATOM     22  C   UNL     1      -2.273  -0.213  -1.035  0.00  0.00    +0.008 A 
ATOM     23  C   UNL     1      -3.567  -0.696  -1.028  0.00  0.00    +0.023 A 
ATOM     24  C   UNL     1      -4.010  -1.478   0.032  0.00  0.00    +0.034 A 
ATOM     25  C   UNL     1      -3.148  -1.771   1.081  0.00  0.00    +0.023 A 
ATOM     26  C   UNL     1      -1.854  -1.289   1.066  0.00  0.00    +0.008 A 
BRANCH  21  28
ATOM     27  C   UNL     1       0.857  -0.853  -0.910  0.00  0.00    +0.043 C 
ATOM     28  C   UNL     1      -0.007   0.021   0.001  0.00  0.00    +0.141 C 
BRANCH  28  29
ATOM     29  O   UNL     1      -0.005   1.365  -0.487  0.00  0.00    -0.387 OA
ATOM     30  H   UNL     1       0.872   1.769  -0.521  0.00  0.00    +0.210 HD
ENDBRANCH  28  29
ENDBRANCH  21  28
ENDBRANCH  17  24
ENDBRANCH   1  18
BRANCH   6  31
ATOM     31  C   UNL     1     -10.715  -2.327   1.388  0.00  0.00    +0.412 C 
ATOM     32  F   UNL     1     -10.808  -1.081   0.758  0.00  0.00    -0.168 F 
ATOM     33  F   UNL     1     -11.862  -2.546   2.159  0.00  0.00    -0.168 F 
ATOM     34  F   UNL     1      -9.586  -2.348   2.215  0.00  0.00    -0.168 F 
ENDBRANCH   6  31
TORSDOF 6
