REMARK  Name = ZINC28227284
REMARK  4 active torsions:
REMARK  status: ('A' for Active; 'I' for Inactive)
REMARK    1  A    between atoms: C_5  and  O_7
REMARK    2  A    between atoms: O_7  and  C_8
REMARK    3  A    between atoms: C_8  and  C_9
REMARK    4  A    between atoms: C_12  and  C_14
REMARK                            x       y       z     vdW  Elec       q    Type
REMARK                         _______ _______ _______ _____ _____    ______ ____
ROOT
ATOM      1  C   UNL     1      -2.513   1.419   0.020  0.00  0.00    +0.282 C 
ATOM      2  O   UNL     1      -2.765   0.236  -0.114  0.00  0.00    -0.267 OA
ATOM      3  N   UNL     1      -3.515   2.314   0.131  0.00  0.00    -0.292 N 
ATOM      4  C   UNL     1      -3.239   3.758   0.146  0.00  0.00    +0.127 C 
ATOM      5  C   UNL     1      -4.140   4.432  -0.901  0.00  0.00    +0.125 C 
ATOM      6  N   UNL     1      -5.539   4.065  -0.644  0.00  0.00    -0.314 N 
ATOM      7  C   UNL     1      -5.748   2.619  -0.799  0.00  0.00    +0.125 C 
ATOM      8  C   UNL     1      -4.913   1.871   0.246  0.00  0.00    +0.127 C 
ATOM      9  C   UNL     1      -6.402   4.783  -1.464  0.00  0.00    +0.099 A 
ATOM     10  C   UNL     1      -6.358   6.174  -1.461  0.00  0.00    +0.042 A 
ATOM     11  C   UNL     1      -7.222   6.876  -2.281  0.00  0.00    +0.005 A 
ATOM     12  C   UNL     1      -8.104   6.161  -3.082  0.00  0.00    +0.018 A 
ATOM     13  C   UNL     1      -8.093   4.782  -3.035  0.00  0.00    +0.084 A 
ATOM     14  N   UNL     1      -7.254   4.138  -2.245  0.00  0.00    -0.350 N 
ATOM     15  H   UNL     1      -7.274   3.038  -2.247  0.00  0.00    +0.166 HD
ENDROOT
BRANCH   1  19
ATOM     16  C   UNL     1       0.639   3.166   0.286  0.00  0.00    +0.143 A 
ATOM     17  C   UNL     1       1.101   1.938  -0.037  0.00  0.00    +0.049 A 
ATOM     18  C   UNL     1      -0.017   1.100  -0.180  0.00  0.00    +0.055 A 
ATOM     19  C   UNL     1      -1.118   1.871   0.062  0.00  0.00    +0.190 A 
ATOM     20  O   UNL     1      -0.698   3.121   0.348  0.00  0.00    -0.452 OA
BRANCH  16  21
ATOM     21  C   UNL     1       1.489   4.385   0.536  0.00  0.00    +0.303 C 
BRANCH  21  22
ATOM     22  O   UNL     1       1.687   5.088  -0.692  0.00  0.00    -0.483 OA
BRANCH  22  27
ATOM     23  C   UNL     1       3.735   7.796   0.615  0.00  0.00    +0.004 A 
ATOM     24  C   UNL     1       3.966   8.524  -0.538  0.00  0.00    +0.002 A 
ATOM     25  C   UNL     1       3.434   8.103  -1.742  0.00  0.00    +0.023 A 
ATOM     26  C   UNL     1       2.670   6.952  -1.797  0.00  0.00    +0.083 A 
ATOM     27  C   UNL     1       2.438   6.220  -0.641  0.00  0.00    +0.139 A 
ATOM     28  C   UNL     1       2.967   6.648   0.567  0.00  0.00    +0.047 A 
ATOM     29 CL   UNL     1       2.002   6.424  -3.310  0.00  0.00    -0.080 Cl
ENDBRANCH  22  27
ENDBRANCH  21  22
ENDBRANCH  16  21
ENDBRANCH   1  19
TORSDOF 4
