REMARK  Name = ZINC03196304
REMARK  11 active torsions:
REMARK  status: ('A' for Active; 'I' for Inactive)
REMARK    1  A    between atoms: C_1  and  C_2
REMARK    2  A    between atoms: C_4  and  N_13
REMARK    3  A    between atoms: N_5  and  C_7
REMARK    4  A    between atoms: N_13  and  P_14
REMARK    5  A    between atoms: C_17  and  C_40
REMARK    6  A    between atoms: N_19  and  C_36
REMARK    7  A    between atoms: C_25  and  C_34
REMARK    8  A    between atoms: C_25  and  C_35
REMARK    9  A    between atoms: N_32  and  C_33
REMARK   10  A    between atoms: C_36  and  C_37
REMARK   11  A    between atoms: C_37  and  C_38
REMARK                            x       y       z     vdW  Elec       q    Type
REMARK                         _______ _______ _______ _____ _____    ______ ____
ROOT
ATOM      1  P   UNL     1       0.159  -3.149  -3.311  0.00  0.00    +0.074 P 
ATOM      2  S   UNL     1       1.551  -2.441  -4.328  0.00  0.00    -0.036 S 
ATOM      3  C   UNL     1      -1.385  -2.241  -3.692  0.00  0.00    +0.069 A 
ATOM      4  C   UNL     1      -1.821  -0.945  -3.613  0.00  0.00    +0.072 A 
ATOM      5  N   UNL     1      -3.062  -0.905  -4.042  0.00  0.00    -0.174 NA
ATOM      6  N   UNL     1      -3.456  -2.197  -4.412  0.00  0.00    -0.245 N 
ATOM      7  C   UNL     1      -2.405  -3.049  -4.196  0.00  0.00    +0.161 A 
ATOM      8  N   UNL     1      -2.247  -4.368  -4.376  0.00  0.00    -0.235 NA
ATOM      9  C   UNL     1      -1.324  -5.242  -4.208  0.00  0.00    +0.125 C 
ATOM     10  C   UNL     1      -0.021  -4.946  -3.697  0.00  0.00    +0.039 C 
ATOM     11  C   UNL     1       0.954  -5.864  -3.519  0.00  0.00    +0.032 C 
ATOM     12  C   UNL     1       0.942  -7.298  -4.003  0.00  0.00    +0.031 C 
ATOM     13  C   UNL     1       2.265  -7.859  -3.534  0.00  0.00    -0.015 A 
ATOM     14  C   UNL     1       2.847  -9.101  -3.659  0.00  0.00    +0.006 A 
ATOM     15  C   UNL     1       4.098  -9.336  -3.117  0.00  0.00    +0.000 A 
ATOM     16  C   UNL     1       4.761  -8.321  -2.450  0.00  0.00    +0.002 A 
ATOM     17  C   UNL     1       4.181  -7.076  -2.323  0.00  0.00    +0.024 A 
ATOM     18  C   UNL     1       2.920  -6.832  -2.867  0.00  0.00    +0.038 A 
ATOM     19  N   UNL     1       2.144  -5.675  -2.872  0.00  0.00    -0.305 N 
ATOM     20  C   UNL     1       2.552  -4.409  -2.256  0.00  0.00    +0.135 C 
ATOM     21  C   UNL     1       0.850  -7.348  -5.529  0.00  0.00    +0.022 C 
ATOM     22  C   UNL     1      -0.220  -8.067  -3.370  0.00  0.00    +0.022 C 
ATOM     23  C   UNL     1      -1.018   0.231  -3.119  0.00  0.00    +0.068 C 
ENDROOT
BRANCH   1  24
ATOM     24  N   UNL     1       0.510  -2.971  -1.719  0.00  0.00    -0.297 N 
ATOM     25  H   UNL     1       1.311  -2.495  -1.449  0.00  0.00    +0.153 HD
BRANCH  24  29
ATOM     26  C   UNL     1      -3.203  -5.488   0.464  0.00  0.00    +0.065 C 
ATOM     27  C   UNL     1      -1.990  -4.620   0.251  0.00  0.00    +0.033 A 
ATOM     28  C   UNL     1      -1.412  -4.313  -0.985  0.00  0.00    +0.066 A 
ATOM     29  C   UNL     1      -0.341  -3.504  -0.755  0.00  0.00    +0.124 A 
ATOM     30  N   UNL     1      -0.255  -3.313   0.589  0.00  0.00    -0.241 N 
ATOM     31  N   UNL     1      -1.304  -4.020   1.190  0.00  0.00    -0.296 N 
ATOM     32  H   UNL     1      -1.490  -4.060   2.141  0.00  0.00    +0.187 HD
BRANCH  30  33
ATOM     33  C   UNL     1       0.709  -2.543   1.254  0.00  0.00    +0.065 A 
ATOM     34  C   UNL     1       2.048  -2.646   0.900  0.00  0.00    +0.028 A 
ATOM     35  C   UNL     1       2.995  -1.885   1.556  0.00  0.00    +0.002 A 
ATOM     36  C   UNL     1       2.612  -1.021   2.565  0.00  0.00    +0.000 A 
ATOM     37  C   UNL     1       1.280  -0.916   2.921  0.00  0.00    +0.002 A 
ATOM     38  C   UNL     1       0.327  -1.670   2.264  0.00  0.00    +0.028 A 
ENDBRANCH  30  33
ENDBRANCH  24  29
ENDBRANCH   1  24
BRANCH   6  39
ATOM     39  C   UNL     1      -4.769  -2.574  -4.942  0.00  0.00    +0.160 C 
BRANCH  39  40
ATOM     40  C   UNL     1      -4.754  -2.466  -6.468  0.00  0.00    +0.142 C 
BRANCH  40  41
ATOM     41  C   UNL     1      -6.073  -2.844  -7.000  0.00  0.00    +0.064 C 
ATOM     42  N   UNL     1      -7.091  -3.137  -7.411  0.00  0.00    -0.197 NA
ENDBRANCH  40  41
ENDBRANCH  39  40
ENDBRANCH   6  39
TORSDOF 6
