REMARK  Name = ZINC43528024
REMARK  9 active torsions:
REMARK  status: ('A' for Active; 'I' for Inactive)
REMARK    1  A    between atoms: C_1  and  C_2
REMARK    2  A    between atoms: C_4  and  C_34
REMARK    3  A    between atoms: C_6  and  C_8
REMARK    4  A    between atoms: C_17  and  C_19
REMARK    5  A    between atoms: C_19  and  N_20
REMARK    6  A    between atoms: N_20  and  S_21
REMARK    7  A    between atoms: S_21  and  C_24
REMARK    8  A    between atoms: C_27  and  N_30
REMARK    9  A    between atoms: C_31  and  C_33
REMARK                            x       y       z     vdW  Elec       q    Type
REMARK                         _______ _______ _______ _____ _____    ______ ____
ROOT
ATOM      1  C   UNL     1       0.849  -2.676   2.143  0.00  0.00    +0.024 C 
ATOM      2  C   UNL     1      -0.120  -3.861   2.130  0.00  0.00    -0.068 C 
ATOM      3  N   UNL     1       0.592  -5.095   2.470  0.00  0.00    +0.383 N 
ATOM      4  C   UNL     1       1.639  -5.374   1.484  0.00  0.00    -0.078 C 
ATOM      5  C   UNL     1       2.666  -4.239   1.475  0.00  0.00    -0.015 C 
ATOM      6  C   UNL     1       2.249  -3.182   2.511  0.00  0.00    -0.007 C 
ATOM      7  C   UNL     1       2.174  -3.858   3.886  0.00  0.00    -0.010 C 
ATOM      8  C   UNL     1       1.161  -5.007   3.817  0.00  0.00    -0.053 C 
ATOM      9  H   UNL     1      -0.066  -5.859   2.451  0.00  0.00    -0.081 HD
ENDROOT
BRANCH   1  15
ATOM     10  C   UNL     1       1.244   1.339  -0.620  0.00  0.00    +0.088 C 
ATOM     11  C   UNL     1       1.069  -0.155  -0.533  0.00  0.00    +0.127 A 
ATOM     12  N   UNL     1       0.954  -0.850  -1.645  0.00  0.00    -0.229 NA
ATOM     13  C   UNL     1       0.799  -2.175  -1.605  0.00  0.00    +0.110 A 
ATOM     14  C   UNL     1       0.759  -2.814  -0.359  0.00  0.00    +0.055 A 
ATOM     15  C   UNL     1       0.885  -2.038   0.778  0.00  0.00    +0.047 A 
ATOM     16  N   UNL     1       1.041  -0.728   0.653  0.00  0.00    -0.237 NA
BRANCH  13  17
ATOM     17  C   UNL     1       0.669  -2.953  -2.852  0.00  0.00    +0.153 A 
ATOM     18  C   UNL     1       0.697  -2.448  -4.116  0.00  0.00    +0.051 A 
ATOM     19  C   UNL     1       0.540  -3.538  -4.992  0.00  0.00    +0.042 A 
ATOM     20  C   UNL     1       0.426  -4.645  -4.229  0.00  0.00    +0.196 A 
ATOM     21  O   UNL     1       0.509  -4.288  -2.938  0.00  0.00    -0.461 OA
ENDBRANCH  13  17
ENDBRANCH   1  15
BRANCH   8  22
ATOM     22  C   UNL     1       1.862  -6.324   4.158  0.00  0.00    +0.090 C 
BRANCH  22  23
ATOM     23  N   UNL     1       0.922  -7.435   3.991  0.00  0.00    -0.191 NA
ATOM     24  H   UNL     1      -0.029  -7.259   3.918  0.00  0.00    +0.148 HD
BRANCH  23  25
ATOM     25  S   UNL     1       1.484  -8.991   3.926  0.00  0.00    +0.058 S 
ATOM     26  O   UNL     1       0.344  -9.829   3.788  0.00  0.00    -0.153 OA
ATOM     27  O   UNL     1       2.552  -8.999   2.989  0.00  0.00    -0.153 OA
BRANCH  25  28
ATOM     28  C   UNL     1       2.190  -9.357   5.498  0.00  0.00    +0.105 A 
ATOM     29  C   UNL     1       3.528  -9.095   5.732  0.00  0.00    +0.030 A 
ATOM     30  C   UNL     1       4.084  -9.380   6.963  0.00  0.00    +0.025 A 
ATOM     31  C   UNL     1       3.299  -9.929   7.968  0.00  0.00    +0.033 A 
ATOM     32  C   UNL     1       1.956 -10.191   7.731  0.00  0.00    +0.025 A 
ATOM     33  C   UNL     1       1.404  -9.899   6.499  0.00  0.00    +0.030 A 
BRANCH  31  34
ATOM     34  N   UNL     1       3.860 -10.220   9.216  0.00  0.00    -0.286 N 
ATOM     35  C   UNL     1       4.844  -9.443   9.710  0.00  0.00    +0.214 C 
ATOM     36  O   UNL     1       5.178  -8.438   9.119  0.00  0.00    -0.276 OA
ATOM     37  C   UNL     1       5.530  -9.822  10.998  0.00  0.00    +0.109 C 
ATOM     38  H   UNL     1       3.541 -10.981   9.726  0.00  0.00    +0.155 HD
ENDBRANCH  31  34
ENDBRANCH  25  28
ENDBRANCH  23  25
ENDBRANCH  22  23
ENDBRANCH   8  22
TORSDOF 7
