REMARK  Name = ZINC34779116
REMARK  10 active torsions:
REMARK  status: ('A' for Active; 'I' for Inactive)
REMARK    1  A    between atoms: C_1  and  C_2
REMARK    2  A    between atoms: C_2  and  N_3
REMARK    3  A    between atoms: N_3  and  C_4
REMARK    4  A    between atoms: C_4  and  C_5
REMARK    5  A    between atoms: C_6  and  C_8
REMARK    6  A    between atoms: C_8  and  N_9
REMARK    7  A    between atoms: C_13  and  C_31
REMARK    8  A    between atoms: C_14  and  C_28
REMARK    9  A    between atoms: N_17  and  C_20
REMARK   10  A    between atoms: C_20  and  C_21
REMARK                            x       y       z     vdW  Elec       q    Type
REMARK                         _______ _______ _______ _____ _____    ______ ____
ROOT
ATOM      1  N   UNL     1      -2.156  -0.832   3.604  0.00  0.00    -0.251 N 
ATOM      2  C   UNL     1      -2.961   0.119   4.110  0.00  0.00    +0.266 A 
ATOM      3  O   UNL     1      -2.956   1.242   3.644  0.00  0.00    -0.267 OA
ATOM      4  C   UNL     1      -3.856  -0.220   5.245  0.00  0.00    +0.074 A 
ATOM      5  C   UNL     1      -4.762   0.607   5.916  0.00  0.00    -0.015 A 
ATOM      6  C   UNL     1      -5.479   0.039   6.946  0.00  0.00    +0.106 A 
ATOM      7  S   UNL     1      -4.876  -1.638   6.962  0.00  0.00    -0.063 S 
ATOM      8  C   UNL     1      -3.780  -1.544   5.704  0.00  0.00    +0.098 A 
ATOM      9  N   UNL     1      -2.930  -2.443   5.125  0.00  0.00    -0.283 N 
ATOM     10  C   UNL     1      -2.144  -2.083   4.094  0.00  0.00    +0.334 A 
ATOM     11  O   UNL     1      -1.402  -2.907   3.597  0.00  0.00    -0.246 OA
ATOM     12  C   UNL     1      -4.947   2.052   5.530  0.00  0.00    +0.046 C 
ENDROOT
BRANCH   6  13
ATOM     13  C   UNL     1      -6.452   0.637   7.784  0.00  0.00    +0.393 C 
ATOM     14  O   UNL     1      -6.749   1.816   7.632  0.00  0.00    -0.240 OA
ATOM     15  O   UNL     1      -6.996  -0.024   8.660  0.00  0.00    -0.240 OA
ENDBRANCH   6  13
BRANCH   1  16
ATOM     16  C   UNL     1      -1.274  -0.497   2.484  0.00  0.00    +0.225 C 
BRANCH  16  18
ATOM     17  N   UNL     1      -1.372  -0.511   0.012  0.00  0.00    -0.301 N 
ATOM     18  C   UNL     1      -1.993  -0.751   1.184  0.00  0.00    +0.236 C 
ATOM     19  O   UNL     1      -3.131  -1.171   1.193  0.00  0.00    -0.274 OA
BRANCH  17  21
ATOM     20  C   UNL     1      -0.019   1.526   0.010  0.00  0.00    +0.024 C 
ATOM     21  C   UNL     1       0.002  -0.004   0.002  0.00  0.00    +0.104 C 
ENDBRANCH  17  21
BRANCH  17  22
ATOM     22  C   UNL     1      -2.072  -0.758  -1.251  0.00  0.00    +0.104 C 
ATOM     23  C   UNL     1      -1.816  -2.197  -1.703  0.00  0.00    +0.024 C 
ENDBRANCH  17  22
ENDBRANCH  16  18
ENDBRANCH   1  16
BRANCH   9  24
ATOM     24  C   UNL     1      -2.877  -3.817   5.630  0.00  0.00    +0.162 C 
BRANCH  24  25
ATOM     25  C   UNL     1      -3.878  -4.664   4.888  0.00  0.00    -0.027 A 
ATOM     26  C   UNL     1      -5.172  -4.779   5.362  0.00  0.00    +0.007 A 
ATOM     27  C   UNL     1      -6.091  -5.555   4.682  0.00  0.00    +0.020 A 
ATOM     28  C   UNL     1      -5.716  -6.217   3.526  0.00  0.00    +0.041 A 
ATOM     29  C   UNL     1      -4.422  -6.101   3.051  0.00  0.00    +0.020 A 
ATOM     30  C   UNL     1      -3.505  -5.320   3.730  0.00  0.00    +0.007 A 
ATOM     31 CL   UNL     1      -6.870  -7.193   2.671  0.00  0.00    -0.084 Cl
ENDBRANCH  24  25
ENDBRANCH   9  24
TORSDOF 7
