REMARK  Name = ZINC48038308
REMARK  9 active torsions:
REMARK  status: ('A' for Active; 'I' for Inactive)
REMARK    1  A    between atoms: C_1  and  C_2
REMARK    2  A    between atoms: C_7  and  N_28
REMARK    3  A    between atoms: C_12  and  C_14
REMARK    4  A    between atoms: N_16  and  C_17
REMARK    5  A    between atoms: C_17  and  C_18
REMARK    6  A    between atoms: C_18  and  C_20
REMARK    7  A    between atoms: C_18  and  N_23
REMARK    8  A    between atoms: C_20  and  C_21
REMARK    9  A    between atoms: C_20  and  C_22
REMARK                            x       y       z     vdW  Elec       q    Type
REMARK                         _______ _______ _______ _____ _____    ______ ____
ROOT
ATOM      1  C   UNL     1       1.743  -3.118   0.552  0.00  0.00    +0.029 C 
ATOM      2  C   UNL     1       0.898  -1.845   0.473  0.00  0.00    +0.083 C 
ATOM      3  C   UNL     1      -0.034  -1.898  -0.748  0.00  0.00    +0.059 C 
ATOM      4  C   UNL     1       0.384  -0.718  -1.596  0.00  0.00    -0.022 A 
ATOM      5  C   UNL     1      -0.095  -0.259  -2.809  0.00  0.00    +0.038 A 
ATOM      6  C   UNL     1       0.462   0.863  -3.395  0.00  0.00    +0.127 A 
ATOM      7  C   UNL     1       1.500   1.526  -2.765  0.00  0.00    +0.034 A 
ATOM      8  C   UNL     1       1.980   1.072  -1.555  0.00  0.00    +0.026 A 
ATOM      9  C   UNL     1       1.423  -0.060  -0.956  0.00  0.00    +0.040 A 
ATOM     10  N   UNL     1       1.758  -0.678   0.253  0.00  0.00    -0.260 N 
ATOM     11  C   UNL     1       2.727  -0.263   1.092  0.00  0.00    +0.306 C 
ATOM     12  O   UNL     1       3.396   0.710   0.812  0.00  0.00    -0.265 OA
ENDROOT
BRANCH  11  13
ATOM     13  C   UNL     1       2.979  -1.002   2.365  0.00  0.00    +0.299 C 
ATOM     14  O   UNL     1       2.244  -1.909   2.696  0.00  0.00    -0.265 OA
ATOM     15  N   UNL     1       4.022  -0.661   3.147  0.00  0.00    -0.309 N 
ATOM     16  H   UNL     1       4.609   0.065   2.883  0.00  0.00    +0.149 HD
BRANCH  15  17
ATOM     17  C   UNL     1       4.269  -1.385   4.397  0.00  0.00    +0.089 C 
BRANCH  17  18
ATOM     18  C   UNL     1       5.568  -0.882   5.030  0.00  0.00    -0.049 C 
BRANCH  18  19
ATOM     19  N   UNL     1       5.481   0.569   5.240  0.00  0.00    +0.383 N 
ATOM     20  C   UNL     1       4.786   0.860   6.520  0.00  0.00    -0.078 C 
ATOM     21  C   UNL     1       5.262   2.294   6.864  0.00  0.00    -0.020 C 
ATOM     22  C   UNL     1       6.739   2.287   6.407  0.00  0.00    -0.020 C 
ATOM     23  C   UNL     1       6.835   1.147   5.376  0.00  0.00    -0.078 C 
ATOM     24  H   UNL     1       4.992   1.004   4.471  0.00  0.00    -0.081 HD
ENDBRANCH  18  19
BRANCH  18  25
ATOM     25  C   UNL     1       5.784  -1.580   6.374  0.00  0.00    -0.029 C 
ATOM     26  C   UNL     1       5.866  -3.093   6.156  0.00  0.00    +0.005 C 
ATOM     27  C   UNL     1       7.088  -1.084   7.003  0.00  0.00    +0.005 C 
ENDBRANCH  18  25
ENDBRANCH  17  18
ENDBRANCH  15  17
ENDBRANCH  11  13
BRANCH   6  28
ATOM     28  N   UNL     1      -0.051   1.353  -4.694  0.00  0.00    +0.056 N 
ATOM     29  O   UNL     1      -0.958   0.772  -5.244  0.00  0.00    -0.126 OA
ATOM     30  O   UNL     1       0.437   2.333  -5.206  0.00  0.00    -0.126 OA
ENDBRANCH   6  28
TORSDOF 6
