REMARK  Name = ZINC04569587
REMARK  8 active torsions:
REMARK  status: ('A' for Active; 'I' for Inactive)
REMARK    1  A    between atoms: C_1  and  N_2
REMARK    2  A    between atoms: C_5  and  C_10
REMARK    3  A    between atoms: C_14  and  O_18
REMARK    4  A    between atoms: C_15  and  O_16
REMARK    5  A    between atoms: O_16  and  C_17
REMARK    6  A    between atoms: O_18  and  C_19
REMARK    7  A    between atoms: N_22  and  C_24
REMARK    8  A    between atoms: C_24  and  C_25
REMARK                            x       y       z     vdW  Elec       q    Type
REMARK                         _______ _______ _______ _____ _____    ______ ____
ROOT
ATOM      1  C   UNL     1       3.265   3.610   6.301  0.00  0.00    +0.139 C 
ATOM      2  N   UNL     1       2.611   3.342   5.017  0.00  0.00    -0.260 N 
ATOM      3  C   UNL     1       1.595   2.430   4.989  0.00  0.00    +0.042 C 
ATOM      4  C   UNL     1       0.951   2.138   3.841  0.00  0.00    +0.058 C 
ATOM      5  C   UNL     1       1.392   2.857   2.582  0.00  0.00    +0.145 C 
ATOM      6  N   UNL     1       2.496   3.822   2.718  0.00  0.00    -0.288 N 
ATOM      7  C   UNL     1       3.041   4.006   3.937  0.00  0.00    +0.307 C 
ATOM      8  O   UNL     1       3.953   4.801   4.059  0.00  0.00    -0.252 OA
ATOM      9  C   UNL     1      -0.050   1.172   4.072  0.00  0.00    +0.247 C 
ATOM     10  O   UNL     1      -0.786   0.723   3.212  0.00  0.00    -0.270 OA
ATOM     11  N   UNL     1      -0.086   0.811   5.368  0.00  0.00    -0.288 N 
ATOM     12  C   UNL     1       0.957   1.579   6.064  0.00  0.00    +0.160 C 
ATOM     13  H   UNL     1       2.823   4.313   1.948  0.00  0.00    +0.151 HD
ENDROOT
BRANCH   5  14
ATOM     14  C   UNL     1       0.199   3.590   2.024  0.00  0.00    +0.023 A 
ATOM     15  C   UNL     1       0.093   4.959   2.183  0.00  0.00    +0.009 A 
ATOM     16  C   UNL     1      -1.002   5.634   1.678  0.00  0.00    +0.004 A 
ATOM     17  C   UNL     1      -1.994   4.943   1.005  0.00  0.00    +0.049 A 
ATOM     18  C   UNL     1      -1.891   3.572   0.837  0.00  0.00    +0.162 A 
ATOM     19  C   UNL     1      -0.787   2.893   1.346  0.00  0.00    +0.167 A 
BRANCH  19  20
ATOM     20  O   UNL     1      -0.682   1.547   1.184  0.00  0.00    -0.491 OA
ATOM     21  C   UNL     1      -0.013   1.086   0.008  0.00  0.00    +0.277 C 
ENDBRANCH  19  20
BRANCH  18  22
ATOM     22  O   UNL     1      -2.865   2.891   0.176  0.00  0.00    -0.491 OA
ATOM     23  C   UNL     1      -3.967   3.654  -0.319  0.00  0.00    +0.277 C 
ENDBRANCH  18  22
ENDBRANCH   5  14
BRANCH  11  24
ATOM     24  C   UNL     1      -0.995  -0.167   5.973  0.00  0.00    +0.143 C 
BRANCH  24  25
ATOM     25  C   UNL     1      -2.244   0.533   6.443  0.00  0.00    -0.030 A 
ATOM     26  C   UNL     1      -2.311   1.037   7.729  0.00  0.00    +0.008 A 
ATOM     27  C   UNL     1      -3.454   1.684   8.160  0.00  0.00    +0.038 A 
ATOM     28  C   UNL     1      -4.536   1.816   7.307  0.00  0.00    +0.123 A 
ATOM     29  C   UNL     1      -4.471   1.306   6.022  0.00  0.00    +0.038 A 
ATOM     30  C   UNL     1      -3.325   0.665   5.591  0.00  0.00    +0.008 A 
ATOM     31  F   UNL     1      -5.657   2.443   7.729  0.00  0.00    -0.205 F 
ENDBRANCH  24  25
ENDBRANCH  11  24
TORSDOF 5
