REMARK  Name = ZINC15958708
REMARK  16 active torsions:
REMARK  status: ('A' for Active; 'I' for Inactive)
REMARK    1  A    between atoms: C_1  and  C_2
REMARK    2  A    between atoms: C_2  and  C_3
REMARK    3  A    between atoms: C_3  and  C_4
REMARK    4  A    between atoms: C_4  and  O_6
REMARK    5  A    between atoms: O_6  and  C_7
REMARK    6  A    between atoms: C_11  and  C_45
REMARK    7  A    between atoms: C_16  and  C_44
REMARK    8  A    between atoms: C_26  and  C_43
REMARK    9  A    between atoms: C_29  and  C_42
REMARK   10  A    between atoms: C_30  and  C_32
REMARK   11  A    between atoms: C_32  and  C_33
REMARK   12  A    between atoms: C_33  and  C_34
REMARK   13  A    between atoms: C_34  and  C_36
REMARK   14  A    between atoms: C_34  and  C_37
REMARK   15  A    between atoms: C_37  and  N_38
REMARK   16  A    between atoms: C_39  and  C_41
REMARK                            x       y       z     vdW  Elec       q    Type
REMARK                         _______ _______ _______ _____ _____    ______ ____
ROOT
ATOM      1  C   UNL     1      -1.427   0.441  -1.312  0.00  0.00    +0.180 C 
ATOM      2  C   UNL     1      -2.172   1.332  -0.321  0.00  0.00    +0.046 C 
ATOM      3  C   UNL     1      -2.484   2.696  -0.927  0.00  0.00    +0.015 C 
ATOM      4  C   UNL     1      -3.346   2.548  -2.193  0.00  0.00    -0.008 C 
ATOM      5  C   UNL     1      -3.609   3.916  -2.777  0.00  0.00    +0.003 C 
ATOM      6  C   UNL     1      -4.811   4.606  -2.147  0.00  0.00    +0.005 C 
ATOM      7  C   UNL     1      -6.170   4.306  -2.761  0.00  0.00    +0.008 C 
ATOM      8  C   UNL     1      -6.133   4.369  -4.279  0.00  0.00    -0.019 C 
ATOM      9  C   UNL     1      -4.988   3.413  -4.746  0.00  0.00    +0.003 C 
ATOM     10  C   UNL     1      -3.668   3.969  -4.304  0.00  0.00    +0.000 C 
ATOM     11  C   UNL     1      -2.483   3.243  -4.931  0.00  0.00    +0.031 C 
ATOM     12  C   UNL     1      -2.319   1.877  -4.342  0.00  0.00    -0.027 C 
ATOM     13  C   UNL     1      -2.647   1.595  -3.119  0.00  0.00    -0.064 C 
ATOM     14  C   UNL     1      -2.274   0.228  -2.570  0.00  0.00    +0.075 C 
ATOM     15  C   UNL     1      -5.225   3.221  -6.255  0.00  0.00    +0.052 C 
ATOM     16  C   UNL     1      -6.679   3.494  -6.457  0.00  0.00    +0.115 C 
ATOM     17  C   UNL     1      -7.263   3.750  -5.008  0.00  0.00    +0.068 C 
ATOM     18  C   UNL     1      -8.595   4.203  -5.441  0.00  0.00    -0.028 C 
ATOM     19  C   UNL     1      -8.829   3.457  -6.542  0.00  0.00    +0.098 C 
ATOM     20  O   UNL     1      -7.738   2.633  -6.828  0.00  0.00    -0.490 OA
ATOM     21  C   UNL     1      -9.502   5.228  -4.819  0.00  0.00    +0.043 C 
ATOM     22  C   UNL     1      -6.841   4.727  -7.349  0.00  0.00    +0.056 C 
ATOM     23  C   UNL     1      -5.903   5.819  -4.681  0.00  0.00    +0.012 C 
ATOM     24  C   UNL     1      -4.652   1.882  -1.761  0.00  0.00    +0.016 C 
ENDROOT
BRANCH   1  25
ATOM     25  O   UNL     1      -0.167   1.063  -1.676  0.00  0.00    -0.461 OA
BRANCH  25  26
ATOM     26  C   UNL     1       0.849   0.244  -1.990  0.00  0.00    +0.307 C 
ATOM     27  O   UNL     1       0.691  -0.953  -1.960  0.00  0.00    -0.251 OA
BRANCH  26  28
ATOM     28  C   UNL     1       2.186   0.818  -2.384  0.00  0.00    +0.120 C 
BRANCH  28  30
ATOM     29  C   UNL     1       4.515   0.261  -3.094  0.00  0.00    +0.004 C 
ATOM     30  C   UNL     1       3.158  -0.321  -2.694  0.00  0.00    +0.008 C 
ENDBRANCH  28  30
ENDBRANCH  26  28
ENDBRANCH  25  26
ENDBRANCH   1  25
BRANCH  19  31
ATOM     31  C   UNL     1     -10.102   3.490  -7.342  0.00  0.00    +0.074 C 
BRANCH  31  32
ATOM     32  C   UNL     1      -9.934   4.439  -8.530  0.00  0.00    +0.012 C 
BRANCH  32  33
ATOM     33  C   UNL     1     -11.229   4.473  -9.344  0.00  0.00    +0.003 C 
ATOM     34  C   UNL     1     -12.348   5.082  -8.496  0.00  0.00    +0.009 C 
BRANCH  33  35
ATOM     35  C   UNL     1     -11.021   5.322 -10.599  0.00  0.00    +0.107 C 
BRANCH  35  36
ATOM     36  N   UNL     1     -12.222   5.258 -11.437  0.00  0.00    -0.315 N 
ATOM     37  C   UNL     1     -12.267   5.933 -12.602  0.00  0.00    +0.210 C 
ATOM     38  O   UNL     1     -11.315   6.595 -12.957  0.00  0.00    -0.276 OA
ATOM     39  C   UNL     1     -13.502   5.867 -13.463  0.00  0.00    +0.109 C 
ATOM     40  H   UNL     1     -12.983   4.729 -11.153  0.00  0.00    +0.149 HD
ENDBRANCH  35  36
ENDBRANCH  33  35
ENDBRANCH  32  33
ENDBRANCH  31  32
ENDBRANCH  19  31
TORSDOF 9
