REMARK  Name = ZINC20709130
REMARK  7 active torsions:
REMARK  status: ('A' for Active; 'I' for Inactive)
REMARK    1  A    between atoms: C_1  and  O_2
REMARK    2  A    between atoms: O_2  and  C_3
REMARK    3  A    between atoms: C_6  and  O_29
REMARK    4  A    between atoms: C_16  and  C_19
REMARK    5  A    between atoms: C_21  and  N_26
REMARK    6  A    between atoms: C_24  and  O_25
REMARK    7  A    between atoms: O_29  and  C_30
REMARK                            x       y       z     vdW  Elec       q    Type
REMARK                         _______ _______ _______ _____ _____    ______ ____
ROOT
ATOM      1  C   UNL     1       2.976   0.325  -0.878  0.00  0.00    +0.126 A 
ATOM      2  C   UNL     1       4.180   0.046  -1.506  0.00  0.00    +0.049 A 
ATOM      3  C   UNL     1       4.959   1.085  -1.982  0.00  0.00    +0.051 A 
ATOM      4  C   UNL     1       4.538   2.392  -1.839  0.00  0.00    +0.141 A 
ATOM      5  C   UNL     1       3.322   2.690  -1.213  0.00  0.00    +0.077 A 
ATOM      6  C   UNL     1       2.562   1.646  -0.710  0.00  0.00    +0.026 A 
ATOM      7  C   UNL     1       1.280   1.964  -0.044  0.00  0.00    +0.052 C 
ATOM      8  C   UNL     1       0.119   1.040  -0.060  0.00  0.00    -0.022 C 
ATOM      9  C   UNL     1      -0.996   1.763  -0.048  0.00  0.00    -0.030 C 
ATOM     10  C   UNL     1      -0.651   3.254  -0.049  0.00  0.00    +0.033 C 
ATOM     11  C   UNL     1       0.721   3.247  -0.735  0.00  0.00    +0.029 C 
ATOM     12  C   UNL     1       1.717   4.333  -0.386  0.00  0.00    +0.109 C 
ATOM     13  N   UNL     1       2.957   4.034  -1.120  0.00  0.00    -0.333 N 
ATOM     14  H   UNL     1       3.544   4.851  -1.563  0.00  0.00    +0.147 HD
ENDROOT
BRANCH  12  15
ATOM     15  C   UNL     1       1.982   4.329   1.098  0.00  0.00    +0.017 A 
ATOM     16  C   UNL     1       3.045   3.609   1.608  0.00  0.00    +0.041 A 
ATOM     17  C   UNL     1       3.289   3.605   2.969  0.00  0.00    +0.127 A 
ATOM     18  C   UNL     1       2.471   4.322   3.822  0.00  0.00    +0.036 A 
ATOM     19  C   UNL     1       1.407   5.044   3.317  0.00  0.00    +0.048 A 
ATOM     20  C   UNL     1       1.163   5.054   1.951  0.00  0.00    +0.122 A 
BRANCH  17  21
ATOM     21  N   UNL     1       4.429   2.833   3.513  0.00  0.00    +0.056 N 
ATOM     22  O   UNL     1       5.150   2.201   2.762  0.00  0.00    -0.126 OA
ATOM     23  O   UNL     1       4.645   2.829   4.711  0.00  0.00    -0.126 OA
ENDBRANCH  17  21
BRANCH  20  24
ATOM     24  O   UNL     1       0.121   5.768   1.451  0.00  0.00    -0.506 OA
ATOM     25  H   UNL     1      -0.528   6.342   2.129  0.00  0.00    +0.292 HD
ENDBRANCH  20  24
ENDBRANCH  12  15
BRANCH   1  27
ATOM     26  C   UNL     1       2.704  -2.020  -0.596  0.00  0.00    +0.277 C 
ATOM     27  O   UNL     1       2.208  -0.693  -0.407  0.00  0.00    -0.495 OA
ENDBRANCH   1  27
BRANCH   4  28
ATOM     28  O   UNL     1       5.315   3.403  -2.313  0.00  0.00    -0.493 OA
ATOM     29  C   UNL     1       6.544   3.037  -2.943  0.00  0.00    +0.277 C 
ENDBRANCH   4  28
TORSDOF 5
