REMARK  Name = ZINC05697219
REMARK  7 active torsions:
REMARK  status: ('A' for Active; 'I' for Inactive)
REMARK    1  A    between atoms: C_1  and  C_2
REMARK    2  A    between atoms: C_3  and  C_7
REMARK    3  A    between atoms: N_9  and  N_10
REMARK    4  A    between atoms: C_11  and  C_13
REMARK    5  A    between atoms: C_21  and  C_23
REMARK    6  A    between atoms: C_26  and  C_27
REMARK    7  A    between atoms: C_26  and  C_28
REMARK                            x       y       z     vdW  Elec       q    Type
REMARK                         _______ _______ _______ _____ _____    ______ ____
ROOT
ATOM      1  N   UNL     1       2.207   2.358   2.953  0.00  0.00    -0.234 N 
ATOM      2  C   UNL     1       1.266   2.172   2.005  0.00  0.00    +0.234 C 
ATOM      3  O   UNL     1       0.222   2.785   2.059  0.00  0.00    -0.274 OA
ATOM      4  H   UNL     1       3.070   1.924   2.871  0.00  0.00    +0.173 HD
ENDROOT
BRANCH   2   5
ATOM      5  C   UNL     1       1.514   1.203   0.878  0.00  0.00    +0.098 C 
ATOM      6  C   UNL     1       0.742   1.646  -0.402  0.00  0.00    +0.028 C 
ATOM      7  C   UNL     1       1.279   0.714  -1.530  0.00  0.00    +0.009 C 
ATOM      8  C   UNL     1       0.685  -0.674  -1.190  0.00  0.00    +0.009 C 
ATOM      9  C   UNL     1      -0.145  -0.428   0.106  0.00  0.00    +0.030 C 
ATOM     10  C   UNL     1       0.920  -0.184   1.218  0.00  0.00    +0.122 C 
ATOM     11  C   UNL     1      -0.644   1.015  -0.138  0.00  0.00    -0.063 C 
ATOM     12  C   UNL     1      -1.847   1.532  -0.131  0.00  0.00    -0.076 C 
ATOM     13  C   UNL     1      -3.041   0.658   0.157  0.00  0.00    +0.039 C 
ATOM     14  C   UNL     1      -2.038   3.001  -0.409  0.00  0.00    +0.039 C 
BRANCH  10  15
ATOM     15  C   UNL     1       0.268  -0.164   2.577  0.00  0.00    +0.360 C 
ATOM     16  O   UNL     1      -0.898   0.133   2.683  0.00  0.00    -0.246 OA
ATOM     17  O   UNL     1       0.984  -0.475   3.669  0.00  0.00    -0.246 OA
ENDBRANCH  10  15
ENDBRANCH   2   5
BRANCH   1  20
ATOM     18  C   UNL     1       2.878   3.365   5.003  0.00  0.00    +0.263 C 
ATOM     19  O   UNL     1       3.960   2.820   4.900  0.00  0.00    -0.269 OA
ATOM     20  N   UNL     1       1.937   3.179   4.056  0.00  0.00    -0.230 N 
ATOM     21  H   UNL     1       1.074   3.614   4.137  0.00  0.00    +0.173 HD
BRANCH  18  24
ATOM     22  C   UNL     1       4.838   4.001   7.368  0.00  0.00    +0.087 C 
ATOM     23  C   UNL     1       3.432   4.517   7.200  0.00  0.00    +0.114 A 
ATOM     24  C   UNL     1       2.594   4.228   6.163  0.00  0.00    +0.079 A 
ATOM     25  C   UNL     1       1.352   4.964   6.441  0.00  0.00    +0.054 A 
ATOM     26  C   UNL     1       1.555   5.605   7.602  0.00  0.00    +0.196 A 
ATOM     27  O   UNL     1       2.794   5.336   8.043  0.00  0.00    -0.467 OA
ENDBRANCH  18  24
ENDBRANCH   1  20
TORSDOF 4
