REMARK  Name = ZINC12136609
REMARK  10 active torsions:
REMARK  status: ('A' for Active; 'I' for Inactive)
REMARK    1  A    between atoms: C_1  and  C_2
REMARK    2  A    between atoms: C_7  and  N_12
REMARK    3  A    between atoms: C_9  and  C_11
REMARK    4  A    between atoms: C_13  and  C_15
REMARK    5  A    between atoms: C_15  and  C_17
REMARK    6  A    between atoms: C_15  and  S_18
REMARK    7  A    between atoms: S_18  and  C_19
REMARK    8  A    between atoms: C_22  and  C_31
REMARK    9  A    between atoms: N_23  and  C_24
REMARK   10  A    between atoms: C_31  and  N_69
REMARK                            x       y       z     vdW  Elec       q    Type
REMARK                         _______ _______ _______ _____ _____    ______ ____
ROOT
ATOM      1  C   UNL     1       0.483  -0.830   0.981  0.00  0.00    +0.197 A 
ATOM      2  N   UNL     1       0.304  -2.062   0.566  0.00  0.00    -0.122 NA
ATOM      3  N   UNL     1      -0.250  -2.058  -0.594  0.00  0.00    -0.135 NA
ATOM      4  C   UNL     1      -0.462  -0.833  -0.985  0.00  0.00    +0.122 A 
ATOM      5  N   UNL     1       0.002  -0.004   0.002  0.00  0.00    -0.276 N 
ENDROOT
BRANCH   5   6
ATOM      6  C   UNL     1      -0.017   1.399   0.010  0.00  0.00    +0.050 A 
ATOM      7  C   UNL     1      -1.228   2.078   0.019  0.00  0.00    +0.029 A 
ATOM      8  C   UNL     1      -1.245   3.458   0.032  0.00  0.00    +0.040 A 
ATOM      9  C   UNL     1      -0.054   4.166   0.024  0.00  0.00    +0.124 A 
ATOM     10  C   UNL     1       1.154   3.491   0.009  0.00  0.00    +0.040 A 
ATOM     11  C   UNL     1       1.175   2.110   0.002  0.00  0.00    +0.029 A 
ATOM     12  F   UNL     1      -0.073   5.517   0.031  0.00  0.00    -0.205 F 
ENDBRANCH   5   6
BRANCH   1  13
ATOM     13  S   UNL     1       1.205  -0.333   2.510  0.00  0.00    -0.073 S 
BRANCH  13  14
ATOM     14  C   UNL     1       1.572  -1.954   3.225  0.00  0.00    +0.137 C 
ATOM     15  C   UNL     1       0.265  -2.701   3.495  0.00  0.00    +0.029 C 
BRANCH  14  17
ATOM     16  N   UNL     1       3.129  -2.755   4.973  0.00  0.00    -0.311 N 
ATOM     17  C   UNL     1       2.324  -1.774   4.519  0.00  0.00    +0.226 C 
ATOM     18  O   UNL     1       2.205  -0.746   5.151  0.00  0.00    -0.275 OA
ATOM     19  H   UNL     1       3.224  -3.577   4.467  0.00  0.00    +0.149 HD
BRANCH  16  25
ATOM     20  C   UNL     1       5.245  -5.137   8.753  0.00  0.00    +0.008 C 
ATOM     21  C   UNL     1       4.934  -3.767   8.148  0.00  0.00    -0.009 C 
ATOM     22  C   UNL     1       6.242  -3.020   7.878  0.00  0.00    +0.003 C 
ATOM     23  C   UNL     1       5.931  -1.649   7.273  0.00  0.00    +0.002 C 
ATOM     24  C   UNL     1       5.168  -1.833   5.960  0.00  0.00    +0.022 C 
ATOM     25  C   UNL     1       3.860  -2.579   6.230  0.00  0.00    +0.076 C 
ATOM     26  C   UNL     1       4.171  -3.950   6.835  0.00  0.00    +0.009 C 
ATOM     27  C   UNL     1       2.863  -4.697   7.105  0.00  0.00    +0.009 C 
ENDBRANCH  16  25
ENDBRANCH  14  17
ENDBRANCH  13  14
ENDBRANCH   1  13
BRANCH   4  28
ATOM     28  C   UNL     1      -1.098  -0.407  -2.283  0.00  0.00    -0.001 C 
BRANCH  28  34
ATOM     29  C   UNL     1       0.844   0.861  -2.975  0.00  0.00    -0.078 C 
ATOM     30  C   UNL     1       1.995   0.905  -3.983  0.00  0.00    -0.019 C 
ATOM     31  C   UNL     1       1.425   1.092  -5.393  0.00  0.00    -0.004 C 
ATOM     32  C   UNL     1       0.451  -0.050  -5.696  0.00  0.00    -0.019 C 
ATOM     33  C   UNL     1      -0.654  -0.066  -4.638  0.00  0.00    -0.078 C 
ATOM     34  N   UNL     1      -0.043  -0.273  -3.308  0.00  0.00    +0.384 N 
ATOM     35  H   UNL     1       0.514  -1.136  -3.328  0.00  0.00    -0.081 HD
ENDBRANCH  28  34
ENDBRANCH   4  28
TORSDOF 7
