REMARK  Name = ZINC13391724
REMARK  6 active torsions:
REMARK  status: ('A' for Active; 'I' for Inactive)
REMARK    1  A    between atoms: C_1  and  C_2
REMARK    2  A    between atoms: C_10  and  C_11
REMARK    3  A    between atoms: C_11  and  C_12
REMARK    4  A    between atoms: N_14  and  C_15
REMARK    5  A    between atoms: C_17  and  C_23
REMARK    6  A    between atoms: C_20  and  C_21
REMARK                            x       y       z     vdW  Elec       q    Type
REMARK                         _______ _______ _______ _____ _____    ______ ____
ROOT
ATOM      1  C   UNL     1      -4.695  -0.069  -0.132  0.00  0.00    +0.222 C 
ATOM      2  O   UNL     1      -3.616  -0.621  -0.165  0.00  0.00    -0.275 OA
ATOM      3  N   UNL     1      -4.763   1.269   0.015  0.00  0.00    -0.284 N 
ATOM      4  H   UNL     1      -5.624   1.702   0.123  0.00  0.00    +0.155 HD
ENDROOT
BRANCH   3   5
ATOM      5  C   UNL     1      -3.596   2.030   0.013  0.00  0.00    +0.048 A 
ATOM      6  C   UNL     1      -2.462   1.562  -0.635  0.00  0.00    +0.039 A 
ATOM      7  C   UNL     1      -1.297   2.326  -0.636  0.00  0.00    +0.065 A 
ATOM      8  C   UNL     1      -1.268   3.561   0.019  0.00  0.00    +0.016 A 
ATOM      9  C   UNL     1      -2.392   4.032   0.659  0.00  0.00    +0.018 A 
ATOM     10  C   UNL     1      -3.565   3.272   0.664  0.00  0.00    +0.084 A 
BRANCH  10  11
ATOM     11  C   UNL     1      -4.768   3.775   1.355  0.00  0.00    +0.388 C 
ATOM     12  O   UNL     1      -5.756   3.074   1.442  0.00  0.00    -0.241 OA
ATOM     13  O   UNL     1      -4.771   5.012   1.888  0.00  0.00    -0.241 OA
ENDBRANCH  10  11
BRANCH   7  14
ATOM     14  C   UNL     1      -0.087   1.827  -1.326  0.00  0.00    +0.387 C 
ATOM     15  O   UNL     1      -0.110   0.753  -1.891  0.00  0.00    -0.241 OA
ATOM     16  O   UNL     1       1.038   2.568  -1.332  0.00  0.00    -0.241 OA
ENDBRANCH   7  14
ENDBRANCH   3   5
BRANCH   1  17
ATOM     17  C   UNL     1      -5.961  -0.878  -0.256  0.00  0.00    +0.135 C 
BRANCH  17  27
ATOM     18  C   UNL     1      -4.391  -6.747   2.992  0.00  0.00    +0.044 C 
ATOM     19  C   UNL     1      -4.723  -5.532   2.165  0.00  0.00    -0.047 A 
ATOM     20  C   UNL     1      -4.992  -4.325   2.794  0.00  0.00    +0.004 A 
ATOM     21  C   UNL     1      -5.295  -3.213   2.058  0.00  0.00    +0.012 A 
ATOM     22  C   UNL     1      -5.333  -3.294   0.667  0.00  0.00    +0.024 A 
ATOM     23  C   UNL     1      -5.064  -4.514   0.024  0.00  0.00    +0.135 A 
ATOM     24  C   UNL     1      -4.763  -5.633   0.790  0.00  0.00    +0.050 A 
ATOM     25  O   UNL     1      -5.166  -4.298  -1.303  0.00  0.00    -0.463 OA
ATOM     26  C   UNL     1      -5.487  -3.017  -1.557  0.00  0.00    +0.200 A 
ATOM     27  C   UNL     1      -5.611  -2.336  -0.410  0.00  0.00    +0.007 A 
ENDBRANCH  17  27
ENDBRANCH   1  17
TORSDOF 5
