REMARK  Name = ZINC03018038
REMARK  12 active torsions:
REMARK  status: ('A' for Active; 'I' for Inactive)
REMARK    1  A    between atoms: C_1  and  C_2
REMARK    2  A    between atoms: C_2  and  N_3
REMARK    3  A    between atoms: N_3  and  C_4
REMARK    4  A    between atoms: N_3  and  C_6
REMARK    5  A    between atoms: C_4  and  C_5
REMARK    6  A    between atoms: C_9  and  C_12
REMARK    7  A    between atoms: N_13  and  N_14
REMARK    8  A    between atoms: C_15  and  C_17
REMARK    9  A    between atoms: C_17  and  N_28
REMARK   10  A    between atoms: C_18  and  C_19
REMARK   11  A    between atoms: C_23  and  N_25
REMARK   12  A    between atoms: C_29  and  C_31
REMARK                            x       y       z     vdW  Elec       q    Type
REMARK                         _______ _______ _______ _____ _____    ______ ____
ROOT
ATOM      1  C   UNL     1      -1.249   5.980  -0.060  0.00  0.00    +0.098 C 
ATOM      2  C   UNL     1      -0.078   5.330   0.134  0.00  0.00    +0.036 C 
ENDROOT
BRANCH   2   3
ATOM      3  C   UNL     1      -0.080   3.915   0.534  0.00  0.00    -0.021 A 
ATOM      4  C   UNL     1      -1.221   3.349   1.112  0.00  0.00    +0.008 A 
ATOM      5  C   UNL     1      -1.217   2.020   1.479  0.00  0.00    +0.003 A 
ATOM      6  C   UNL     1      -0.083   1.249   1.287  0.00  0.00    +0.033 A 
ATOM      7  C   UNL     1       1.050   1.801   0.715  0.00  0.00    +0.127 A 
ATOM      8  C   UNL     1       1.060   3.127   0.338  0.00  0.00    +0.040 A 
BRANCH   7   9
ATOM      9  N   UNL     1       2.254   0.966   0.508  0.00  0.00    +0.056 N 
ATOM     10  O   UNL     1       2.247  -0.206   0.841  0.00  0.00    -0.126 OA
ATOM     11  O   UNL     1       3.252   1.450   0.005  0.00  0.00    -0.126 OA
ENDBRANCH   7   9
ENDBRANCH   2   3
BRANCH   1  13
ATOM     12  N   UNL     1      -0.095   8.119  -0.285  0.00  0.00    -0.202 N 
ATOM     13  C   UNL     1      -1.255   7.434  -0.279  0.00  0.00    +0.277 C 
ATOM     14  O   UNL     1      -2.309   8.018  -0.453  0.00  0.00    -0.267 OA
ATOM     15  H   UNL     1       0.744   7.653  -0.146  0.00  0.00    +0.178 HD
BRANCH  12  17
ATOM     16  C   UNL     1       1.017  10.165  -0.500  0.00  0.00    +0.138 C 
ATOM     17  N   UNL     1      -0.101   9.505  -0.493  0.00  0.00    -0.187 NA
BRANCH  16  21
ATOM     18  C   UNL     1       0.998  14.363  -1.131  0.00  0.00    +0.030 A 
ATOM     19  C   UNL     1       2.203  13.697  -0.932  0.00  0.00    +0.024 A 
ATOM     20  C   UNL     1       2.213  12.335  -0.726  0.00  0.00    +0.011 A 
ATOM     21  C   UNL     1       1.010  11.622  -0.719  0.00  0.00    -0.005 A 
ATOM     22  C   UNL     1      -0.198  12.294  -0.925  0.00  0.00    +0.011 A 
ATOM     23  C   UNL     1      -0.201  13.657  -1.125  0.00  0.00    +0.024 A 
BRANCH  18  24
ATOM     24  N   UNL     1       0.992  15.742  -1.339  0.00  0.00    -0.330 N 
BRANCH  24  26
ATOM     25  C   UNL     1      -0.835  16.905  -0.202  0.00  0.00    +0.024 C 
ATOM     26  C   UNL     1      -0.276  16.446  -1.550  0.00  0.00    +0.102 C 
ENDBRANCH  24  26
BRANCH  24  27
ATOM     27  C   UNL     1       2.253  16.488  -1.347  0.00  0.00    +0.102 C 
ATOM     28  C   UNL     1       2.810  16.533  -2.772  0.00  0.00    +0.024 C 
ENDBRANCH  24  27
ENDBRANCH  18  24
ENDBRANCH  16  21
ENDBRANCH  12  17
ENDBRANCH   1  13
BRANCH   1  29
ATOM     29  N   UNL     1      -2.452   5.269  -0.053  0.00  0.00    -0.277 N 
ATOM     30  C   UNL     1      -3.443   5.630   0.786  0.00  0.00    +0.248 C 
ATOM     31  O   UNL     1      -3.259   6.515   1.599  0.00  0.00    -0.270 OA
ATOM     32  H   UNL     1      -2.574   4.516  -0.652  0.00  0.00    +0.155 HD
BRANCH  30  33
ATOM     33  C   UNL     1      -4.754   4.950   0.718  0.00  0.00    +0.037 A 
ATOM     34  C   UNL     1      -4.937   3.866  -0.142  0.00  0.00    +0.013 A 
ATOM     35  C   UNL     1      -6.161   3.232  -0.198  0.00  0.00    +0.001 A 
ATOM     36  C   UNL     1      -7.209   3.676   0.590  0.00  0.00    +0.000 A 
ATOM     37  C   UNL     1      -7.036   4.753   1.441  0.00  0.00    +0.001 A 
ATOM     38  C   UNL     1      -5.815   5.392   1.509  0.00  0.00    +0.013 A 
ENDBRANCH  30  33
ENDBRANCH   1  29
TORSDOF 10
