REMARK  Name = ZINC09014249
REMARK  5 active torsions:
REMARK  status: ('A' for Active; 'I' for Inactive)
REMARK    1  A    between atoms: C_4  and  N_7
REMARK    2  A    between atoms: C_13  and  C_18
REMARK    3  A    between atoms: C_18  and  S_19
REMARK    4  A    between atoms: S_19  and  C_20
REMARK    5  A    between atoms: N_24  and  C_25
REMARK                            x       y       z     vdW  Elec       q    Type
REMARK                         _______ _______ _______ _____ _____    ______ ____
ROOT
ATOM      1  N   UNL     1       3.621  -0.650  -0.037  0.00  0.00    -0.217 N 
ATOM      2  C   UNL     1       4.841  -0.072  -0.041  0.00  0.00    +0.285 A 
ATOM      3  O   UNL     1       5.079   1.121  -0.031  0.00  0.00    -0.265 OA
ATOM      4  C   UNL     1       5.822  -1.157  -0.060  0.00  0.00    +0.129 A 
ATOM      5  C   UNL     1       7.282  -1.209  -0.072  0.00  0.00    +0.196 A 
ATOM      6  C   UNL     1       7.898  -2.488  -0.090  0.00  0.00    +0.073 A 
ATOM      7  C   UNL     1       7.131  -3.595  -0.095  0.00  0.00    +0.031 A 
ATOM      8  N   UNL     1       5.773  -3.537  -0.084  0.00  0.00    -0.342 N 
ATOM      9  C   UNL     1       5.104  -2.356  -0.066  0.00  0.00    +0.140 A 
ATOM     10  N   UNL     1       3.776  -2.040  -0.046  0.00  0.00    -0.274 N 
ATOM     11  H   UNL     1       3.049  -2.683  -0.042  0.00  0.00    +0.189 HD
ATOM     12  O   UNL     1       7.950  -0.186  -0.067  0.00  0.00    -0.287 OA
ATOM     13  H   UNL     1       5.267  -4.364  -0.089  0.00  0.00    +0.167 HD
ENDROOT
BRANCH   1  17
ATOM     14  C   UNL     1      -0.017   1.379   0.010  0.00  0.00    +0.000 A 
ATOM     15  C   UNL     1       1.170   2.089   0.002  0.00  0.00    +0.002 A 
ATOM     16  C   UNL     1       2.377   1.420  -0.013  0.00  0.00    +0.028 A 
ATOM     17  C   UNL     1       2.400   0.031  -0.021  0.00  0.00    +0.067 A 
ATOM     18  C   UNL     1       1.206  -0.680  -0.013  0.00  0.00    +0.028 A 
ATOM     19  C   UNL     1       0.002  -0.004   0.002  0.00  0.00    +0.002 A 
ENDBRANCH   1  17
BRANCH   7  20
ATOM     20  C   UNL     1       7.802  -4.944  -0.114  0.00  0.00    +0.130 C 
BRANCH  20  21
ATOM     21  S   UNL     1       7.688  -5.699   1.531  0.00  0.00    -0.078 S 
BRANCH  21  22
ATOM     22  C   UNL     1       8.505  -7.249   1.347  0.00  0.00    +0.214 A 
ATOM     23  N   UNL     1       9.065  -7.713   0.249  0.00  0.00    -0.101 NA
ATOM     24  N   UNL     1       9.573  -8.873   0.459  0.00  0.00    -0.022 NA
ATOM     25  N   UNL     1       9.382  -9.233   1.682  0.00  0.00    -0.038 NA
ATOM     26  N   UNL     1       8.683  -8.187   2.310  0.00  0.00    -0.187 N 
BRANCH  26  27
ATOM     27  C   UNL     1       8.259  -8.128   3.646  0.00  0.00    +0.070 A 
ATOM     28  C   UNL     1       8.251  -6.914   4.319  0.00  0.00    +0.028 A 
ATOM     29  C   UNL     1       7.833  -6.858   5.635  0.00  0.00    +0.002 A 
ATOM     30  C   UNL     1       7.422  -8.010   6.280  0.00  0.00    +0.000 A 
ATOM     31  C   UNL     1       7.429  -9.221   5.612  0.00  0.00    +0.002 A 
ATOM     32  C   UNL     1       7.841  -9.282   4.295  0.00  0.00    +0.028 A 
ENDBRANCH  26  27
ENDBRANCH  21  22
ENDBRANCH  20  21
ENDBRANCH   7  20
TORSDOF 5
