REMARK  Name = ZINC27126871
REMARK  14 active torsions:
REMARK  status: ('A' for Active; 'I' for Inactive)
REMARK    1  A    between atoms: C_1  and  C_2
REMARK    2  A    between atoms: C_2  and  C_3
REMARK    3  A    between atoms: C_7  and  C_28
REMARK    4  A    between atoms: C_8  and  N_9
REMARK    5  A    between atoms: C_10  and  C_12
REMARK    6  A    between atoms: C_12  and  N_13
REMARK    7  A    between atoms: N_13  and  C_14
REMARK    8  A    between atoms: N_13  and  C_15
REMARK    9  A    between atoms: C_15  and  C_16
REMARK   10  A    between atoms: N_18  and  C_19
REMARK   11  A    between atoms: C_20  and  C_27
REMARK   12  A    between atoms: C_22  and  C_26
REMARK   13  A    between atoms: C_24  and  C_25
REMARK   14  A    between atoms: C_28  and  C_29
REMARK                            x       y       z     vdW  Elec       q    Type
REMARK                         _______ _______ _______ _____ _____    ______ ____
ROOT
ATOM      1  N   UNL     1      -4.128   6.134  -4.180  0.00  0.00    +0.389 N 
ATOM      2  C   UNL     1      -3.306   5.743  -3.027  0.00  0.00    -0.095 C 
ATOM      3  H   UNL     1      -4.012   7.218  -4.325  0.00  0.00    -0.081 HD
ENDROOT
BRANCH   1   4
ATOM      4  C   UNL     1      -3.670   5.463  -5.404  0.00  0.00    +0.019 C 
BRANCH   4   6
ATOM      5  N   UNL     1      -1.668   5.477  -6.856  0.00  0.00    -0.287 N 
ATOM      6  C   UNL     1      -2.292   5.957  -5.762  0.00  0.00    +0.201 C 
ATOM      7  O   UNL     1      -1.745   6.786  -5.066  0.00  0.00    -0.278 OA
ATOM      8  H   UNL     1      -2.201   4.804  -7.543  0.00  0.00    +0.155 HD
BRANCH   5  14
ATOM      9  C   UNL     1       0.603   4.854  -7.395  0.00  0.00    -0.026 A 
ATOM     10  C   UNL     1       1.914   5.210  -7.647  0.00  0.00    +0.007 A 
ATOM     11  C   UNL     1       2.288   6.540  -7.623  0.00  0.00    +0.020 A 
ATOM     12  C   UNL     1       1.351   7.521  -7.346  0.00  0.00    +0.046 A 
ATOM     13  C   UNL     1       0.037   7.171  -7.093  0.00  0.00    -0.008 A 
ATOM     14  C   UNL     1      -0.340   5.835  -7.117  0.00  0.00    +0.041 A 
ATOM     15 CL   UNL     1       1.825   9.190  -7.316  0.00  0.00    -0.083 Cl
BRANCH   9  17
ATOM     16  C   UNL     1      -0.463   3.084  -8.765  0.00  0.00    +0.009 C 
ATOM     17  C   UNL     1       0.196   3.404  -7.422  0.00  0.00    +0.033 C 
ENDBRANCH   9  17
BRANCH  13  18
ATOM     18  C   UNL     1      -0.983   8.239  -6.792  0.00  0.00    +0.035 C 
ATOM     19  C   UNL     1      -0.470   9.128  -5.658  0.00  0.00    +0.009 C 
ENDBRANCH  13  18
ENDBRANCH   5  14
ENDBRANCH   4   6
ENDBRANCH   1   4
BRANCH   1  20
ATOM     20  C   UNL     1      -5.549   5.861  -3.930  0.00  0.00    +0.019 C 
BRANCH  20  21
ATOM     21  C   UNL     1      -6.044   6.751  -2.819  0.00  0.00    +0.201 C 
ATOM     22  O   UNL     1      -5.287   7.535  -2.287  0.00  0.00    -0.278 OA
ATOM     23  N   UNL     1      -7.328   6.675  -2.415  0.00  0.00    -0.287 N 
ATOM     24  H   UNL     1      -7.993   5.909  -2.840  0.00  0.00    +0.155 HD
BRANCH  23  25
ATOM     25  C   UNL     1      -7.814   7.571  -1.457  0.00  0.00    +0.039 A 
ATOM     26  C   UNL     1      -7.490   7.400  -0.117  0.00  0.00    -0.029 A 
ATOM     27  C   UNL     1      -7.969   8.288   0.826  0.00  0.00    +0.008 A 
ATOM     28  C   UNL     1      -8.777   9.341   0.439  0.00  0.00    -0.050 A 
ATOM     29  C   UNL     1      -9.105   9.511  -0.894  0.00  0.00    +0.008 A 
ATOM     30  C   UNL     1      -8.626   8.629  -1.842  0.00  0.00    -0.029 A 
ATOM     31  C   UNL     1      -8.984   8.815  -3.294  0.00  0.00    +0.045 C 
ATOM     32  C   UNL     1      -9.301  10.306   1.471  0.00  0.00    +0.044 C 
ATOM     33  C   UNL     1      -6.614   6.249   0.306  0.00  0.00    +0.045 C 
ENDBRANCH  23  25
ENDBRANCH  20  21
ENDBRANCH   1  20
TORSDOF 8
