REMARK  Name = ZINC35967549
REMARK  12 active torsions:
REMARK  status: ('A' for Active; 'I' for Inactive)
REMARK    1  A    between atoms: C_1  and  C_2
REMARK    2  A    between atoms: C_2  and  N_3
REMARK    3  A    between atoms: C_6  and  C_11
REMARK    4  A    between atoms: C_16  and  C_17
REMARK    5  A    between atoms: N_23  and  C_25
REMARK    6  A    between atoms: C_25  and  C_27
REMARK    7  A    between atoms: C_25  and  C_34
REMARK    8  A    between atoms: C_27  and  C_28
REMARK    9  A    between atoms: N_36  and  C_37
REMARK   10  A    between atoms: C_37  and  C_38
REMARK   11  A    between atoms: C_38  and  C_39
REMARK   12  A    between atoms: C_38  and  C_40
REMARK                            x       y       z     vdW  Elec       q    Type
REMARK                         _______ _______ _______ _____ _____    ______ ____
ROOT
ATOM      1  N   UNL     1      -1.383  -0.503   0.077  0.00  0.00    -0.257 N 
ATOM      2  C   UNL     1      -2.067  -0.668   1.247  0.00  0.00    +0.042 C 
ATOM      3  C   UNL     1      -3.333  -1.134   1.256  0.00  0.00    +0.058 C 
ATOM      4  C   UNL     1      -3.971  -1.467  -0.078  0.00  0.00    +0.142 C 
ATOM      5  N   UNL     1      -3.149  -1.254  -1.281  0.00  0.00    -0.288 N 
ATOM      6  C   UNL     1      -1.898  -0.777  -1.129  0.00  0.00    +0.307 C 
ATOM      7  O   UNL     1      -1.214  -0.593  -2.117  0.00  0.00    -0.252 OA
ATOM      8  C   UNL     1      -3.816  -1.214   2.578  0.00  0.00    +0.247 C 
ATOM      9  O   UNL     1      -4.930  -1.603   2.881  0.00  0.00    -0.270 OA
ATOM     10  N   UNL     1      -2.886  -0.807   3.461  0.00  0.00    -0.280 N 
ATOM     11  C   UNL     1      -1.693  -0.424   2.691  0.00  0.00    +0.160 C 
ATOM     12  H   UNL     1      -3.502  -1.449  -2.164  0.00  0.00    +0.151 HD
ENDROOT
BRANCH   4  13
ATOM     13  C   UNL     1      -4.381  -2.917  -0.047  0.00  0.00    -0.011 A 
ATOM     14  C   UNL     1      -3.418  -3.909  -0.077  0.00  0.00    +0.006 A 
ATOM     15  C   UNL     1      -3.794  -5.239  -0.049  0.00  0.00    +0.000 A 
ATOM     16  C   UNL     1      -5.134  -5.577   0.010  0.00  0.00    +0.001 A 
ATOM     17  C   UNL     1      -6.096  -4.585   0.041  0.00  0.00    +0.013 A 
ATOM     18  C   UNL     1      -5.720  -3.255   0.017  0.00  0.00    +0.060 A 
BRANCH  18  19
ATOM     19  C   UNL     1      -6.769  -2.174   0.056  0.00  0.00    +0.418 C 
ATOM     20  F   UNL     1      -8.034  -2.757   0.191  0.00  0.00    -0.166 F 
ATOM     21  F   UNL     1      -6.527  -1.328   1.143  0.00  0.00    -0.166 F 
ATOM     22  F   UNL     1      -6.720  -1.434  -1.130  0.00  0.00    -0.166 F 
ENDBRANCH  18  19
ENDBRANCH   4  13
BRANCH   1  24
ATOM     23  C   UNL     1      -0.032   1.536   0.073  0.00  0.00    +0.025 C 
ATOM     24  C   UNL     1      -0.011   0.008   0.143  0.00  0.00    +0.111 C 
ENDBRANCH   1  24
BRANCH  10  25
ATOM     25  C   UNL     1      -3.035  -0.754   4.917  0.00  0.00    +0.167 C 
BRANCH  25  26
ATOM     26  C   UNL     1      -3.325  -2.136   5.443  0.00  0.00    +0.234 C 
ATOM     27  O   UNL     1      -3.400  -3.073   4.677  0.00  0.00    -0.274 OA
ATOM     28  N   UNL     1      -3.501  -2.331   6.765  0.00  0.00    -0.314 N 
ATOM     29  H   UNL     1      -3.441  -1.582   7.378  0.00  0.00    +0.149 HD
BRANCH  28  30
ATOM     30  C   UNL     1      -3.782  -3.675   7.276  0.00  0.00    +0.107 C 
BRANCH  30  31
ATOM     31  C   UNL     1      -3.938  -3.619   8.797  0.00  0.00    -0.000 C 
ATOM     32  C   UNL     1      -4.354  -4.997   9.318  0.00  0.00    +0.009 C 
ATOM     33  C   UNL     1      -2.605  -3.216   9.432  0.00  0.00    +0.009 C 
ENDBRANCH  30  31
ENDBRANCH  28  30
ENDBRANCH  25  26
BRANCH  25  34
ATOM     34  C   UNL     1      -4.191   0.181   5.278  0.00  0.00    +0.067 C 
BRANCH  34  35
ATOM     35  C   UNL     1      -3.848   1.588   4.861  0.00  0.00    -0.045 A 
ATOM     36  C   UNL     1      -3.191   2.429   5.740  0.00  0.00    +0.004 A 
ATOM     37  C   UNL     1      -2.876   3.719   5.357  0.00  0.00    +0.000 A 
ATOM     38  C   UNL     1      -3.217   4.169   4.096  0.00  0.00    +0.000 A 
ATOM     39  C   UNL     1      -3.873   3.328   3.216  0.00  0.00    +0.000 A 
ATOM     40  C   UNL     1      -4.184   2.036   3.598  0.00  0.00    +0.004 A 
ENDBRANCH  34  35
ENDBRANCH  25  34
ENDBRANCH  10  25
TORSDOF 9
