REMARK  Name = ZINC21811853
REMARK  12 active torsions:
REMARK  status: ('A' for Active; 'I' for Inactive)
REMARK    1  A    between atoms: C_1  and  C_2
REMARK    2  A    between atoms: C_2  and  N_3
REMARK    3  A    between atoms: N_3  and  C_4
REMARK    4  A    between atoms: N_3  and  C_6
REMARK    5  A    between atoms: C_4  and  C_5
REMARK    6  A    between atoms: C_6  and  C_7
REMARK    7  A    between atoms: C_7  and  C_8
REMARK    8  A    between atoms: C_8  and  N_9
REMARK    9  A    between atoms: C_18  and  C_19
REMARK   10  A    between atoms: C_18  and  C_20
REMARK   11  A    between atoms: N_22  and  C_23
REMARK   12  A    between atoms: C_31  and  C_33
REMARK                            x       y       z     vdW  Elec       q    Type
REMARK                         _______ _______ _______ _____ _____    ______ ____
ROOT
ATOM      1  N   UNL     1       0.868   0.147   2.347  0.00  0.00    -0.281 N 
ATOM      2  C   UNL     1       1.927   0.841   2.827  0.00  0.00    +0.264 C 
ATOM      3  O   UNL     1       2.030   2.043   2.670  0.00  0.00    -0.268 OA
ATOM      4  C   UNL     1       2.943   0.064   3.548  0.00  0.00    +0.109 A 
ATOM      5  C   UNL     1       4.013   0.474   4.288  0.00  0.00    +0.079 A 
ATOM      6  C   UNL     1       4.654  -0.676   4.773  0.00  0.00    +0.154 A 
ATOM      7  C   UNL     1       3.946  -1.783   4.305  0.00  0.00    +0.088 A 
ATOM      8  N   UNL     1       2.909  -1.328   3.548  0.00  0.00    -0.331 N 
ATOM      9  C   UNL     1       1.887  -2.072   2.806  0.00  0.00    +0.157 C 
ATOM     10  C   UNL     1       0.607  -1.233   2.738  0.00  0.00    +0.128 C 
ATOM     11  C   UNL     1      -0.345  -1.864   1.721  0.00  0.00    +0.043 C 
ATOM     12  C   UNL     1       4.614  -2.921   4.820  0.00  0.00    +0.071 A 
ATOM     13  C   UNL     1       5.655  -2.478   5.545  0.00  0.00    +0.105 A 
ATOM     14  O   UNL     1       5.682  -1.135   5.517  0.00  0.00    -0.458 OA
ATOM     15  C   UNL     1       6.641  -3.354   6.275  0.00  0.00    +0.086 C 
ENDROOT
BRANCH  10  16
ATOM     16  C   UNL     1      -0.057  -1.238   4.091  0.00  0.00    +0.238 C 
ATOM     17  O   UNL     1      -0.898  -2.073   4.351  0.00  0.00    -0.273 OA
ATOM     18  N   UNL     1       0.283  -0.315   5.012  0.00  0.00    -0.311 N 
ATOM     19  H   UNL     1       1.045   0.442   4.777  0.00  0.00    +0.149 HD
BRANCH  18  20
ATOM     20  C   UNL     1      -0.363  -0.320   6.327  0.00  0.00    +0.073 C 
ATOM     21  C   UNL     1      -1.706   0.433   6.228  0.00  0.00    +0.022 C 
ATOM     22  C   UNL     1      -2.580   0.003   7.375  0.00  0.00    +0.002 C 
ATOM     23  C   UNL     1      -2.468   0.950   8.586  0.00  0.00    +0.000 C 
ATOM     24  C   UNL     1      -1.019   1.390   8.868  0.00  0.00    +0.000 C 
ATOM     25  C   UNL     1      -0.036   0.259   8.729  0.00  0.00    +0.002 C 
ATOM     26  C   UNL     1       0.538   0.283   7.298  0.00  0.00    +0.022 C 
ENDBRANCH  18  20
ENDBRANCH  10  16
BRANCH   1  27
ATOM     27  C   UNL     1      -0.047   0.806   1.411  0.00  0.00    +0.107 C 
BRANCH  27  28
ATOM     28  C   UNL     1       0.437   0.575  -0.022  0.00  0.00    +0.000 C 
BRANCH  28  29
ATOM     29  C   UNL     1      -0.518   1.263  -1.000  0.00  0.00    -0.077 C 
BRANCH  29  30
ATOM     30  N   UNL     1      -0.054   1.042  -2.376  0.00  0.00    +0.379 N 
ATOM     31  H   UNL     1       0.101  -0.039  -2.511  0.00  0.00    -0.082 HD
BRANCH  30  33
ATOM     32  C   UNL     1      -2.195   0.451  -3.408  0.00  0.00    -0.017 C 
ATOM     33  C   UNL     1      -1.063   1.479  -3.349  0.00  0.00    -0.082 C 
ENDBRANCH  30  33
BRANCH  30  34
ATOM     34  C   UNL     1       1.231   1.714  -2.612  0.00  0.00    -0.082 C 
ATOM     35  C   UNL     1       1.874   1.153  -3.882  0.00  0.00    -0.017 C 
ENDBRANCH  30  34
ENDBRANCH  29  30
ENDBRANCH  28  29
ENDBRANCH  27  28
ENDBRANCH   1  27
TORSDOF 8
