REMARK  Name = ZINC35427242
REMARK  5 active torsions:
REMARK  status: ('A' for Active; 'I' for Inactive)
REMARK    1  A    between atoms: C_1  and  C_2
REMARK    2  A    between atoms: C_5  and  C_37
REMARK    3  A    between atoms: C_6  and  N_8
REMARK    4  A    between atoms: C_23  and  C_25
REMARK    5  A    between atoms: N_33  and  C_36
REMARK                            x       y       z     vdW  Elec       q    Type
REMARK                         _______ _______ _______ _____ _____    ______ ____
ROOT
ATOM      1  N   UNL     1       0.050  -2.784   2.390  0.00  0.00    -0.269 N 
ATOM      2  C   UNL     1       0.150  -2.125   3.562  0.00  0.00    +0.308 C 
ATOM      3  O   UNL     1       0.136  -0.909   3.579  0.00  0.00    -0.252 OA
ATOM      4  N   UNL     1       0.265  -2.814   4.715  0.00  0.00    -0.268 N 
ATOM      5  C   UNL     1       0.292  -4.288   4.734  0.00  0.00    +0.148 C 
ATOM      6  C   UNL     1      -0.488  -4.872   5.891  0.00  0.00    +0.004 A 
ATOM      7  C   UNL     1      -1.695  -5.577   5.729  0.00  0.00    -0.034 A 
ATOM      8  C   UNL     1      -2.297  -6.071   6.844  0.00  0.00    -0.021 A 
ATOM      9  S   UNL     1      -1.216  -5.581   8.161  0.00  0.00    -0.077 S 
ATOM     10  C   UNL     1      -0.030  -4.729   7.165  0.00  0.00    +0.090 A 
ATOM     11  N   UNL     1       1.118  -4.026   7.506  0.00  0.00    -0.312 N 
ATOM     12  C   UNL     1       2.142  -4.329   8.337  0.00  0.00    +0.092 A 
ATOM     13  C   UNL     1       3.053  -3.332   8.261  0.00  0.00    +0.020 A 
ATOM     14  C   UNL     1       2.553  -2.368   7.359  0.00  0.00    +0.025 A 
ATOM     15  C   UNL     1       1.359  -2.801   6.929  0.00  0.00    +0.049 A 
ATOM     16  C   UNL     1       0.376  -2.127   6.024  0.00  0.00    +0.155 C 
ATOM     17  C   UNL     1      -3.575  -6.841   6.906  0.00  0.00    -0.036 C 
ATOM     18  N   UNL     1      -4.281  -6.671   5.622  0.00  0.00    +0.381 N 
ATOM     19  C   UNL     1      -3.356  -6.950   4.515  0.00  0.00    -0.074 C 
ATOM     20  C   UNL     1      -2.345  -5.810   4.367  0.00  0.00    +0.018 C 
ATOM     21  C   UNL     1      -5.415  -7.602   5.559  0.00  0.00    -0.096 C 
ATOM     22  H   UNL     1      -0.021  -3.751   2.382  0.00  0.00    +0.156 HD
ATOM     23  H   UNL     1      -4.619  -5.723   5.547  0.00  0.00    -0.082 HD
ENDROOT
BRANCH   1  29
ATOM     24  C   UNL     1       1.279   1.246  -0.144  0.00  0.00    +0.044 C 
ATOM     25  C   UNL     1       0.639  -0.116  -0.071  0.00  0.00    -0.049 A 
ATOM     26  C   UNL     1       0.050  -0.664  -1.197  0.00  0.00    +0.004 A 
ATOM     27  C   UNL     1      -0.538  -1.914  -1.134  0.00  0.00    +0.005 A 
ATOM     28  C   UNL     1      -0.540  -2.619   0.054  0.00  0.00    -0.029 A 
ATOM     29  C   UNL     1       0.050  -2.072   1.185  0.00  0.00    +0.038 A 
ATOM     30  C   UNL     1       0.645  -0.819   1.118  0.00  0.00    +0.027 A 
ATOM     31  C   UNL     1      -1.182  -3.981   0.122  0.00  0.00    +0.045 C 
ENDBRANCH   1  29
BRANCH  16  32
ATOM     32  C   UNL     1      -0.975  -2.119   6.691  0.00  0.00    -0.021 A 
ATOM     33  C   UNL     1      -1.064  -2.120   8.071  0.00  0.00    +0.008 A 
ATOM     34  C   UNL     1      -2.302  -2.113   8.684  0.00  0.00    +0.038 A 
ATOM     35  C   UNL     1      -3.454  -2.105   7.916  0.00  0.00    +0.123 A 
ATOM     36  C   UNL     1      -3.364  -2.103   6.534  0.00  0.00    +0.038 A 
ATOM     37  C   UNL     1      -2.124  -2.105   5.923  0.00  0.00    +0.008 A 
ATOM     38  F   UNL     1      -4.665  -2.098   8.514  0.00  0.00    -0.205 F 
ENDBRANCH  16  32
TORSDOF 2
