REMARK  Name = ZINC40370985
REMARK  8 active torsions:
REMARK  status: ('A' for Active; 'I' for Inactive)
REMARK    1  A    between atoms: C_1  and  C_2
REMARK    2  A    between atoms: C_2  and  C_3
REMARK    3  A    between atoms: C_3  and  C_4
REMARK    4  A    between atoms: C_3  and  C_6
REMARK    5  A    between atoms: C_3  and  N_10
REMARK    6  A    between atoms: C_4  and  C_5
REMARK    7  A    between atoms: N_7  and  O_8
REMARK    8  A    between atoms: C_11  and  C_13
REMARK                            x       y       z     vdW  Elec       q    Type
REMARK                         _______ _______ _______ _____ _____    ______ ____
ROOT
ATOM      1  C   UNL     1       0.765  -0.600  -1.195  0.00  0.00    +0.093 C 
ENDROOT
BRANCH   1   2
ATOM      2  C   UNL     1       0.138  -0.101  -2.472  0.00  0.00    +0.155 C 
ATOM      3  N   UNL     1      -0.533  -0.912  -3.222  0.00  0.00    -0.075 NA
ATOM      4  N   UNL     1       0.281   1.218  -2.840  0.00  0.00    -0.342 N 
ATOM      5  H   UNL     1       0.715   1.844  -2.240  0.00  0.00    +0.144 HD
ATOM      6  H   UNL     1      -0.054   1.521  -3.698  0.00  0.00    +0.144 HD
BRANCH   3   7
ATOM      7  O   UNL     1      -1.122  -0.444  -4.421  0.00  0.00    -0.408 OA
ATOM      8  H   UNL     1      -1.603  -1.122  -4.914  0.00  0.00    +0.328 HD
ENDBRANCH   3   7
ENDBRANCH   1   2
BRANCH   1   9
ATOM      9  N   UNL     1       2.194  -0.278  -1.195  0.00  0.00    -0.299 N 
ATOM     10  C   UNL     1       2.964  -0.630  -0.146  0.00  0.00    +0.245 C 
ATOM     11  O   UNL     1       2.472  -1.215   0.799  0.00  0.00    -0.270 OA
ATOM     12  H   UNL     1       2.586   0.188  -1.950  0.00  0.00    +0.150 HD
BRANCH  10  13
ATOM     13  C   UNL     1       4.406  -0.306  -0.146  0.00  0.00    +0.038 A 
ATOM     14  C   UNL     1       4.973   0.370  -1.228  0.00  0.00    +0.013 A 
ATOM     15  C   UNL     1       6.319   0.670  -1.221  0.00  0.00    +0.002 A 
ATOM     16  C   UNL     1       7.108   0.302  -0.146  0.00  0.00    +0.014 A 
ATOM     17  C   UNL     1       6.553  -0.368   0.930  0.00  0.00    +0.014 A 
ATOM     18  C   UNL     1       5.206  -0.669   0.939  0.00  0.00    +0.027 A 
ATOM     19  I   UNL     1       7.758  -0.920   2.552  0.00  0.00    -0.044 I 
ENDBRANCH  10  13
ENDBRANCH   1   9
BRANCH   1  21
ATOM     20  C   UNL     1      -1.421  -0.154  -0.071  0.00  0.00    +0.006 C 
ATOM     21  C   UNL     1       0.090   0.074   0.001  0.00  0.00    +0.030 C 
ENDBRANCH   1  21
BRANCH   1  22
ATOM     22  C   UNL     1       0.583  -2.116  -1.096  0.00  0.00    +0.030 C 
ATOM     23  C   UNL     1       1.362  -2.798  -2.223  0.00  0.00    +0.006 C 
ENDBRANCH   1  22
TORSDOF 6
