REMARK  Name = ZINC45890271
REMARK  8 active torsions:
REMARK  status: ('A' for Active; 'I' for Inactive)
REMARK    1  A    between atoms: C_1  and  C_2
REMARK    2  A    between atoms: C_4  and  O_9
REMARK    3  A    between atoms: O_9  and  C_10
REMARK    4  A    between atoms: C_10  and  C_11
REMARK    5  A    between atoms: N_13  and  C_14
REMARK    6  A    between atoms: C_15  and  C_26
REMARK    7  A    between atoms: C_19  and  C_20
REMARK    8  A    between atoms: N_24  and  N_25
REMARK                            x       y       z     vdW  Elec       q    Type
REMARK                         _______ _______ _______ _____ _____    ______ ____
ROOT
ATOM      1  C   UNL     1       0.492  -6.562  -5.223  0.00  0.00    +0.041 A 
ATOM      2  C   UNL     1       0.191  -5.756  -6.318  0.00  0.00    -0.027 A 
ATOM      3  C   UNL     1      -0.025  -6.285  -7.552  0.00  0.00    +0.034 A 
ATOM      4  C   UNL     1       0.048  -7.680  -7.769  0.00  0.00    +0.081 A 
ATOM      5  C   UNL     1       0.356  -8.473  -6.641  0.00  0.00    +0.045 A 
ATOM      6  C   UNL     1       0.579  -7.937  -5.398  0.00  0.00    -0.013 A 
ATOM      7  C   UNL     1       0.909  -8.833  -4.231  0.00  0.00    +0.047 C 
ATOM      8  S   UNL     1       0.354 -10.115  -7.320  0.00  0.00    -0.051 S 
ATOM      9  C   UNL     1      -0.042  -9.662  -9.003  0.00  0.00    +0.173 A 
ATOM     10  N   UNL     1      -0.139  -8.355  -8.926  0.00  0.00    -0.224 NA
ATOM     11  N   UNL     1      -0.205 -10.480 -10.104  0.00  0.00    -0.262 N 
ATOM     12  C   UNL     1       0.103  -4.263  -6.131  0.00  0.00    +0.046 C 
ATOM     13  H   UNL     1      -0.103 -11.440 -10.014  0.00  0.00    +0.168 HD
ENDROOT
BRANCH   1  16
ATOM     14  C   UNL     1       0.008  -6.423  -2.896  0.00  0.00    +0.255 C 
ATOM     15  O   UNL     1      -0.877  -7.240  -3.044  0.00  0.00    -0.272 OA
ATOM     16  N   UNL     1       0.711  -5.992  -3.962  0.00  0.00    -0.282 N 
ATOM     17  H   UNL     1       1.369  -5.287  -3.856  0.00  0.00    +0.155 HD
BRANCH  14  18
ATOM     18  C   UNL     1       0.320  -5.890  -1.522  0.00  0.00    +0.324 C 
BRANCH  18  19
ATOM     19  O   UNL     1      -0.555  -6.494  -0.567  0.00  0.00    -0.483 OA
BRANCH  19  23
ATOM     20  C   UNL     1      -1.952  -6.879   4.094  0.00  0.00    +0.045 C 
ATOM     21  C   UNL     1      -1.065  -6.285   3.030  0.00  0.00    -0.029 A 
ATOM     22  C   UNL     1      -1.220  -6.667   1.711  0.00  0.00    +0.050 A 
ATOM     23  C   UNL     1      -0.405  -6.120   0.731  0.00  0.00    +0.122 A 
ATOM     24  C   UNL     1       0.565  -5.190   1.078  0.00  0.00    +0.047 A 
ATOM     25  C   UNL     1       0.717  -4.811   2.398  0.00  0.00    +0.024 A 
ATOM     26  C   UNL     1      -0.102  -5.354   3.373  0.00  0.00    +0.044 A 
ATOM     27 CL   UNL     1       0.086  -4.871   5.030  0.00  0.00    -0.083 Cl
ENDBRANCH  19  23
ENDBRANCH  18  19
ENDBRANCH  14  18
ENDBRANCH   1  16
BRANCH  11  28
ATOM     28  N   UNL     1      -0.510  -9.935 -11.319  0.00  0.00    -0.255 NA
ATOM     29  H   UNL     1      -0.597 -10.652 -12.024  0.00  0.00    +0.140 HD
ATOM     30  H   UNL     1      -1.348  -9.377 -11.265  0.00  0.00    +0.140 HD
ENDBRANCH  11  28
TORSDOF 5
