REMARK  Name = ZINC09090266
REMARK  5 active torsions:
REMARK  status: ('A' for Active; 'I' for Inactive)
REMARK    1  A    between atoms: C_3  and  N_14
REMARK    2  A    between atoms: C_4  and  N_11
REMARK    3  A    between atoms: C_6  and  S_7
REMARK    4  A    between atoms: S_7  and  N_10
REMARK    5  A    between atoms: N_14  and  N_15
REMARK                            x       y       z     vdW  Elec       q    Type
REMARK                         _______ _______ _______ _____ _____    ______ ____
ROOT
ATOM      1  N   UNL     1       3.905   1.660  -0.346  0.00  0.00    -0.235 N 
ATOM      2  H   UNL     1       4.609   1.002  -0.462  0.00  0.00    +0.174 HD
ENDROOT
BRANCH   1   3
ATOM      3  N   UNL     1       4.162   2.914  -0.502  0.00  0.00    -0.177 NA
ATOM      4  C   UNL     1       5.397   3.310  -0.715  0.00  0.00    +0.153 C 
ATOM      5  C   UNL     1       6.630   2.492  -0.653  0.00  0.00    +0.031 A 
ATOM      6  C   UNL     1       6.870   1.150  -0.373  0.00  0.00    +0.032 A 
ATOM      7  C   UNL     1       8.163   0.667  -0.393  0.00  0.00    +0.043 A 
ATOM      8  C   UNL     1       9.217   1.516  -0.690  0.00  0.00    +0.042 A 
ATOM      9  C   UNL     1       8.989   2.849  -0.969  0.00  0.00    +0.064 A 
ATOM     10  C   UNL     1       7.692   3.353  -0.954  0.00  0.00    +0.062 A 
ATOM     11  N   UNL     1       7.193   4.629  -1.194  0.00  0.00    -0.278 N 
ATOM     12  C   UNL     1       5.855   4.663  -1.074  0.00  0.00    +0.269 C 
ATOM     13  O   UNL     1       5.146   5.641  -1.231  0.00  0.00    -0.268 OA
ATOM     14 CL   UNL     1      10.322   3.898  -1.338  0.00  0.00    -0.082 Cl
ATOM     15 CL   UNL     1       8.469  -1.006  -0.045  0.00  0.00    -0.083 Cl
ATOM     16  H   UNL     1       7.741   5.397  -1.422  0.00  0.00    +0.155 HD
ENDBRANCH   1   3
BRANCH   1  19
ATOM     17  C   UNL     1       0.305   1.765   0.380  0.00  0.00    +0.030 A 
ATOM     18  C   UNL     1       1.581   2.176   0.049  0.00  0.00    +0.029 A 
ATOM     19  C   UNL     1       2.615   1.248  -0.012  0.00  0.00    +0.079 A 
ATOM     20  C   UNL     1       2.359  -0.090   0.262  0.00  0.00    +0.150 A 
ATOM     21  C   UNL     1       1.081  -0.494   0.593  0.00  0.00    +0.063 A 
ATOM     22  C   UNL     1       0.055   0.432   0.651  0.00  0.00    +0.107 A 
BRANCH  22  23
ATOM     23  S   UNL     1      -1.575  -0.087   1.073  0.00  0.00    +0.056 S 
ATOM     24  O   UNL     1      -1.438  -1.292   1.814  0.00  0.00    -0.153 OA
ATOM     25  O   UNL     1      -2.244   1.054   1.593  0.00  0.00    -0.153 OA
BRANCH  23  26
ATOM     26  N   UNL     1      -2.344  -0.484  -0.339  0.00  0.00    -0.204 NA
ATOM     27  H   UNL     1      -3.033  -1.166  -0.341  0.00  0.00    +0.144 HD
ATOM     28  H   UNL     1      -2.105  -0.034  -1.164  0.00  0.00    +0.144 HD
ENDBRANCH  23  26
ENDBRANCH  22  23
BRANCH  20  29
ATOM     29  N   UNL     1       3.456  -1.082   0.199  0.00  0.00    +0.058 N 
ATOM     30  O   UNL     1       3.256  -2.175  -0.279  0.00  0.00    -0.126 OA
ATOM     31  O   UNL     1       4.551  -0.800   0.625  0.00  0.00    -0.126 OA
ENDBRANCH  20  29
ENDBRANCH   1  19
TORSDOF 5
