REMARK  Name = ZINC28537694
REMARK  11 active torsions:
REMARK  status: ('A' for Active; 'I' for Inactive)
REMARK    1  A    between atoms: C_1  and  C_2
REMARK    2  A    between atoms: C_8  and  C_28
REMARK    3  A    between atoms: C_12  and  C_14
REMARK    4  A    between atoms: C_12  and  C_17
REMARK    5  A    between atoms: C_14  and  C_15
REMARK    6  A    between atoms: C_15  and  O_16
REMARK    7  A    between atoms: C_17  and  O_18
REMARK    8  A    between atoms: C_21  and  O_27
REMARK    9  A    between atoms: C_23  and  C_24
REMARK   10  A    between atoms: C_23  and  C_25
REMARK   11  A    between atoms: C_25  and  O_26
REMARK                            x       y       z     vdW  Elec       q    Type
REMARK                         _______ _______ _______ _____ _____    ______ ____
ROOT
ATOM      1  C   UNL     1       0.962  -1.589  -1.820  0.00  0.00    +0.010 C 
ATOM      2  C   UNL     1       2.035  -0.924  -0.961  0.00  0.00    +0.018 C 
ATOM      3  C   UNL     1       3.280  -1.792  -0.884  0.00  0.00    +0.006 C 
ATOM      4  C   UNL     1       3.129  -2.909   0.152  0.00  0.00    +0.005 C 
ATOM      5  C   UNL     1       2.841  -2.257   1.507  0.00  0.00    +0.008 C 
ATOM      6  C   UNL     1       1.487  -1.570   1.457  0.00  0.00    +0.001 C 
ATOM      7  C   UNL     1       1.499  -0.479   0.387  0.00  0.00    +0.079 C 
ATOM      8  C   UNL     1       2.340   0.730   0.871  0.00  0.00    +0.039 C 
ATOM      9  C   UNL     1       1.692   1.879   0.045  0.00  0.00    +0.040 C 
ATOM     10  C   UNL     1       0.205   1.461   0.048  0.00  0.00    +0.095 C 
ATOM     11  O   UNL     1       0.165   0.040   0.231  0.00  0.00    -0.364 OA
ATOM     12  C   UNL     1       1.174  -0.954   2.826  0.00  0.00    +0.012 C 
ATOM     13  C   UNL     1       1.174  -2.056   3.888  0.00  0.00    +0.032 C 
ATOM     14  C   UNL     1       2.564  -2.672   3.990  0.00  0.00    +0.123 C 
ATOM     15  C   UNL     1       3.052  -3.224   2.652  0.00  0.00    +0.020 C 
ATOM     16  C   UNL     1       4.577  -3.452   2.805  0.00  0.00    +0.016 C 
ATOM     17  C   UNL     1       0.354  -2.551   1.128  0.00  0.00    +0.014 C 
ENDROOT
BRANCH  14  18
ATOM     18  O   UNL     1       3.490  -1.687   4.461  0.00  0.00    -0.391 OA
ATOM     19  H   UNL     1       4.550  -1.950   4.599  0.00  0.00    +0.210 HD
ENDBRANCH  14  18
BRANCH  10  20
ATOM     20  C   UNL     1      -0.448   1.843  -1.281  0.00  0.00    +0.065 C 
BRANCH  20  21
ATOM     21  C   UNL     1      -0.272   3.344  -1.522  0.00  0.00    +0.158 C 
BRANCH  21  22
ATOM     22  O   UNL     1      -0.786   3.682  -2.812  0.00  0.00    -0.395 OA
ATOM     23  H   UNL     1      -0.747   4.724  -3.163  0.00  0.00    +0.209 HD
ENDBRANCH  21  22
ENDBRANCH  20  21
ENDBRANCH  10  20
BRANCH  10  24
ATOM     24  C   UNL     1      -0.528   2.155   1.199  0.00  0.00    +0.190 C 
BRANCH  24  25
ATOM     25  O   UNL     1      -1.894   1.736   1.215  0.00  0.00    -0.392 OA
ATOM     26  H   UNL     1      -2.581   2.132   1.977  0.00  0.00    +0.210 HD
ENDBRANCH  24  25
ENDBRANCH  10  24
BRANCH  15  27
ATOM     27  C   UNL     1       2.419  -4.591   2.393  0.00  0.00    +0.165 C 
BRANCH  27  28
ATOM     28  O   UNL     1       2.830  -5.507   3.410  0.00  0.00    -0.394 OA
ATOM     29  H   UNL     1       2.473  -6.547   3.390  0.00  0.00    +0.209 HD
ENDBRANCH  27  28
ENDBRANCH  15  27
TORSDOF 8
