REMARK  Name = ZINC38649704
REMARK  10 active torsions:
REMARK  status: ('A' for Active; 'I' for Inactive)
REMARK    1  A    between atoms: C_1  and  C_2
REMARK    2  A    between atoms: C_2  and  C_3
REMARK    3  A    between atoms: C_2  and  C_4
REMARK    4  A    between atoms: C_2  and  C_5
REMARK    5  A    between atoms: C_8  and  C_11
REMARK    6  A    between atoms: C_16  and  O_25
REMARK    7  A    between atoms: C_20  and  N_24
REMARK    8  A    between atoms: C_21  and  C_22
REMARK    9  A    between atoms: O_25  and  C_26
REMARK   10  A    between atoms: C_26  and  C_28
REMARK                            x       y       z     vdW  Elec       q    Type
REMARK                         _______ _______ _______ _____ _____    ______ ____
ROOT
ATOM      1  C   UNL     1       2.657  -1.878  -4.794  0.00  0.00    +0.098 C 
ATOM      2  C   UNL     1       3.117  -0.692  -5.598  0.00  0.00    +0.008 A 
ATOM      3  C   UNL     1       2.220  -0.043  -6.428  0.00  0.00    +0.012 A 
ATOM      4  C   UNL     1       2.624   1.047  -7.174  0.00  0.00    +0.047 A 
ATOM      5  C   UNL     1       3.935   1.495  -7.093  0.00  0.00    +0.135 A 
ATOM      6  C   UNL     1       4.836   0.848  -6.263  0.00  0.00    +0.093 A 
ATOM      7  C   UNL     1       4.428  -0.247  -5.513  0.00  0.00    +0.138 A 
ATOM      8  O   UNL     1       5.322  -0.870  -4.706  0.00  0.00    -0.441 OA
ATOM      9  C   UNL     1       5.084  -2.123  -4.283  0.00  0.00    +0.199 C 
ATOM     10  C   UNL     1       3.843  -2.658  -4.299  0.00  0.00    +0.098 C 
ENDROOT
BRANCH   1  14
ATOM     11  C   UNL     1       0.364  -0.522  -1.454  0.00  0.00    -0.042 A 
ATOM     12  C   UNL     1      -0.211  -1.356  -2.396  0.00  0.00    +0.004 A 
ATOM     13  C   UNL     1       0.531  -1.794  -3.476  0.00  0.00    +0.005 A 
ATOM     14  C   UNL     1       1.848  -1.399  -3.616  0.00  0.00    -0.035 A 
ATOM     15  C   UNL     1       2.423  -0.565  -2.676  0.00  0.00    +0.005 A 
ATOM     16  C   UNL     1       1.680  -0.123  -1.597  0.00  0.00    +0.004 A 
BRANCH  11  18
ATOM     17  C   UNL     1      -0.522   1.484  -0.297  0.00  0.00    +0.015 C 
ATOM     18  C   UNL     1      -0.445  -0.044  -0.276  0.00  0.00    -0.013 C 
ATOM     19  C   UNL     1       0.223  -0.503   1.021  0.00  0.00    +0.015 C 
ATOM     20  C   UNL     1      -1.857  -0.628  -0.357  0.00  0.00    +0.015 C 
ENDBRANCH  11  18
ENDBRANCH   1  14
BRANCH   9  21
ATOM     21  N   UNL     1       6.131  -2.880  -3.821  0.00  0.00    -0.328 N 
ATOM     22  H   UNL     1       7.027  -2.509  -3.804  0.00  0.00    +0.145 HD
ATOM     23  H   UNL     1       5.976  -3.786  -3.513  0.00  0.00    +0.145 HD
ENDBRANCH   9  21
BRANCH  10  24
ATOM     24  C   UNL     1       3.656  -3.999  -3.833  0.00  0.00    +0.101 C 
ATOM     25  N   UNL     1       3.509  -5.063  -3.464  0.00  0.00    -0.191 NA
ENDBRANCH  10  24
BRANCH   5  26
ATOM     26  O   UNL     1       4.334   2.567  -7.827  0.00  0.00    -0.422 OA
BRANCH  26  27
ATOM     27  C   UNL     1       3.849   3.779  -7.492  0.00  0.00    +0.344 C 
ATOM     28  O   UNL     1       3.162   3.905  -6.498  0.00  0.00    -0.245 OA
BRANCH  27  29
ATOM     29  C   UNL     1       4.151   4.953  -8.335  0.00  0.00    +0.059 A 
ATOM     30  C   UNL     1       4.935   4.810  -9.481  0.00  0.00    +0.016 A 
ATOM     31  C   UNL     1       5.214   5.911 -10.264  0.00  0.00    +0.021 A 
ATOM     32  C   UNL     1       4.719   7.156  -9.914  0.00  0.00    +0.041 A 
ATOM     33  C   UNL     1       3.941   7.305  -8.778  0.00  0.00    +0.021 A 
ATOM     34  C   UNL     1       3.649   6.210  -7.991  0.00  0.00    +0.016 A 
ATOM     35 CL   UNL     1       5.075   8.537 -10.904  0.00  0.00    -0.084 Cl
ENDBRANCH  27  29
ENDBRANCH  26  27
ENDBRANCH   5  26
TORSDOF 7
