REMARK  Name = ZINC42858911
REMARK  6 active torsions:
REMARK  status: ('A' for Active; 'I' for Inactive)
REMARK    1  A    between atoms: C_1  and  C_2
REMARK    2  A    between atoms: C_8  and  C_10
REMARK    3  A    between atoms: C_10  and  N_11
REMARK    4  A    between atoms: N_11  and  S_12
REMARK    5  A    between atoms: S_12  and  C_15
REMARK    6  A    between atoms: C_18  and  N_22
REMARK                            x       y       z     vdW  Elec       q    Type
REMARK                         _______ _______ _______ _____ _____    ______ ____
ROOT
ATOM      1  S   UNL     1       4.498  -0.262   2.591  0.00  0.00    +0.061 S 
ATOM      2  O   UNL     1       4.839  -0.674   3.908  0.00  0.00    -0.153 OA
ATOM      3  O   UNL     1       5.028  -0.893   1.434  0.00  0.00    -0.153 OA
ENDROOT
BRANCH   1   4
ATOM      4  C   UNL     1       4.921   1.444   2.472  0.00  0.00    +0.133 A 
ATOM      5  C   UNL     1       5.173   2.009   1.234  0.00  0.00    +0.047 A 
ATOM      6  C   UNL     1       5.505   3.347   1.138  0.00  0.00    +0.040 A 
ATOM      7  C   UNL     1       5.587   4.125   2.285  0.00  0.00    +0.027 A 
ATOM      8  C   UNL     1       5.333   3.556   3.527  0.00  0.00    +0.040 A 
ATOM      9  C   UNL     1       4.996   2.219   3.616  0.00  0.00    +0.047 A 
ATOM     10 BR   UNL     1       4.644   1.445   5.305  0.00  0.00    -0.048 Br
ATOM     11 BR   UNL     1       5.062   0.948  -0.328  0.00  0.00    -0.048 Br
BRANCH   7  12
ATOM     12  N   UNL     1       5.923   5.477   2.191  0.00  0.00    -0.358 N 
ATOM     13  H   UNL     1       6.100   5.874   1.324  0.00  0.00    +0.142 HD
ATOM     14  H   UNL     1       5.980   6.020   2.993  0.00  0.00    +0.142 HD
ENDBRANCH   7  12
ENDBRANCH   1   4
BRANCH   1  15
ATOM     15  N   UNL     1       2.849  -0.367   2.474  0.00  0.00    -0.190 NA
ATOM     16  H   UNL     1       2.329  -0.683   3.229  0.00  0.00    +0.148 HD
BRANCH  15  17
ATOM     17  C   UNL     1       2.178   0.019   1.231  0.00  0.00    +0.109 C 
BRANCH  17  24
ATOM     18  C   UNL     1      -0.019   1.526   0.010  0.00  0.00    +0.008 C 
ATOM     19  C   UNL     1       0.002  -0.004   0.002  0.00  0.00    -0.010 C 
ATOM     20  C   UNL     1      -1.433  -0.534   0.013  0.00  0.00    +0.003 C 
ATOM     21  C   UNL     1      -1.413  -2.063   0.004  0.00  0.00    +0.000 C 
ATOM     22  C   UNL     1      -0.673  -2.570   1.244  0.00  0.00    +0.000 C 
ATOM     23  C   UNL     1       0.763  -2.041   1.233  0.00  0.00    +0.005 C 
ATOM     24  C   UNL     1       0.742  -0.511   1.242  0.00  0.00    +0.007 C 
ENDBRANCH  17  24
ENDBRANCH  15  17
ENDBRANCH   1  15
TORSDOF 5
