REMARK  Name = ZINC20894997
REMARK  7 active torsions:
REMARK  status: ('A' for Active; 'I' for Inactive)
REMARK    1  A    between atoms: C_1  and  C_2
REMARK    2  A    between atoms: C_2  and  C_4
REMARK    3  A    between atoms: C_2  and  S_11
REMARK    4  A    between atoms: N_9  and  C_10
REMARK    5  A    between atoms: S_11  and  C_12
REMARK    6  A    between atoms: C_17  and  C_19
REMARK    7  A    between atoms: N_27  and  C_28
REMARK                            x       y       z     vdW  Elec       q    Type
REMARK                         _______ _______ _______ _____ _____    ______ ____
ROOT
ATOM      1  C   UNL     1      -2.223  -4.701   1.312  0.00  0.00    +0.178 A 
ATOM      2  N   UNL     1      -1.030  -5.141   0.964  0.00  0.00    -0.215 NA
ATOM      3  C   UNL     1      -0.888  -6.298   0.334  0.00  0.00    +0.117 A 
ATOM      4  C   UNL     1      -1.990  -7.115   0.005  0.00  0.00    +0.073 A 
ATOM      5  C   UNL     1      -1.682  -8.313  -0.663  0.00  0.00    +0.031 A 
ATOM      6  C   UNL     1      -0.390  -8.615  -0.947  0.00  0.00    +0.022 A 
ATOM      7  S   UNL     1       0.499  -7.215  -0.288  0.00  0.00    -0.068 S 
ATOM      8  C   UNL     1      -3.273  -6.611   0.396  0.00  0.00    +0.267 A 
ATOM      9  O   UNL     1      -4.285  -7.246   0.156  0.00  0.00    -0.267 OA
ATOM     10  N   UNL     1      -3.346  -5.431   1.038  0.00  0.00    -0.255 N 
ENDROOT
BRANCH   6  11
ATOM     11  C   UNL     1       0.147  -9.808  -1.634  0.00  0.00    -0.011 A 
ATOM     12  C   UNL     1      -0.717 -10.810  -2.078  0.00  0.00    +0.009 A 
ATOM     13  C   UNL     1      -0.209 -11.919  -2.724  0.00  0.00    +0.001 A 
ATOM     14  C   UNL     1       1.155 -12.044  -2.921  0.00  0.00    +0.000 A 
ATOM     15  C   UNL     1       2.017 -11.057  -2.478  0.00  0.00    +0.001 A 
ATOM     16  C   UNL     1       1.522  -9.941  -1.836  0.00  0.00    +0.009 A 
ENDBRANCH   6  11
BRANCH  10  17
ATOM     17  C   UNL     1      -4.598  -4.937   1.428  0.00  0.00    +0.052 A 
ATOM     18  C   UNL     1      -5.114  -5.258   2.676  0.00  0.00    +0.026 A 
ATOM     19  C   UNL     1      -6.346  -4.766   3.060  0.00  0.00    +0.002 A 
ATOM     20  C   UNL     1      -7.071  -3.963   2.197  0.00  0.00    +0.000 A 
ATOM     21  C   UNL     1      -6.561  -3.646   0.952  0.00  0.00    +0.002 A 
ATOM     22  C   UNL     1      -5.327  -4.130   0.565  0.00  0.00    +0.026 A 
ENDBRANCH  10  17
BRANCH   1  23
ATOM     23  S   UNL     1      -2.371  -3.158   2.149  0.00  0.00    -0.075 S 
BRANCH  23  25
ATOM     24  C   UNL     1      -0.092  -2.445   0.822  0.00  0.00    +0.029 C 
ATOM     25  C   UNL     1      -0.628  -2.679   2.236  0.00  0.00    +0.137 C 
BRANCH  25  26
ATOM     26  C   UNL     1      -0.495  -1.411   3.040  0.00  0.00    +0.233 C 
ATOM     27  O   UNL     1      -1.457  -0.690   3.198  0.00  0.00    -0.274 OA
ATOM     28  N   UNL     1       0.693  -1.078   3.582  0.00  0.00    -0.239 N 
ATOM     29  C   UNL     1       0.812   0.056   4.300  0.00  0.00    +0.306 C 
ATOM     30  O   UNL     1      -0.151   0.781   4.455  0.00  0.00    -0.252 OA
ATOM     31  N   UNL     1       2.000   0.389   4.842  0.00  0.00    -0.302 N 
ATOM     32  C   UNL     1       2.130   1.622   5.623  0.00  0.00    +0.129 C 
ATOM     33  H   UNL     1       1.566  -1.732   3.438  0.00  0.00    +0.159 HD
ATOM     34  H   UNL     1       2.873  -0.265   4.698  0.00  0.00    +0.150 HD
ENDBRANCH  25  26
ENDBRANCH  23  25
ENDBRANCH   1  23
TORSDOF 5
