REMARK  Name = ZINC12099348
REMARK  5 active torsions:
REMARK  status: ('A' for Active; 'I' for Inactive)
REMARK    1  A    between atoms: C_10  and  C_12
REMARK    2  A    between atoms: C_12  and  N_13
REMARK    3  A    between atoms: C_14  and  C_16
REMARK    4  A    between atoms: C_16  and  N_60
REMARK    5  A    between atoms: C_25  and  C_28
REMARK                            x       y       z     vdW  Elec       q    Type
REMARK                         _______ _______ _______ _____ _____    ______ ____
ROOT
ATOM      1  C   UNL     1      -0.395  -0.176  -4.954  0.00  0.00    -0.038 C 
ATOM      2  C   UNL     1       0.835  -0.681  -5.686  0.00  0.00    -0.022 A 
ATOM      3  C   UNL     1       1.774  -1.443  -5.022  0.00  0.00    +0.005 A 
ATOM      4  C   UNL     1       2.880  -1.915  -5.707  0.00  0.00    +0.000 A 
ATOM      5  C   UNL     1       3.040  -1.623  -7.050  0.00  0.00    +0.004 A 
ATOM      6  C   UNL     1       2.103  -0.853  -7.712  0.00  0.00    +0.046 A 
ATOM      7  C   UNL     1       0.998  -0.371  -7.022  0.00  0.00    +0.123 A 
ATOM      8  O   UNL     1       0.088   0.416  -7.657  0.00  0.00    -0.486 OA
ATOM      9  C   UNL     1       0.072   1.788  -7.246  0.00  0.00    +0.190 C 
ATOM     10  C   UNL     1      -0.807   1.971  -6.027  0.00  0.00    -0.027 C 
ATOM     11  N   UNL     1      -0.273   1.296  -4.825  0.00  0.00    +0.391 N 
ATOM     12  H   UNL     1       0.720   1.537  -4.726  0.00  0.00    -0.080 HD
ENDROOT
BRANCH   9  13
ATOM     13  C   UNL     1      -0.458   2.638  -8.372  0.00  0.00    +0.026 A 
ATOM     14  C   UNL     1      -1.287   2.081  -9.327  0.00  0.00    +0.010 A 
ATOM     15  C   UNL     1      -1.778   2.862 -10.357  0.00  0.00    +0.001 A 
ATOM     16  C   UNL     1      -1.431   4.198 -10.439  0.00  0.00    +0.003 A 
ATOM     17  C   UNL     1      -0.598   4.755  -9.488  0.00  0.00    +0.039 A 
ATOM     18  C   UNL     1      -0.110   3.976  -8.453  0.00  0.00    +0.130 A 
ATOM     19  F   UNL     1       0.704   4.520  -7.522  0.00  0.00    -0.205 F 
ENDBRANCH   9  13
BRANCH  11  20
ATOM     20  C   UNL     1      -0.997   1.758  -3.630  0.00  0.00    +0.019 C 
BRANCH  20  22
ATOM     21  N   UNL     1      -0.721   1.571  -1.179  0.00  0.00    -0.314 N 
ATOM     22  C   UNL     1      -0.268   1.258  -2.409  0.00  0.00    +0.197 C 
ATOM     23  O   UNL     1       0.726   0.575  -2.534  0.00  0.00    -0.278 OA
ATOM     24  H   UNL     1      -1.516   2.118  -1.079  0.00  0.00    +0.149 HD
BRANCH  21  25
ATOM     25  C   UNL     1      -0.013   1.086   0.008  0.00  0.00    +0.140 C 
BRANCH  25  35
ATOM     26  C   UNL     1       1.345   0.089   4.696  0.00  0.00    +0.000 A 
ATOM     27  C   UNL     1       1.104  -0.733   3.610  0.00  0.00    +0.000 A 
ATOM     28  C   UNL     1       0.435  -0.238   2.508  0.00  0.00    +0.006 A 
ATOM     29  C   UNL     1       0.002   1.079   2.485  0.00  0.00    -0.014 A 
ATOM     30  C   UNL     1       0.246   1.898   3.567  0.00  0.00    -0.040 A 
ATOM     31  C   UNL     1       0.916   1.401   4.673  0.00  0.00    +0.004 A 
ATOM     32  C   UNL     1      -0.198   3.339   3.575  0.00  0.00    +0.063 C 
ATOM     33  C   UNL     1      -1.252   3.561   2.489  0.00  0.00    +0.165 C 
ATOM     34  O   UNL     1      -0.763   3.006   1.262  0.00  0.00    -0.370 OA
ATOM     35  C   UNL     1      -0.729   1.579   1.267  0.00  0.00    +0.165 C 
ENDBRANCH  25  35
ENDBRANCH  21  25
ENDBRANCH  20  22
ENDBRANCH  11  20
TORSDOF 5
