REMARK  Name = ZINC65387903
REMARK  3 active torsions:
REMARK  status: ('A' for Active; 'I' for Inactive)
REMARK    1  A    between atoms: C_4  and  N_6
REMARK    2  A    between atoms: C_13  and  C_15
REMARK    3  A    between atoms: C_20  and  C_23
REMARK                            x       y       z     vdW  Elec       q    Type
REMARK                         _______ _______ _______ _____ _____    ______ ____
ROOT
ATOM      1  N   UNL     1       1.136  -1.209  -1.825  0.00  0.00    -0.298 NA
ATOM      2  C   UNL     1       2.426  -1.660  -2.405  0.00  0.00    +0.087 C 
ATOM      3  C   UNL     1       2.055  -2.859  -3.303  0.00  0.00    +0.000 C 
ATOM      4  C   UNL     1       3.083  -3.987  -3.077  0.00  0.00    -0.077 C 
ATOM      5  N   UNL     1       2.269  -5.224  -2.970  0.00  0.00    +0.380 N 
ATOM      6  C   UNL     1       1.080  -4.811  -2.181  0.00  0.00    -0.065 C 
ATOM      7  C   UNL     1       0.720  -3.395  -2.719  0.00  0.00    +0.047 C 
ATOM      8  C   UNL     1       0.411  -2.470  -1.523  0.00  0.00    +0.099 C 
ATOM      9  H   UNL     1       1.990  -5.543  -3.886  0.00  0.00    -0.086 HD
ATOM     10  H   UNL     1       2.782  -5.944  -2.485  0.00  0.00    -0.086 HD
ENDROOT
BRANCH   7  11
ATOM     11  C   UNL     1      -0.387  -3.421  -3.740  0.00  0.00    +0.221 C 
ATOM     12  O   UNL     1      -0.175  -3.046  -4.874  0.00  0.00    -0.275 OA
ATOM     13  N   UNL     1      -1.613  -3.861  -3.394  0.00  0.00    -0.301 N 
ATOM     14  C   UNL     1      -1.887  -4.313  -2.023  0.00  0.00    +0.108 C 
ATOM     15  C   UNL     1      -2.488  -5.721  -2.078  0.00  0.00    +0.032 C 
ATOM     16  C   UNL     1      -3.715  -5.711  -2.994  0.00  0.00    +0.078 C 
ATOM     17  C   UNL     1      -3.294  -5.310  -4.409  0.00  0.00    +0.032 C 
ATOM     18  C   UNL     1      -2.703  -3.892  -4.379  0.00  0.00    +0.108 C 
BRANCH  16  19
ATOM     19  C   UNL     1      -4.329  -7.087  -3.024  0.00  0.00    +0.214 C 
ATOM     20  O   UNL     1      -3.834  -7.986  -2.377  0.00  0.00    -0.276 OA
ATOM     21  N   UNL     1      -5.427  -7.319  -3.770  0.00  0.00    -0.329 N 
ATOM     22  H   UNL     1      -5.823  -6.599  -4.287  0.00  0.00    +0.145 HD
ATOM     23  H   UNL     1      -5.823  -8.204  -3.789  0.00  0.00    +0.145 HD
ENDBRANCH  16  19
ENDBRANCH   7  11
BRANCH   1  27
ATOM     24  C   UNL     1      -0.019   1.538   0.011  0.00  0.00    +0.002 C 
ATOM     25  C   UNL     1       1.477   1.939  -0.002  0.00  0.00    +0.002 C 
ATOM     26  C   UNL     1       2.107   0.881  -0.942  0.00  0.00    +0.019 C 
ATOM     27  C   UNL     1       1.353  -0.422  -0.604  0.00  0.00    +0.057 C 
ATOM     28  C   UNL     1       0.002  -0.004   0.002  0.00  0.00    +0.019 C 
ENDBRANCH   1  27
TORSDOF 3
