REMARK  Name = ZINC29990146
REMARK  8 active torsions:
REMARK  status: ('A' for Active; 'I' for Inactive)
REMARK    1  A    between atoms: C_1  and  C_2
REMARK    2  A    between atoms: C_2  and  O_3
REMARK    3  A    between atoms: O_3  and  C_4
REMARK    4  A    between atoms: C_9  and  N_10
REMARK    5  A    between atoms: C_11  and  S_15
REMARK    6  A    between atoms: S_15  and  C_16
REMARK    7  A    between atoms: C_16  and  C_17
REMARK    8  A    between atoms: C_23  and  C_25
REMARK                            x       y       z     vdW  Elec       q    Type
REMARK                         _______ _______ _______ _____ _____    ______ ____
ROOT
ATOM      1  C   UNL     1       0.179   5.688  -0.629  0.00  0.00    +0.226 C 
ATOM      2  O   UNL     1       1.284   6.183  -0.700  0.00  0.00    -0.275 OA
ATOM      3  N   UNL     1      -0.916   6.469  -0.719  0.00  0.00    -0.294 N 
ATOM      4  C   UNL     1      -2.312   6.000  -0.655  0.00  0.00    +0.108 C 
ATOM      5  C   UNL     1      -3.122   7.237  -0.183  0.00  0.00    +0.021 C 
ATOM      6  C   UNL     1      -2.389   8.387  -0.923  0.00  0.00    +0.029 C 
ATOM      7  C   UNL     1      -0.916   7.928  -0.903  0.00  0.00    +0.106 C 
ENDROOT
BRANCH   7   8
ATOM      8  C   UNL     1      -0.251   8.279  -2.209  0.00  0.00    -0.023 A 
ATOM      9  C   UNL     1      -0.458   7.487  -3.322  0.00  0.00    +0.009 A 
ATOM     10  C   UNL     1       0.149   7.803  -4.525  0.00  0.00    +0.050 A 
ATOM     11  C   UNL     1       0.965   8.919  -4.609  0.00  0.00    +0.162 A 
ATOM     12  C   UNL     1       1.172   9.714  -3.491  0.00  0.00    +0.162 A 
ATOM     13  C   UNL     1       0.559   9.398  -2.291  0.00  0.00    +0.055 A 
ATOM     14  O   UNL     1       1.978  10.812  -3.584  0.00  0.00    -0.488 OA
ATOM     15  C   UNL     1       1.482  11.885  -4.386  0.00  0.00    +0.232 C 
ATOM     16  C   UNL     1       1.810  11.658  -5.854  0.00  0.00    +0.082 C 
ATOM     17  C   UNL     1       1.105  10.436  -6.422  0.00  0.00    +0.232 C 
ATOM     18  O   UNL     1       1.570   9.243  -5.789  0.00  0.00    -0.488 OA
ENDBRANCH   7   8
BRANCH   1  19
ATOM     19  C   UNL     1       0.031   4.200  -0.440  0.00  0.00    +0.173 C 
BRANCH  19  20
ATOM     20  S   UNL     1       1.669   3.436  -0.356  0.00  0.00    -0.075 S 
BRANCH  20  22
ATOM     21  N   UNL     1       2.052   0.694  -0.014  0.00  0.00    -0.184 N 
ATOM     22  C   UNL     1       1.209   1.749  -0.140  0.00  0.00    +0.215 A 
ATOM     23  N   UNL     1      -0.016   1.275  -0.072  0.00  0.00    -0.101 NA
ATOM     24  N   UNL     1       0.003   0.001   0.088  0.00  0.00    -0.022 NA
ATOM     25  N   UNL     1       1.217  -0.428   0.134  0.00  0.00    -0.038 NA
BRANCH  21  31
ATOM     26  C   UNL     1       4.161  -0.191  -0.813  0.00  0.00    +0.146 A 
ATOM     27  C   UNL     1       5.546  -0.164  -0.822  0.00  0.00    +0.048 A 
ATOM     28  C   UNL     1       6.225   0.762  -0.053  0.00  0.00    +0.004 A 
ATOM     29  C   UNL     1       5.524   1.663   0.728  0.00  0.00    +0.002 A 
ATOM     30  C   UNL     1       4.143   1.646   0.739  0.00  0.00    +0.031 A 
ATOM     31  C   UNL     1       3.455   0.716  -0.027  0.00  0.00    +0.111 A 
BRANCH  26  32
ATOM     32  O   UNL     1       3.492  -1.102  -1.570  0.00  0.00    -0.490 OA
BRANCH  32  34
ATOM     33  C   UNL     1       3.360  -2.944  -3.129  0.00  0.00    +0.048 C 
ATOM     34  C   UNL     1       4.281  -2.001  -2.351  0.00  0.00    +0.226 C 
ENDBRANCH  32  34
ENDBRANCH  26  32
ENDBRANCH  21  31
ENDBRANCH  20  22
ENDBRANCH  19  20
ENDBRANCH   1  19
TORSDOF 7
