REMARK  Name = ZINC39324745
REMARK  5 active torsions:
REMARK  status: ('A' for Active; 'I' for Inactive)
REMARK    1  A    between atoms: C_1  and  C_2
REMARK    2  A    between atoms: C_2  and  N_3
REMARK    3  A    between atoms: C_13  and  C_21
REMARK    4  A    between atoms: C_15  and  C_19
REMARK    5  A    between atoms: C_16  and  N_18
REMARK                            x       y       z     vdW  Elec       q    Type
REMARK                         _______ _______ _______ _____ _____    ______ ____
ROOT
ATOM      1  N   UNL     1      -1.372  -0.511   0.012  0.00  0.00    -0.324 N 
ATOM      2  C   UNL     1      -1.605  -1.867   0.007  0.00  0.00    +0.152 C 
ATOM      3  N   UNL     1      -0.707  -2.839  -0.001  0.00  0.00    -0.239 NA
ATOM      4  C   UNL     1      -1.165  -4.207   0.109  0.00  0.00    +0.214 C 
ATOM      5  C   UNL     1      -2.567  -4.304  -0.578  0.00  0.00    +0.163 C 
ATOM      6  S   UNL     1      -3.197  -2.705   0.018  0.00  0.00    -0.076 S 
ATOM      7  C   UNL     1      -3.197  -5.556  -0.141  0.00  0.00    +0.133 C 
ATOM      8  C   UNL     1      -2.369  -6.637  -0.166  0.00  0.00    +0.067 C 
ATOM      9  C   UNL     1      -2.857  -7.986   0.270  0.00  0.00    +0.109 C 
ATOM     10  C   UNL     1      -4.138  -7.854   1.047  0.00  0.00    +0.099 C 
ATOM     11  C   UNL     1      -4.866  -6.712   0.996  0.00  0.00    +0.198 C 
ATOM     12  O   UNL     1      -4.470  -5.661   0.255  0.00  0.00    -0.444 OA
ATOM     13  C   UNL     1      -0.993  -6.461  -0.649  0.00  0.00    +0.246 C 
ATOM     14  O   UNL     1      -0.411  -7.394  -1.172  0.00  0.00    -0.270 OA
ATOM     15  N   UNL     1      -0.378  -5.265  -0.516  0.00  0.00    -0.289 N 
ATOM     16  H   UNL     1      -2.118   0.109   0.023  0.00  0.00    +0.148 HD
ATOM     17  H   UNL     1       0.532  -5.125  -0.823  0.00  0.00    +0.151 HD
ENDROOT
BRANCH   9  18
ATOM     18  C   UNL     1      -3.101  -8.844  -0.945  0.00  0.00    +0.003 A 
ATOM     19  C   UNL     1      -2.534 -10.029  -1.281  0.00  0.00    +0.012 A 
ATOM     20  C   UNL     1      -2.916 -10.645  -2.458  0.00  0.00    +0.008 A 
ATOM     21  C   UNL     1      -3.846 -10.046  -3.241  0.00  0.00    +0.045 A 
ATOM     22  S   UNL     1      -4.217  -8.569  -2.310  0.00  0.00    -0.101 S 
ENDBRANCH   9  18
BRANCH  11  23
ATOM     23  N   UNL     1      -6.032  -6.626   1.716  0.00  0.00    -0.328 N 
ATOM     24  H   UNL     1      -6.327  -7.377   2.253  0.00  0.00    +0.145 HD
ATOM     25  H   UNL     1      -6.561  -5.813   1.687  0.00  0.00    +0.145 HD
ENDBRANCH  11  23
BRANCH   1  27
ATOM     26  C   UNL     1      -0.019   1.526   0.010  0.00  0.00    +0.024 C 
ATOM     27  C   UNL     1       0.002  -0.004   0.002  0.00  0.00    +0.100 C 
ENDBRANCH   1  27
BRANCH  10  28
ATOM     28  C   UNL     1      -4.595  -8.949   1.849  0.00  0.00    +0.101 C 
ATOM     29  N   UNL     1      -4.957  -9.817   2.486  0.00  0.00    -0.191 NA
ENDBRANCH  10  28
TORSDOF 4
