REMARK  Name = ZINC39637166
REMARK  5 active torsions:
REMARK  status: ('A' for Active; 'I' for Inactive)
REMARK    1  A    between atoms: C_1  and  C_2
REMARK    2  A    between atoms: C_7  and  N_12
REMARK    3  A    between atoms: C_9  and  C_11
REMARK    4  A    between atoms: C_13  and  C_15
REMARK    5  A    between atoms: C_26  and  C_28
REMARK                            x       y       z     vdW  Elec       q    Type
REMARK                         _______ _______ _______ _____ _____    ______ ____
ROOT
ATOM      1  C   UNL     1      -2.126  -4.120   2.044  0.00  0.00    +0.100 C 
ATOM      2  C   UNL     1      -3.099  -3.393   2.998  0.00  0.00    +0.121 C 
ATOM      3  N   UNL     1      -4.023  -4.452   3.469  0.00  0.00    -0.296 N 
ATOM      4  C   UNL     1      -3.154  -5.636   3.668  0.00  0.00    +0.115 C 
ATOM      5  C   UNL     1      -2.164  -5.592   2.487  0.00  0.00    -0.004 C 
ATOM      6  C   UNL     1      -2.663  -6.474   1.347  0.00  0.00    -0.010 C 
ATOM      7  C   UNL     1      -2.638  -7.939   1.793  0.00  0.00    -0.082 C 
ATOM      8  N   UNL     1      -1.270  -8.316   2.167  0.00  0.00    +0.379 N 
ATOM      9  C   UNL     1      -0.832  -7.526   3.324  0.00  0.00    -0.082 C 
ATOM     10  C   UNL     1      -0.780  -6.044   2.943  0.00  0.00    -0.010 C 
ATOM     11  C   UNL     1      -5.352  -4.359   3.671  0.00  0.00    +0.247 C 
ATOM     12  O   UNL     1      -5.962  -5.296   4.147  0.00  0.00    -0.270 OA
ATOM     13  H   UNL     1      -1.245  -9.296   2.402  0.00  0.00    -0.086 HD
ATOM     14  H   UNL     1      -0.650  -8.143   1.389  0.00  0.00    -0.086 HD
ENDROOT
BRANCH  11  15
ATOM     15  C   UNL     1      -6.068  -3.117   3.313  0.00  0.00    +0.045 A 
ATOM     16  C   UNL     1      -5.573  -1.875   3.728  0.00  0.00    +0.014 A 
ATOM     17  C   UNL     1      -6.238  -0.716   3.395  0.00  0.00    +0.001 A 
ATOM     18  C   UNL     1      -7.405  -0.765   2.648  0.00  0.00    +0.012 A 
ATOM     19  C   UNL     1      -7.915  -1.988   2.227  0.00  0.00    +0.031 A 
ATOM     20  C   UNL     1      -7.244  -3.177   2.553  0.00  0.00    +0.006 A 
ATOM     21  C   UNL     1      -7.994  -4.321   1.977  0.00  0.00    -0.006 A 
ATOM     22  C   UNL     1      -7.766  -5.690   2.012  0.00  0.00    +0.009 A 
ATOM     23  C   UNL     1      -8.643  -6.556   1.377  0.00  0.00    +0.001 A 
ATOM     24  C   UNL     1      -9.747  -6.066   0.707  0.00  0.00    +0.001 A 
ATOM     25  C   UNL     1      -9.989  -4.702   0.664  0.00  0.00    +0.012 A 
ATOM     26  C   UNL     1      -9.118  -3.824   1.296  0.00  0.00    +0.030 A 
ATOM     27  C   UNL     1      -9.115  -2.348   1.435  0.00  0.00    +0.194 C 
ATOM     28  O   UNL     1      -9.934  -1.578   0.975  0.00  0.00    -0.287 OA
ENDBRANCH  11  15
BRANCH   1  30
ATOM     29  N   UNL     1       0.124  -3.608   1.152  0.00  0.00    -0.312 N 
ATOM     30  C   UNL     1      -0.733  -3.564   2.191  0.00  0.00    +0.218 C 
ATOM     31  O   UNL     1      -0.383  -3.076   3.245  0.00  0.00    -0.275 OA
ATOM     32  H   UNL     1      -0.156  -3.998   0.309  0.00  0.00    +0.149 HD
BRANCH  29  38
ATOM     33  C   UNL     1       2.584  -3.481  -2.369  0.00  0.00    +0.008 C 
ATOM     34  C   UNL     1       2.048  -3.887  -0.995  0.00  0.00    -0.009 C 
ATOM     35  C   UNL     1       2.961  -4.953  -0.386  0.00  0.00    +0.003 C 
ATOM     36  C   UNL     1       2.426  -5.359   0.989  0.00  0.00    +0.002 C 
ATOM     37  C   UNL     1       2.391  -4.133   1.904  0.00  0.00    +0.022 C 
ATOM     38  C   UNL     1       1.478  -3.067   1.296  0.00  0.00    +0.076 C 
ATOM     39  C   UNL     1       2.014  -2.662  -0.079  0.00  0.00    +0.009 C 
ATOM     40  C   UNL     1       1.101  -1.595  -0.688  0.00  0.00    +0.009 C 
ENDBRANCH  29  38
ENDBRANCH   1  30
TORSDOF 3
