REMARK  Name = ZINC63676477
REMARK  9 active torsions:
REMARK  status: ('A' for Active; 'I' for Inactive)
REMARK    1  A    between atoms: C_1  and  C_2
REMARK    2  A    between atoms: C_5  and  S_8
REMARK    3  A    between atoms: S_8  and  N_11
REMARK    4  A    between atoms: C_16  and  C_18
REMARK    5  A    between atoms: C_18  and  N_19
REMARK    6  A    between atoms: C_20  and  C_22
REMARK    7  A    between atoms: N_24  and  C_25
REMARK    8  A    between atoms: C_25  and  C_26
REMARK    9  A    between atoms: C_26  and  C_27
REMARK                            x       y       z     vdW  Elec       q    Type
REMARK                         _______ _______ _______ _____ _____    ______ ____
ROOT
ATOM      1  N   UNL     1       1.006  -3.457   2.319  0.00  0.00    -0.304 N 
ATOM      2  C   UNL     1       0.120  -2.841   3.126  0.00  0.00    +0.299 C 
ATOM      3  O   UNL     1      -0.358  -3.438   4.069  0.00  0.00    -0.265 OA
ATOM      4  H   UNL     1       1.445  -2.959   1.611  0.00  0.00    +0.149 HD
ENDROOT
BRANCH   2   5
ATOM      5  C   UNL     1      -0.275  -1.425   2.861  0.00  0.00    +0.299 C 
ATOM      6  O   UNL     1       0.129  -0.858   1.866  0.00  0.00    -0.265 OA
ATOM      7  N   UNL     1      -1.079  -0.775   3.726  0.00  0.00    -0.307 N 
ATOM      8  H   UNL     1      -1.401  -1.228   4.521  0.00  0.00    +0.149 HD
BRANCH   7   9
ATOM      9  C   UNL     1      -1.465   0.614   3.466  0.00  0.00    +0.109 C 
BRANCH   9  10
ATOM     10  C   UNL     1      -2.374   1.110   4.593  0.00  0.00    +0.052 C 
BRANCH  10  11
ATOM     11  C   UNL     1      -2.771   2.538   4.325  0.00  0.00    -0.040 C 
ATOM     12  C   UNL     1      -3.902   2.968   3.720  0.00  0.00    -0.001 A 
ATOM     13  C   UNL     1      -5.055   2.261   3.150  0.00  0.00    +0.010 A 
ATOM     14  C   UNL     1      -6.058   2.981   2.598  0.00  0.00    +0.001 A 
ATOM     15  C   UNL     1      -6.024   4.381   2.555  0.00  0.00    +0.002 A 
ATOM     16  C   UNL     1      -4.999   5.101   3.058  0.00  0.00    +0.026 A 
ATOM     17  C   UNL     1      -3.890   4.447   3.663  0.00  0.00    +0.043 A 
ATOM     18  N   UNL     1      -2.795   4.914   4.212  0.00  0.00    -0.380 N 
ATOM     19  C   UNL     1      -1.990   3.782   4.685  0.00  0.00    +0.144 C 
ATOM     20  H   UNL     1      -2.558   5.851   4.295  0.00  0.00    +0.160 HD
ENDBRANCH  10  11
ENDBRANCH   9  10
ENDBRANCH   7   9
ENDBRANCH   2   5
BRANCH   1  21
ATOM     21  C   UNL     1       1.308  -4.878   2.510  0.00  0.00    +0.154 C 
BRANCH  21  27
ATOM     22  N   UNL     1       2.065  -4.989   0.180  0.00  0.00    -0.147 NA
ATOM     23  C   UNL     1       3.096  -5.107  -0.863  0.00  0.00    +0.114 C 
ATOM     24  C   UNL     1       4.335  -4.329  -0.403  0.00  0.00    +0.045 C 
ATOM     25  C   UNL     1       4.717  -4.789   1.007  0.00  0.00    +0.163 C 
ATOM     26  O   UNL     1       3.623  -4.558   1.897  0.00  0.00    -0.358 OA
ATOM     27  C   UNL     1       2.442  -5.289   1.569  0.00  0.00    +0.226 C 
BRANCH  22  28
ATOM     28  S   UNL     1       0.522  -4.521  -0.199  0.00  0.00    +0.063 S 
ATOM     29  O   UNL     1       0.636  -3.340  -0.980  0.00  0.00    -0.153 OA
ATOM     30  O   UNL     1      -0.225  -4.567   1.009  0.00  0.00    -0.153 OA
BRANCH  28  35
ATOM     31  C   UNL     1      -1.791  -8.763  -3.814  0.00  0.00    +0.044 C 
ATOM     32  C   UNL     1      -1.213  -7.703  -2.911  0.00  0.00    -0.050 A 
ATOM     33  C   UNL     1      -1.262  -7.863  -1.539  0.00  0.00    +0.005 A 
ATOM     34  C   UNL     1      -0.732  -6.891  -0.711  0.00  0.00    +0.029 A 
ATOM     35  C   UNL     1      -0.153  -5.761  -1.255  0.00  0.00    +0.106 A 
ATOM     36  C   UNL     1      -0.103  -5.601  -2.627  0.00  0.00    +0.029 A 
ATOM     37  C   UNL     1      -0.629  -6.575  -3.455  0.00  0.00    +0.005 A 
ENDBRANCH  28  35
ENDBRANCH  22  28
ENDBRANCH  21  27
ENDBRANCH   1  21
TORSDOF 8
