REMARK  Name = ZINC20236670
REMARK  11 active torsions:
REMARK  status: ('A' for Active; 'I' for Inactive)
REMARK    1  A    between atoms: C_1  and  C_2
REMARK    2  A    between atoms: C_9  and  C_10
REMARK    3  A    between atoms: C_12  and  O_30
REMARK    4  A    between atoms: C_13  and  O_17
REMARK    5  A    between atoms: O_17  and  C_18
REMARK    6  A    between atoms: C_18  and  C_20
REMARK    7  A    between atoms: C_23  and  O_28
REMARK    8  A    between atoms: C_24  and  O_26
REMARK    9  A    between atoms: O_26  and  C_27
REMARK   10  A    between atoms: O_28  and  C_29
REMARK   11  A    between atoms: O_30  and  C_31
REMARK                            x       y       z     vdW  Elec       q    Type
REMARK                         _______ _______ _______ _____ _____    ______ ____
ROOT
ATOM      1  C   UNL     1       0.531  -6.679   1.279  0.00  0.00    -0.019 A 
ATOM      2  C   UNL     1       1.133  -7.765   1.930  0.00  0.00    +0.057 A 
ATOM      3  C   UNL     1       0.352  -8.800   2.404  0.00  0.00    +0.164 A 
ATOM      4  C   UNL     1      -1.032  -8.765   2.235  0.00  0.00    +0.192 A 
ATOM      5  C   UNL     1      -1.631  -7.689   1.590  0.00  0.00    +0.087 A 
ATOM      6  C   UNL     1      -0.861  -6.648   1.119  0.00  0.00    +0.032 A 
ATOM      7 CL   UNL     1      -3.354  -7.653   1.385  0.00  0.00    -0.080 Cl
ENDROOT
BRANCH   1  16
ATOM      8  C   UNL     1      -0.282   0.181  -3.320  0.00  0.00    +0.089 C 
ATOM      9  C   UNL     1      -0.047  -1.180  -2.717  0.00  0.00    +0.134 C 
ATOM     10  C   UNL     1      -0.797  -2.279  -2.951  0.00  0.00    +0.091 C 
ATOM     11  C   UNL     1      -0.260  -3.346  -2.219  0.00  0.00    +0.168 C 
ATOM     12  N   UNL     1      -0.692  -4.601  -2.109  0.00  0.00    -0.156 NA
ATOM     13  C   UNL     1      -0.063  -5.455  -1.288  0.00  0.00    +0.273 C 
ATOM     14  O   UNL     1      -0.369  -6.636  -1.272  0.00  0.00    -0.268 OA
ATOM     15  C   UNL     1       1.011  -4.944  -0.399  0.00  0.00    +0.084 C 
ATOM     16  C   UNL     1       1.354  -5.577   0.773  0.00  0.00    +0.025 C 
ATOM     17  C   UNL     1       1.696  -3.697  -0.860  0.00  0.00    +0.176 C 
ATOM     18  N   UNL     1       2.947  -3.422  -0.602  0.00  0.00    -0.280 NA
ATOM     19  N   UNL     1       0.861  -2.863  -1.592  0.00  0.00    -0.142 N 
ATOM     20  O   UNL     1       0.945  -1.492  -1.867  0.00  0.00    -0.375 OA
ATOM     21  H   UNL     1       3.483  -4.043  -0.084  0.00  0.00    +0.188 HD
ENDBRANCH   1  16
BRANCH   3  22
ATOM     22  O   UNL     1       0.933  -9.855   3.036  0.00  0.00    -0.491 OA
ATOM     23  C   UNL     1       2.355  -9.826   3.173  0.00  0.00    +0.277 C 
ENDBRANCH   3  22
BRANCH   4  24
ATOM     24  O   UNL     1      -1.797  -9.785   2.702  0.00  0.00    -0.417 OA
BRANCH  24  25
ATOM     25  C   UNL     1      -2.266  -9.698   3.963  0.00  0.00    +0.345 C 
ATOM     26  O   UNL     1      -2.001  -8.728   4.644  0.00  0.00    -0.245 OA
BRANCH  25  27
ATOM     27  C   UNL     1      -3.101 -10.781   4.514  0.00  0.00    +0.063 A 
ATOM     28  C   UNL     1      -3.402 -11.901   3.734  0.00  0.00    +0.019 A 
ATOM     29  C   UNL     1      -4.182 -12.912   4.251  0.00  0.00    +0.050 A 
ATOM     30  C   UNL     1      -4.671 -12.822   5.548  0.00  0.00    +0.162 A 
ATOM     31  C   UNL     1      -4.375 -11.708   6.332  0.00  0.00    +0.162 A 
ATOM     32  C   UNL     1      -3.589 -10.693   5.822  0.00  0.00    +0.064 A 
BRANCH  31  33
ATOM     33  O   UNL     1      -4.855 -11.623   7.602  0.00  0.00    -0.491 OA
ATOM     34  C   UNL     1      -4.512 -10.454   8.348  0.00  0.00    +0.277 C 
ENDBRANCH  31  33
BRANCH  30  35
ATOM     35  O   UNL     1      -5.440 -13.821   6.053  0.00  0.00    -0.491 OA
ATOM     36  C   UNL     1      -5.705 -14.932   5.195  0.00  0.00    +0.277 C 
ENDBRANCH  30  35
ENDBRANCH  25  27
ENDBRANCH  24  25
ENDBRANCH   4  24
TORSDOF 7
