REMARK  Name = ZINC12603356
REMARK  7 active torsions:
REMARK  status: ('A' for Active; 'I' for Inactive)
REMARK    1  A    between atoms: C_1  and  C_2
REMARK    2  A    between atoms: C_2  and  N_3
REMARK    3  A    between atoms: N_6  and  C_7
REMARK    4  A    between atoms: C_10  and  C_14
REMARK    5  A    between atoms: C_15  and  C_27
REMARK    6  A    between atoms: N_17  and  C_20
REMARK    7  A    between atoms: C_18  and  C_19
REMARK                            x       y       z     vdW  Elec       q    Type
REMARK                         _______ _______ _______ _____ _____    ______ ____
ROOT
ATOM      1  C   UNL     1       1.307   1.761  -0.001  0.00  0.00    +0.003 A 
ATOM      2  C   UNL     1      -0.016   1.305   0.009  0.00  0.00    +0.064 A 
ATOM      3  N   UNL     1       0.002  -0.004   0.002  0.00  0.00    -0.171 NA
ATOM      4  N   UNL     1       1.339  -0.424  -0.013  0.00  0.00    -0.236 N 
ATOM      5  C   UNL     1       2.120   0.679  -0.015  0.00  0.00    +0.046 A 
ATOM      6  C   UNL     1       3.627   0.701  -0.028  0.00  0.00    +0.066 C 
ATOM      7  C   UNL     1      -1.249   2.171   0.020  0.00  0.00    +0.068 C 
ENDROOT
BRANCH   4   8
ATOM      8  C   UNL     1       1.786  -1.753  -0.025  0.00  0.00    +0.066 A 
ATOM      9  C   UNL     1       2.931  -2.095  -0.732  0.00  0.00    +0.030 A 
ATOM     10  C   UNL     1       3.373  -3.403  -0.738  0.00  0.00    +0.040 A 
ATOM     11  C   UNL     1       2.669  -4.376  -0.048  0.00  0.00    +0.124 A 
ATOM     12  C   UNL     1       1.524  -4.038   0.653  0.00  0.00    +0.040 A 
ATOM     13  C   UNL     1       1.082  -2.730   0.666  0.00  0.00    +0.030 A 
ATOM     14  F   UNL     1       3.101  -5.656  -0.059  0.00  0.00    -0.205 F 
ENDBRANCH   4   8
BRANCH   1  17
ATOM     15  C   UNL     1       0.889   5.335  -0.662  0.00  0.00    +0.098 C 
ATOM     16  C   UNL     1       1.200   3.936  -1.243  0.00  0.00    +0.039 C 
ATOM     17  C   UNL     1       1.748   3.202   0.003  0.00  0.00    +0.047 C 
ATOM     18  C   UNL     1       1.143   3.934   1.177  0.00  0.00    -0.021 C 
ATOM     19  C   UNL     1       0.674   5.098   0.815  0.00  0.00    -0.009 C 
BRANCH  15  23
ATOM     20  N   UNL     1       2.860   8.404  -1.125  0.00  0.00    -0.300 N 
ATOM     21  C   UNL     1       1.819   7.571  -0.927  0.00  0.00    +0.300 C 
ATOM     22  O   UNL     1       0.697   8.021  -0.794  0.00  0.00    -0.253 OA
ATOM     23  N   UNL     1       2.021   6.240  -0.877  0.00  0.00    -0.293 N 
ATOM     24  H   UNL     1       3.755   8.045  -1.231  0.00  0.00    +0.150 HD
ATOM     25  H   UNL     1       2.916   5.880  -0.983  0.00  0.00    +0.151 HD
BRANCH  20  27
ATOM     26  C   UNL     1       3.975  10.561  -1.411  0.00  0.00    +0.024 C 
ATOM     27  C   UNL     1       2.640   9.851  -1.179  0.00  0.00    +0.102 C 
ENDBRANCH  20  27
ENDBRANCH  15  23
ENDBRANCH   1  17
TORSDOF 4
