REMARK  Name = ZINC63499404
REMARK  2 active torsions:
REMARK  status: ('A' for Active; 'I' for Inactive)
REMARK    1  A    between atoms: C_8  and  C_10
REMARK    2  A    between atoms: C_11  and  C_16
REMARK                            x       y       z     vdW  Elec       q    Type
REMARK                         _______ _______ _______ _____ _____    ______ ____
ROOT
ATOM      1  C   UNL     1       3.851  -3.301   0.020  0.00  0.00    +0.134 A 
ATOM      2  C   UNL     1       4.981  -3.522  -0.794  0.00  0.00    +0.039 A 
ATOM      3  C   UNL     1       5.386  -4.796  -0.604  0.00  0.00    +0.112 A 
ATOM      4  N   UNL     1       4.553  -5.370   0.291  0.00  0.00    -0.284 N 
ATOM      5  H   UNL     1       4.608  -6.282   0.615  0.00  0.00    +0.188 HD
ATOM      6  N   UNL     1       3.601  -4.417   0.676  0.00  0.00    -0.170 NA
ENDROOT
BRANCH   2   7
ATOM      7  C   UNL     1       5.623  -2.514  -1.712  0.00  0.00    +0.193 C 
ATOM      8  N   UNL     1       4.912  -2.504  -2.996  0.00  0.00    -0.322 N 
ATOM      9  C   UNL     1       5.135  -3.548  -3.887  0.00  0.00    +0.041 A 
ATOM     10  C   UNL     1       4.163  -3.973  -4.776  0.00  0.00    +0.025 A 
ATOM     11  C   UNL     1       4.434  -5.018  -5.639  0.00  0.00    +0.022 A 
ATOM     12  C   UNL     1       5.672  -5.644  -5.620  0.00  0.00    +0.042 A 
ATOM     13  C   UNL     1       6.652  -5.232  -4.740  0.00  0.00    +0.035 A 
ATOM     14  C   UNL     1       6.392  -4.179  -3.867  0.00  0.00    +0.059 A 
ATOM     15  C   UNL     1       7.405  -3.692  -2.913  0.00  0.00    +0.247 C 
ATOM     16  O   UNL     1       8.568  -4.031  -3.026  0.00  0.00    -0.270 OA
ATOM     17  N   UNL     1       7.028  -2.868  -1.913  0.00  0.00    -0.289 N 
ATOM     18 CL   UNL     1       5.990  -6.957  -6.710  0.00  0.00    -0.084 Cl
ATOM     19  H   UNL     1       4.301  -1.785  -3.219  0.00  0.00    +0.148 HD
ATOM     20  H   UNL     1       7.701  -2.504  -1.317  0.00  0.00    +0.151 HD
ENDBRANCH   2   7
BRANCH   1  28
ATOM     21  C   UNL     1       0.300   1.576   0.465  0.00  0.00    +0.001 A 
ATOM     22  C   UNL     1       1.520   2.233   0.413  0.00  0.00    +0.004 A 
ATOM     23  C   UNL     1       2.698   1.524   0.304  0.00  0.00    +0.047 A 
ATOM     24  C   UNL     1       2.667   0.137   0.246  0.00  0.00    +0.136 A 
ATOM     25  C   UNL     1       1.427  -0.524   0.300  0.00  0.00    +0.021 A 
ATOM     26  C   UNL     1       0.246   0.211   0.409  0.00  0.00    +0.011 A 
ATOM     27  C   UNL     1       1.738  -1.954   0.218  0.00  0.00    +0.060 A 
ATOM     28  C   UNL     1       3.086  -2.040   0.125  0.00  0.00    +0.156 A 
ATOM     29  O   UNL     1       3.626  -0.806   0.142  0.00  0.00    -0.453 OA
ENDBRANCH   1  28
TORSDOF 2
