REMARK  Name = ZINC37819717
REMARK  4 active torsions:
REMARK  status: ('A' for Active; 'I' for Inactive)
REMARK    1  A    between atoms: C_1  and  N_2
REMARK    2  A    between atoms: C_6  and  C_7
REMARK    3  A    between atoms: C_14  and  C_16
REMARK    4  A    between atoms: C_16  and  N_22
REMARK                            x       y       z     vdW  Elec       q    Type
REMARK                         _______ _______ _______ _____ _____    ______ ____
ROOT
ATOM      1  C   UNL     1       0.547  -1.202   3.028  0.00  0.00    +0.074 C 
ATOM      2  C   UNL     1       1.671  -1.657   3.962  0.00  0.00    +0.014 C 
ATOM      3  C   UNL     1       1.527  -0.956   5.315  0.00  0.00    +0.020 C 
ATOM      4  C   UNL     1       0.187  -1.345   5.946  0.00  0.00    +0.108 C 
ATOM      5  N   UNL     1      -0.890  -1.044   4.993  0.00  0.00    -0.302 N 
ATOM      6  C   UNL     1      -0.804  -1.594   3.633  0.00  0.00    +0.119 C 
ATOM      7  C   UNL     1      -1.937  -0.279   5.359  0.00  0.00    +0.204 C 
ATOM      8  O   UNL     1      -2.775   0.034   4.540  0.00  0.00    -0.277 OA
ENDROOT
BRANCH   1  14
ATOM      9  C   UNL     1       0.952   0.200   0.260  0.00  0.00    +0.151 C 
ATOM     10  N   UNL     1       0.884  -1.244   0.496  0.00  0.00    -0.320 N 
ATOM     11  C   UNL     1       0.988  -2.227  -0.431  0.00  0.00    +0.224 A 
ATOM     12  N   UNL     1       0.873  -3.366   0.197  0.00  0.00    -0.138 NA
ATOM     13  N   UNL     1       0.704  -3.152   1.453  0.00  0.00    -0.134 NA
ATOM     14  C   UNL     1       0.709  -1.868   1.685  0.00  0.00    +0.138 A 
ENDBRANCH   1  14
BRANCH   7  15
ATOM     15  C   UNL     1      -2.067   0.187   6.786  0.00  0.00    +0.007 C 
ATOM     16  C   UNL     1      -3.393   0.930   6.962  0.00  0.00    -0.004 C 
ATOM     17  C   UNL     1      -4.553  -0.010   6.625  0.00  0.00    -0.001 C 
ATOM     18  C   UNL     1      -4.518  -1.219   7.561  0.00  0.00    -0.000 C 
ATOM     19  C   UNL     1      -3.192  -1.962   7.386  0.00  0.00    -0.001 C 
ATOM     20  C   UNL     1      -2.032  -1.022   7.723  0.00  0.00    -0.004 C 
BRANCH  15  21
ATOM     21  N   UNL     1      -0.954   1.090   7.110  0.00  0.00    +0.388 N 
ATOM     22  H   UNL     1      -1.135   2.001   6.717  0.00  0.00    -0.089 HD
ATOM     23  H   UNL     1      -0.864   1.167   8.112  0.00  0.00    -0.089 HD
ATOM     24  H   UNL     1      -0.099   0.721   6.723  0.00  0.00    -0.089 HD
ENDBRANCH  15  21
ENDBRANCH   7  15
TORSDOF 3
