REMARK  Name = ZINC34754889
REMARK  11 active torsions:
REMARK  status: ('A' for Active; 'I' for Inactive)
REMARK    1  A    between atoms: C_1  and  O_2
REMARK    2  A    between atoms: O_2  and  C_3
REMARK    3  A    between atoms: C_3  and  C_4
REMARK    4  A    between atoms: N_6  and  C_7
REMARK    5  A    between atoms: N_6  and  C_30
REMARK    6  A    between atoms: C_7  and  C_8
REMARK    7  A    between atoms: N_11  and  C_23
REMARK    8  A    between atoms: C_13  and  C_15
REMARK    9  A    between atoms: C_19  and  O_21
REMARK   10  A    between atoms: O_21  and  C_22
REMARK   11  A    between atoms: C_23  and  C_24
REMARK                            x       y       z     vdW  Elec       q    Type
REMARK                         _______ _______ _______ _____ _____    ______ ____
ROOT
ATOM      1  C   UNL     1      -1.328  -5.002   1.613  0.00  0.00    -0.005 C 
ATOM      2  C   UNL     1       0.056  -5.177   2.274  0.00  0.00    -0.073 C 
ATOM      3  N   UNL     1      -0.103  -6.351   3.171  0.00  0.00    +0.384 N 
ATOM      4  C   UNL     1      -0.947  -7.293   2.392  0.00  0.00    -0.070 C 
ATOM      5  C   UNL     1      -1.990  -6.393   1.691  0.00  0.00    +0.005 C 
ATOM      6  H   UNL     1      -0.569  -6.082   4.024  0.00  0.00    -0.081 HD
ENDROOT
BRANCH   5   7
ATOM      7  C   UNL     1      -2.283  -6.911   0.306  0.00  0.00    -0.042 A 
ATOM      8  C   UNL     1      -3.588  -6.968  -0.148  0.00  0.00    +0.004 A 
ATOM      9  C   UNL     1      -3.860  -7.443  -1.417  0.00  0.00    +0.004 A 
ATOM     10  C   UNL     1      -2.829  -7.862  -2.236  0.00  0.00    +0.045 A 
ATOM     11  C   UNL     1      -1.519  -7.805  -1.782  0.00  0.00    +0.120 A 
ATOM     12  C   UNL     1      -1.248  -7.323  -0.510  0.00  0.00    +0.049 A 
BRANCH  11  13
ATOM     13  O   UNL     1      -0.503  -8.217  -2.585  0.00  0.00    -0.495 OA
ATOM     14  C   UNL     1      -0.855  -8.696  -3.884  0.00  0.00    +0.277 C 
ENDBRANCH  11  13
ENDBRANCH   5   7
BRANCH   1  15
ATOM     15  C   UNL     1      -1.169  -4.569   0.154  0.00  0.00    +0.110 C 
BRANCH  15  18
ATOM     16  C   UNL     1       0.669  -2.971   0.080  0.00  0.00    +0.242 C 
ATOM     17  O   UNL     1       1.439  -3.897  -0.066  0.00  0.00    -0.273 OA
ATOM     18  N   UNL     1      -0.660  -3.197   0.104  0.00  0.00    -0.296 N 
BRANCH  18  19
ATOM     19  C   UNL     1      -1.595  -2.069   0.081  0.00  0.00    +0.076 C 
ATOM     20  C   UNL     1      -1.237  -1.086   1.197  0.00  0.00    +0.022 C 
ATOM     21  C   UNL     1      -2.213   0.091   1.172  0.00  0.00    +0.002 C 
ATOM     22  C   UNL     1      -2.122   0.801  -0.180  0.00  0.00    +0.000 C 
ATOM     23  C   UNL     1      -2.480  -0.182  -1.297  0.00  0.00    +0.002 C 
ATOM     24  C   UNL     1      -1.503  -1.359  -1.272  0.00  0.00    +0.022 C 
ENDBRANCH  18  19
BRANCH  16  25
ATOM     25  C   UNL     1       1.198  -1.569   0.235  0.00  0.00    +0.255 C 
BRANCH  25  27
ATOM     26  C   UNL     1       3.203  -0.265   0.075  0.00  0.00    +0.194 C 
ATOM     27  O   UNL     1       2.600  -1.555  -0.043  0.00  0.00    -0.374 OA
ENDBRANCH  25  27
ENDBRANCH  16  25
ENDBRANCH  15  18
ENDBRANCH   1  15
BRANCH   3  28
ATOM     28  C   UNL     1       1.204  -6.954   3.464  0.00  0.00    -0.025 C 
BRANCH  28  29
ATOM     29  C   UNL     1       1.031  -8.063   4.470  0.00  0.00    -0.001 A 
ATOM     30  C   UNL     1       1.175  -7.949   5.806  0.00  0.00    +0.020 A 
ATOM     31  C   UNL     1       0.925  -9.217   6.367  0.00  0.00    +0.019 A 
ATOM     32  C   UNL     1       0.639 -10.058   5.352  0.00  0.00    +0.082 A 
ATOM     33  N   UNL     1       0.696  -9.354   4.186  0.00  0.00    -0.366 N 
ATOM     34  H   UNL     1       0.529  -9.713   3.300  0.00  0.00    +0.165 HD
ENDBRANCH  28  29
ENDBRANCH   3  28
TORSDOF 9
