REMARK  Name = ZINC12358944
REMARK  10 active torsions:
REMARK  status: ('A' for Active; 'I' for Inactive)
REMARK    1  A    between atoms: C_1  and  C_2
REMARK    2  A    between atoms: C_2  and  O_29
REMARK    3  A    between atoms: C_3  and  C_27
REMARK    4  A    between atoms: C_6  and  C_13
REMARK    5  A    between atoms: C_6  and  O_14
REMARK    6  A    between atoms: C_7  and  C_11
REMARK    7  A    between atoms: C_7  and  O_12
REMARK    8  A    between atoms: C_8  and  C_9
REMARK    9  A    between atoms: C_8  and  O_10
REMARK   10  A    between atoms: O_14  and  C_15
REMARK                            x       y       z     vdW  Elec       q    Type
REMARK                         _______ _______ _______ _____ _____    ______ ____
ROOT
ATOM      1  C   UNL     1       4.280   0.270   3.901  0.00  0.00    +0.048 C 
ATOM      2  C   UNL     1       3.831  -0.327   2.565  0.00  0.00    +0.131 C 
ATOM      3  C   UNL     1       2.339  -0.053   2.359  0.00  0.00    +0.269 C 
ATOM      4  O   UNL     1       1.935  -0.560   1.085  0.00  0.00    -0.319 OA
ATOM      5  C   UNL     1       2.608   0.042  -0.022  0.00  0.00    +0.242 C 
ATOM      6  C   UNL     1       4.111  -0.228   0.088  0.00  0.00    +0.159 C 
ATOM      7  C   UNL     1       4.623   0.320   1.424  0.00  0.00    +0.129 C 
ATOM      8  C   UNL     1       6.108  -0.015   1.579  0.00  0.00    +0.047 C 
ATOM      9  C   UNL     1       4.841   0.466  -1.063  0.00  0.00    +0.051 C 
ATOM     10  C   UNL     1       2.077  -0.554  -1.327  0.00  0.00    +0.092 C 
ENDROOT
BRANCH   3  11
ATOM     11  C   UNL     1       1.548  -0.735   3.446  0.00  0.00    +0.387 C 
ATOM     12  O   UNL     1       0.788  -1.632   3.167  0.00  0.00    -0.243 OA
ATOM     13  O   UNL     1       1.689  -0.346   4.723  0.00  0.00    -0.243 OA
ENDBRANCH   3  11
BRANCH   7  14
ATOM     14  O   UNL     1       4.446   1.737   1.460  0.00  0.00    -0.383 OA
ATOM     15  H   UNL     1       4.750   2.151   2.280  0.00  0.00    +0.210 HD
ENDBRANCH   7  14
BRANCH   6  16
ATOM     16  O   UNL     1       4.350  -1.635   0.026  0.00  0.00    -0.379 OA
ATOM     17  H   UNL     1       4.045  -2.050  -0.793  0.00  0.00    +0.211 HD
ENDBRANCH   6  16
BRANCH   2  18
ATOM     18  O   UNL     1       4.062  -1.737   2.568  0.00  0.00    -0.383 OA
ATOM     19  H   UNL     1       3.591  -2.211   3.267  0.00  0.00    +0.210 HD
ENDBRANCH   2  18
BRANCH   5  20
ATOM     20  O   UNL     1       2.375   1.452  -0.013  0.00  0.00    -0.456 OA
BRANCH  20  21
ATOM     21  C   UNL     1       1.077   1.864   0.002  0.00  0.00    +0.151 A 
ATOM     22  C   UNL     1      -0.013   1.076   0.008  0.00  0.00    +0.130 A 
ATOM     23  N   UNL     1      -1.148   1.851   0.017  0.00  0.00    -0.358 N 
ATOM     24  H   UNL     1      -2.056   1.510   0.019  0.00  0.00    +0.165 HD
ATOM     25  C   UNL     1      -0.803   3.184   0.025  0.00  0.00    +0.052 A 
ATOM     26  C   UNL     1       0.602   3.252   0.013  0.00  0.00    +0.061 A 
ATOM     27  C   UNL     1       1.240   4.494   0.013  0.00  0.00    +0.068 A 
ATOM     28  C   UNL     1       0.486   5.648   0.025  0.00  0.00    +0.037 A 
ATOM     29  C   UNL     1      -0.901   5.580   0.038  0.00  0.00    +0.019 A 
ATOM     30  C   UNL     1      -1.544   4.362   0.037  0.00  0.00    +0.027 A 
ATOM     31 BR   UNL     1       1.345   7.333   0.026  0.00  0.00    -0.049 Br
ATOM     32 CL   UNL     1       2.974   4.585  -0.002  0.00  0.00    -0.082 Cl
ENDBRANCH  20  21
ENDBRANCH   5  20
TORSDOF 6
