REMARK  Name = ZINC13249830
REMARK  6 active torsions:
REMARK  status: ('A' for Active; 'I' for Inactive)
REMARK    1  A    between atoms: C_3  and  N_16
REMARK    2  A    between atoms: C_4  and  C_13
REMARK    3  A    between atoms: C_6  and  N_7
REMARK    4  A    between atoms: N_16  and  S_17
REMARK    5  A    between atoms: S_17  and  C_20
REMARK    6  A    between atoms: C_24  and  C_26
REMARK                            x       y       z     vdW  Elec       q    Type
REMARK                         _______ _______ _______ _____ _____    ______ ____
ROOT
ATOM      1  C   UNL     1       1.889   5.116  -2.779  0.00  0.00    +0.025 A 
ATOM      2  C   UNL     1       2.748   4.417  -1.956  0.00  0.00    +0.027 A 
ATOM      3  C   UNL     1       3.425   3.304  -2.438  0.00  0.00    +0.060 A 
ATOM      4  C   UNL     1       3.236   2.895  -3.767  0.00  0.00    +0.061 A 
ATOM      5  C   UNL     1       2.360   3.605  -4.591  0.00  0.00    +0.038 A 
ATOM      6  C   UNL     1       1.694   4.713  -4.096  0.00  0.00    +0.031 A 
ENDROOT
BRANCH   6   7
ATOM      7  N   UNL     1       0.820   5.429  -4.923  0.00  0.00    -0.330 N 
ATOM      8  C   UNL     1       1.500   5.877  -6.145  0.00  0.00    +0.105 C 
ATOM      9  C   UNL     1       0.484   6.527  -7.087  0.00  0.00    +0.019 C 
ATOM     10  C   UNL     1      -0.173   7.715  -6.380  0.00  0.00    +0.003 C 
ATOM     11  C   UNL     1      -0.833   7.229  -5.087  0.00  0.00    +0.019 C 
ATOM     12  C   UNL     1       0.222   6.560  -4.203  0.00  0.00    +0.105 C 
ENDBRANCH   6   7
BRANCH   4  13
ATOM     13  C   UNL     1       3.954   1.718  -4.288  0.00  0.00    +0.243 C 
ATOM     14  O   UNL     1       4.713   1.099  -3.566  0.00  0.00    -0.270 OA
ATOM     15  N   UNL     1       3.771   1.327  -5.565  0.00  0.00    -0.325 N 
ATOM     16  H   UNL     1       3.166   1.821  -6.141  0.00  0.00    +0.145 HD
ATOM     17  H   UNL     1       4.243   0.553  -5.908  0.00  0.00    +0.145 HD
ENDBRANCH   4  13
BRANCH   3  18
ATOM     18  N   UNL     1       4.291   2.601  -1.607  0.00  0.00    -0.216 N 
ATOM     19  H   UNL     1       5.102   2.211  -1.970  0.00  0.00    +0.174 HD
BRANCH  18  20
ATOM     20  S   UNL     1       3.939   2.429   0.002  0.00  0.00    +0.072 S 
ATOM     21  O   UNL     1       3.711   3.736   0.510  0.00  0.00    -0.150 OA
ATOM     22  O   UNL     1       4.926   1.563   0.544  0.00  0.00    -0.150 OA
BRANCH  20  23
ATOM     23  C   UNL     1       2.403   1.571   0.110  0.00  0.00    +0.109 A 
ATOM     24  C   UNL     1       1.216   2.283   0.136  0.00  0.00    +0.030 A 
ATOM     25  C   UNL     1       0.006   1.618   0.221  0.00  0.00    +0.018 A 
ATOM     26  C   UNL     1      -0.025   0.239   0.280  0.00  0.00    +0.032 A 
ATOM     27  C   UNL     1       1.170  -0.485   0.254  0.00  0.00    +0.079 A 
ATOM     28  C   UNL     1       2.387   0.194   0.169  0.00  0.00    +0.045 A 
ATOM     29 BR   UNL     1      -1.681  -0.668   0.395  0.00  0.00    -0.049 Br
BRANCH  27  30
ATOM     30  C   UNL     1       1.145  -1.960   0.318  0.00  0.00    +0.388 C 
ATOM     31  O   UNL     1       0.084  -2.547   0.393  0.00  0.00    -0.241 OA
ATOM     32  O   UNL     1       2.299  -2.654   0.293  0.00  0.00    -0.241 OA
ENDBRANCH  27  30
ENDBRANCH  20  23
ENDBRANCH  18  20
ENDBRANCH   3  18
TORSDOF 6
