REMARK  Name = ZINC04058371
REMARK  9 active torsions:
REMARK  status: ('A' for Active; 'I' for Inactive)
REMARK    1  A    between atoms: C_1  and  C_2
REMARK    2  A    between atoms: C_2  and  C_3
REMARK    3  A    between atoms: C_2  and  C_4
REMARK    4  A    between atoms: C_4  and  C_5
REMARK    5  A    between atoms: C_11  and  C_13
REMARK    6  A    between atoms: C_13  and  S_14
REMARK    7  A    between atoms: S_14  and  C_15
REMARK    8  A    between atoms: C_20  and  N_28
REMARK    9  A    between atoms: N_21  and  C_22
REMARK                            x       y       z     vdW  Elec       q    Type
REMARK                         _______ _______ _______ _____ _____    ______ ____
ROOT
ATOM      1  C   UNL     1      -5.822   2.248  -9.293  0.00  0.00    +0.179 A 
ATOM      2  N   UNL     1      -6.282   3.410  -8.881  0.00  0.00    -0.185 NA
ATOM      3  C   UNL     1      -7.365   3.965  -9.448  0.00  0.00    +0.276 A 
ATOM      4  O   UNL     1      -7.779   5.045  -9.053  0.00  0.00    -0.266 OA
ATOM      5  C   UNL     1      -8.022   3.298 -10.501  0.00  0.00    +0.114 A 
ATOM      6  C   UNL     1      -7.539   2.093 -10.923  0.00  0.00    +0.108 A 
ATOM      7  N   UNL     1      -6.425   1.571 -10.314  0.00  0.00    -0.277 N 
ENDROOT
BRANCH   7   8
ATOM      8  C   UNL     1      -5.910   0.339 -10.736  0.00  0.00    +0.050 A 
ATOM      9  C   UNL     1      -6.363  -0.840 -10.159  0.00  0.00    +0.026 A 
ATOM     10  C   UNL     1      -5.853  -2.053 -10.578  0.00  0.00    +0.002 A 
ATOM     11  C   UNL     1      -4.892  -2.095 -11.571  0.00  0.00    +0.000 A 
ATOM     12  C   UNL     1      -4.438  -0.923 -12.148  0.00  0.00    +0.002 A 
ATOM     13  C   UNL     1      -4.949   0.293 -11.738  0.00  0.00    +0.026 A 
ENDBRANCH   7   8
BRANCH   6  14
ATOM     14  N   UNL     1      -8.156   1.414 -11.948  0.00  0.00    -0.344 N 
ATOM     15  H   UNL     1      -8.986   1.749 -12.322  0.00  0.00    +0.144 HD
ATOM     16  H   UNL     1      -7.761   0.600 -12.298  0.00  0.00    +0.144 HD
ENDBRANCH   6  14
BRANCH   1  17
ATOM     17  S   UNL     1      -4.398   1.557  -8.520  0.00  0.00    -0.078 S 
BRANCH  17  18
ATOM     18  C   UNL     1      -3.952   2.775  -7.252  0.00  0.00    +0.173 C 
BRANCH  18  25
ATOM     19  C   UNL     1       0.987   2.095  -3.344  0.00  0.00    +0.104 A 
ATOM     20  N   UNL     1       0.620   1.242  -4.280  0.00  0.00    -0.145 NA
ATOM     21  N   UNL     1      -0.391   1.507  -4.990  0.00  0.00    -0.126 NA
ATOM     22  C   UNL     1      -1.090   2.612  -4.823  0.00  0.00    +0.188 A 
ATOM     23  S   UNL     1      -0.267   3.352  -3.551  0.00  0.00    -0.035 S 
ATOM     24  N   UNL     1      -2.216   3.050  -5.511  0.00  0.00    -0.263 N 
ATOM     25  C   UNL     1      -2.732   2.301  -6.506  0.00  0.00    +0.229 C 
ATOM     26  O   UNL     1      -2.214   1.244  -6.800  0.00  0.00    -0.275 OA
ATOM     27  H   UNL     1      -2.630   3.895  -5.276  0.00  0.00    +0.157 HD
BRANCH  19  28
ATOM     28  C   UNL     1       2.135   2.026  -2.370  0.00  0.00    +0.068 C 
BRANCH  28  30
ATOM     29  C   UNL     1       3.097   4.182  -3.189  0.00  0.00    +0.007 C 
ATOM     30  C   UNL     1       3.368   2.690  -2.987  0.00  0.00    -0.011 C 
ATOM     31  C   UNL     1       4.565   2.511  -2.052  0.00  0.00    +0.007 C 
ENDBRANCH  28  30
ENDBRANCH  19  28
ENDBRANCH  18  25
ENDBRANCH  17  18
ENDBRANCH   1  17
TORSDOF 7
