REMARK  Name = ZINC11439549
REMARK  8 active torsions:
REMARK  status: ('A' for Active; 'I' for Inactive)
REMARK    1  A    between atoms: C_10  and  N_12
REMARK    2  A    between atoms: C_13  and  C_15
REMARK    3  A    between atoms: C_15  and  O_16
REMARK    4  A    between atoms: O_16  and  C_17
REMARK    5  A    between atoms: C_17  and  C_19
REMARK    6  A    between atoms: C_19  and  C_20
REMARK    7  A    between atoms: C_20  and  N_21
REMARK    8  A    between atoms: N_24  and  C_25
REMARK                            x       y       z     vdW  Elec       q    Type
REMARK                         _______ _______ _______ _____ _____    ______ ____
ROOT
ATOM      1  C   UNL     1      -4.876  -5.493   0.019  0.00  0.00    +0.309 C 
ATOM      2  O   UNL     1      -3.947  -6.266   0.006  0.00  0.00    -0.251 OA
ENDROOT
BRANCH   1   3
ATOM      3  O   UNL     1      -6.136  -5.958   0.029  0.00  0.00    -0.455 OA
BRANCH   3   4
ATOM      4  C   UNL     1      -6.306  -7.400   0.022  0.00  0.00    +0.327 C 
BRANCH   4   6
ATOM      5  N   UNL     1      -8.177  -9.019   0.032  0.00  0.00    -0.306 N 
ATOM      6  C   UNL     1      -7.776  -7.732   0.035  0.00  0.00    +0.251 C 
ATOM      7  O   UNL     1      -8.599  -6.841   0.047  0.00  0.00    -0.272 OA
ATOM      8  H   UNL     1      -7.519  -9.731   0.022  0.00  0.00    +0.149 HD
BRANCH   5  18
ATOM      9  C   UNL     1     -11.052  -9.098  -3.974  0.00  0.00    +0.000 A 
ATOM     10  C   UNL     1     -10.169  -8.154  -3.481  0.00  0.00    +0.000 A 
ATOM     11  C   UNL     1      -9.716  -8.254  -2.182  0.00  0.00    +0.006 A 
ATOM     12  C   UNL     1     -10.137  -9.296  -1.365  0.00  0.00    -0.024 A 
ATOM     13  C   UNL     1     -11.012 -10.238  -1.858  0.00  0.00    -0.042 A 
ATOM     14  C   UNL     1     -11.470 -10.134  -3.165  0.00  0.00    +0.004 A 
ATOM     15  C   UNL     1     -11.505 -11.397  -1.032  0.00  0.00    +0.035 C 
ATOM     16  C   UNL     1     -11.269 -11.137   0.454  0.00  0.00    +0.007 C 
ATOM     17  C   UNL     1      -9.803 -10.730   0.647  0.00  0.00    +0.027 C 
ATOM     18  C   UNL     1      -9.606  -9.341   0.044  0.00  0.00    +0.104 C 
ENDBRANCH   5  18
ENDBRANCH   4   6
ENDBRANCH   3   4
ENDBRANCH   1   3
BRANCH   1  19
ATOM     19  C   UNL     1      -4.621  -4.008   0.025  0.00  0.00    +0.139 C 
BRANCH  19  20
ATOM     20  C   UNL     1      -3.113  -3.750   0.012  0.00  0.00    +0.117 C 
BRANCH  20  21
ATOM     21  N   UNL     1      -2.865  -2.306   0.017  0.00  0.00    -0.299 N 
ATOM     22  C   UNL     1      -1.601  -1.839   0.007  0.00  0.00    +0.300 C 
ATOM     23  O   UNL     1      -0.666  -2.617  -0.006  0.00  0.00    -0.253 OA
ATOM     24  N   UNL     1      -1.372  -0.511   0.012  0.00  0.00    -0.294 N 
ATOM     25  H   UNL     1      -3.611  -1.686   0.028  0.00  0.00    +0.150 HD
ATOM     26  H   UNL     1      -2.118   0.109   0.023  0.00  0.00    +0.151 HD
BRANCH  24  27
ATOM     27  C   UNL     1       0.002  -0.004   0.002  0.00  0.00    +0.037 C 
ATOM     28  C   UNL     1      -0.019   1.526   0.010  0.00  0.00    +0.029 C 
ATOM     29  C   UNL     1       1.417   2.055  -0.000  0.00  0.00    -0.008 C 
ATOM     30  C   UNL     1       2.133   1.562  -1.259  0.00  0.00    +0.007 C 
ATOM     31  C   UNL     1       2.154   0.032  -1.268  0.00  0.00    -0.008 C 
ATOM     32  C   UNL     1       0.718  -0.497  -1.257  0.00  0.00    +0.029 C 
ATOM     33  C   UNL     1       2.894  -0.475  -0.028  0.00  0.00    +0.007 C 
ATOM     34  C   UNL     1       2.178   0.019   1.231  0.00  0.00    -0.008 C 
ATOM     35  C   UNL     1       2.157   1.548   1.239  0.00  0.00    +0.007 C 
ATOM     36  C   UNL     1       0.742  -0.511   1.242  0.00  0.00    +0.029 C 
ENDBRANCH  24  27
ENDBRANCH  20  21
ENDBRANCH  19  20
ENDBRANCH   1  19
TORSDOF 8
