REMARK  Name = ZINC20794552
REMARK  7 active torsions:
REMARK  status: ('A' for Active; 'I' for Inactive)
REMARK    1  A    between atoms: C_1  and  C_2
REMARK    2  A    between atoms: C_2  and  C_23
REMARK    3  A    between atoms: N_5  and  C_9
REMARK    4  A    between atoms: C_9  and  C_10
REMARK    5  A    between atoms: N_12  and  C_13
REMARK    6  A    between atoms: C_18  and  O_19
REMARK    7  A    between atoms: O_19  and  C_20
REMARK                            x       y       z     vdW  Elec       q    Type
REMARK                         _______ _______ _______ _____ _____    ______ ____
ROOT
ATOM      1  C   UNL     1       1.302  -2.921   1.060  0.00  0.00    +0.047 C 
ATOM      2  C   UNL     1       0.035  -2.205   0.589  0.00  0.00    +0.135 C 
ATOM      3  C   UNL     1       0.017  -0.772   1.084  0.00  0.00    +0.251 C 
ATOM      4  O   UNL     1       0.015  -0.396   2.236  0.00  0.00    -0.272 OA
ATOM      5  N   UNL     1       0.003  -0.005  -0.024  0.00  0.00    -0.215 N 
ATOM      6  C   UNL     1       0.005  -0.746  -1.138  0.00  0.00    +0.310 C 
ATOM      7  O   UNL     1      -0.009  -0.278  -2.260  0.00  0.00    -0.252 OA
ATOM      8  N   UNL     1       0.029  -2.065  -0.878  0.00  0.00    -0.281 N 
ATOM      9  H   UNL     1       0.043  -2.961  -1.516  0.00  0.00    +0.152 HD
ENDROOT
BRANCH   2  10
ATOM     10  C   UNL     1      -1.194  -2.943   1.056  0.00  0.00    -0.015 A 
ATOM     11  C   UNL     1      -1.795  -2.596   2.252  0.00  0.00    +0.007 A 
ATOM     12  C   UNL     1      -2.925  -3.269   2.678  0.00  0.00    +0.020 A 
ATOM     13  C   UNL     1      -3.447  -4.296   1.913  0.00  0.00    +0.041 A 
ATOM     14  C   UNL     1      -2.842  -4.646   0.719  0.00  0.00    +0.020 A 
ATOM     15  C   UNL     1      -1.716  -3.969   0.291  0.00  0.00    +0.007 A 
ATOM     16 CL   UNL     1      -4.862  -5.146   2.451  0.00  0.00    -0.084 Cl
ENDBRANCH   2  10
BRANCH   5  17
ATOM     17  C   UNL     1      -0.017   1.460  -0.010  0.00  0.00    +0.214 C 
BRANCH  17  18
ATOM     18  C   UNL     1       1.397   1.982  -0.008  0.00  0.00    +0.235 C 
ATOM     19  O   UNL     1       2.329   1.207  -0.018  0.00  0.00    -0.274 OA
ATOM     20  N   UNL     1       1.624   3.311   0.004  0.00  0.00    -0.281 N 
ATOM     21  H   UNL     1       0.781   4.014  -0.061  0.00  0.00    +0.155 HD
BRANCH  20  22
ATOM     22  C   UNL     1       2.935   3.796   0.100  0.00  0.00    +0.076 A 
ATOM     23  C   UNL     1       3.978   3.108  -0.504  0.00  0.00    +0.027 A 
ATOM     24  C   UNL     1       5.270   3.589  -0.408  0.00  0.00    +0.002 A 
ATOM     25  C   UNL     1       5.527   4.755   0.288  0.00  0.00    +0.004 A 
ATOM     26  C   UNL     1       4.494   5.446   0.893  0.00  0.00    +0.048 A 
ATOM     27  C   UNL     1       3.195   4.973   0.797  0.00  0.00    +0.148 A 
BRANCH  27  28
ATOM     28  O   UNL     1       2.177   5.655   1.387  0.00  0.00    -0.432 OA
BRANCH  28  29
ATOM     29  C   UNL     1       2.517   6.854   2.085  0.00  0.00    +0.541 C 
ATOM     30  F   UNL     1       3.415   6.555   3.115  0.00  0.00    -0.166 F 
ATOM     31  F   UNL     1       3.110   7.758   1.197  0.00  0.00    -0.166 F 
ENDBRANCH  28  29
ENDBRANCH  27  28
ENDBRANCH  20  22
ENDBRANCH  17  18
ENDBRANCH   5  17
TORSDOF 6
