REMARK  Name = ZINC36313900
REMARK  15 active torsions:
REMARK  status: ('A' for Active; 'I' for Inactive)
REMARK    1  A    between atoms: C_1  and  C_2
REMARK    2  A    between atoms: C_2  and  C_3
REMARK    3  A    between atoms: C_3  and  C_4
REMARK    4  A    between atoms: C_4  and  C_5
REMARK    5  A    between atoms: C_5  and  C_7
REMARK    6  A    between atoms: C_5  and  O_38
REMARK    7  A    between atoms: C_7  and  N_8
REMARK    8  A    between atoms: N_8  and  C_9
REMARK    9  A    between atoms: N_8  and  C_31
REMARK   10  A    between atoms: C_9  and  C_10
REMARK   11  A    between atoms: C_11  and  C_30
REMARK   12  A    between atoms: N_13  and  C_24
REMARK   13  A    between atoms: C_14  and  O_15
REMARK   14  A    between atoms: O_15  and  C_16
REMARK   15  A    between atoms: C_31  and  C_32
REMARK                            x       y       z     vdW  Elec       q    Type
REMARK                         _______ _______ _______ _____ _____    ______ ____
ROOT
ATOM      1  C   UNL     1      -3.421  -6.415   2.142  0.00  0.00    +0.021 A 
ATOM      2  C   UNL     1      -2.069  -6.235   2.450  0.00  0.00    +0.065 A 
ATOM      3  N   UNL     1      -1.935  -6.248   3.752  0.00  0.00    -0.168 NA
ATOM      4  N   UNL     1      -3.199  -6.436   4.324  0.00  0.00    -0.200 N 
ATOM      5  C   UNL     1      -4.103  -6.532   3.313  0.00  0.00    +0.225 A 
ATOM      6  C   UNL     1      -0.954  -6.058   1.451  0.00  0.00    +0.068 C 
ENDROOT
BRANCH   4   7
ATOM      7  C   UNL     1      -3.482  -6.509   5.695  0.00  0.00    +0.069 A 
ATOM      8  C   UNL     1      -4.649  -5.946   6.195  0.00  0.00    +0.028 A 
ATOM      9  C   UNL     1      -4.926  -6.019   7.546  0.00  0.00    +0.002 A 
ATOM     10  C   UNL     1      -4.042  -6.653   8.401  0.00  0.00    +0.000 A 
ATOM     11  C   UNL     1      -2.880  -7.214   7.906  0.00  0.00    +0.002 A 
ATOM     12  C   UNL     1      -2.600  -7.149   6.555  0.00  0.00    +0.028 A 
ENDBRANCH   4   7
BRANCH   1  13
ATOM     13  C   UNL     1      -4.017  -6.464   0.759  0.00  0.00    -0.036 C 
BRANCH  13  14
ATOM     14  N   UNL     1      -4.476  -5.123   0.375  0.00  0.00    +0.386 N 
ATOM     15  H   UNL     1      -5.077  -4.754   1.097  0.00  0.00    -0.081 HD
BRANCH  14  16
ATOM     16  C   UNL     1      -3.315  -4.238   0.205  0.00  0.00    -0.047 C 
BRANCH  16  17
ATOM     17  C   UNL     1      -3.796  -2.804  -0.021  0.00  0.00    +0.098 C 
BRANCH  17  18
ATOM     18  O   UNL     1      -4.469  -2.720  -1.278  0.00  0.00    -0.394 OA
ATOM     19  H   UNL     1      -3.918  -2.958  -2.036  0.00  0.00    +0.210 HD
ENDBRANCH  17  18
BRANCH  17  20
ATOM     20  C   UNL     1      -2.594  -1.857  -0.021  0.00  0.00    +0.029 C 
BRANCH  20  21
ATOM     21  C   UNL     1      -3.084  -0.411  -0.122  0.00  0.00    +0.002 C 
BRANCH  21  23
ATOM     22  C   UNL     1      -2.371   1.982  -0.224  0.00  0.00    +0.004 C 
ATOM     23  C   UNL     1      -1.882   0.536  -0.123  0.00  0.00    -0.003 C 
ENDBRANCH  21  23
ENDBRANCH  20  21
ENDBRANCH  17  20
ENDBRANCH  16  17
ENDBRANCH  14  16
BRANCH  14  24
ATOM     24  C   UNL     1      -5.220  -5.202  -0.889  0.00  0.00    -0.046 C 
BRANCH  24  25
ATOM     25  C   UNL     1      -4.269  -5.612  -2.015  0.00  0.00    +0.102 C 
ATOM     26  C   UNL     1      -5.010  -5.569  -3.369  0.00  0.00    +0.032 C 
ATOM     27  C   UNL     1      -4.447  -6.822  -4.093  0.00  0.00    +0.030 C 
ATOM     28  C   UNL     1      -4.250  -7.789  -2.899  0.00  0.00    +0.160 C 
ATOM     29  O   UNL     1      -3.820  -6.957  -1.808  0.00  0.00    -0.378 OA
ENDBRANCH  24  25
ENDBRANCH  14  24
ENDBRANCH  13  14
ENDBRANCH   1  13
BRANCH   5  30
ATOM     30  O   UNL     1      -5.442  -6.712   3.447  0.00  0.00    -0.435 OA
BRANCH  30  31
ATOM     31  C   UNL     1      -5.903  -7.983   3.594  0.00  0.00    +0.166 A 
ATOM     32  C   UNL     1      -5.009  -9.037   3.709  0.00  0.00    +0.052 A 
ATOM     33  C   UNL     1      -5.479 -10.328   3.858  0.00  0.00    +0.042 A 
ATOM     34  C   UNL     1      -6.841 -10.570   3.893  0.00  0.00    +0.126 A 
ATOM     35  C   UNL     1      -7.736  -9.521   3.778  0.00  0.00    +0.080 A 
ATOM     36  C   UNL     1      -7.270  -8.226   3.634  0.00  0.00    +0.168 A 
ATOM     37  F   UNL     1      -8.143  -7.201   3.527  0.00  0.00    -0.202 F 
ATOM     38  F   UNL     1      -7.298 -11.834   4.040  0.00  0.00    -0.205 F 
ENDBRANCH  30  31
ENDBRANCH   5  30
TORSDOF 13
