REMARK  Name = ZINC04416138
REMARK  4 active torsions:
REMARK  status: ('A' for Active; 'I' for Inactive)
REMARK    1  A    between atoms: C_14  and  O_27
REMARK    2  A    between atoms: C_15  and  O_26
REMARK    3  A    between atoms: C_22  and  O_25
REMARK    4  A    between atoms: C_23  and  O_24
REMARK                            x       y       z     vdW  Elec       q    Type
REMARK                         _______ _______ _______ _____ _____    ______ ____
ROOT
ATOM      1  C   UNL     1      -1.228   1.731   0.017  0.00  0.00    +0.001 A 
ATOM      2  C   UNL     1      -0.013   1.076   0.008  0.00  0.00    +0.000 A 
ATOM      3  C   UNL     1       1.194   1.769   0.000  0.00  0.00    +0.009 A 
ATOM      4  C   UNL     1       1.124   3.144   0.008  0.00  0.00    +0.019 A 
ATOM      5  C   UNL     1      -0.109   3.822   0.024  0.00  0.00    +0.067 A 
ATOM      6  C   UNL     1      -1.315   3.115   0.031  0.00  0.00    +0.015 A 
ATOM      7  C   UNL     1       0.160   5.259   0.028  0.00  0.00    +0.341 C 
ATOM      8  O   UNL     1      -0.689   6.127   0.041  0.00  0.00    -0.245 OA
ATOM      9  O   UNL     1       1.490   5.480   0.016  0.00  0.00    -0.440 OA
ATOM     10  C   UNL     1       2.186   4.198   0.004  0.00  0.00    +0.197 C 
ATOM     11  C   UNL     1       3.023   4.095  -1.243  0.00  0.00    +0.051 A 
ATOM     12  C   UNL     1       2.501   4.532  -2.449  0.00  0.00    +0.016 A 
ATOM     13  C   UNL     1       3.250   4.448  -3.606  0.00  0.00    +0.050 A 
ATOM     14  C   UNL     1       4.533   3.925  -3.565  0.00  0.00    +0.162 A 
ATOM     15  C   UNL     1       5.062   3.485  -2.359  0.00  0.00    +0.202 A 
ATOM     16  C   UNL     1       4.304   3.569  -1.194  0.00  0.00    +0.181 A 
ATOM     17  O   UNL     1       4.835   3.132  -0.026  0.00  0.00    -0.448 OA
ATOM     18  C   UNL     1       4.325   3.557   1.156  0.00  0.00    +0.181 A 
ATOM     19  C   UNL     1       3.046   4.083   1.233  0.00  0.00    +0.051 A 
ATOM     20  C   UNL     1       2.547   4.511   2.452  0.00  0.00    +0.016 A 
ATOM     21  C   UNL     1       3.316   4.415   3.595  0.00  0.00    +0.050 A 
ATOM     22  C   UNL     1       4.597   3.888   3.526  0.00  0.00    +0.162 A 
ATOM     23  C   UNL     1       5.103   3.458   2.307  0.00  0.00    +0.202 A 
ENDROOT
BRANCH  23  24
ATOM     24  O   UNL     1       6.359   2.940   2.236  0.00  0.00    -0.501 OA
ATOM     25  H   UNL     1       7.047   3.598   2.065  0.00  0.00    +0.292 HD
ENDBRANCH  23  24
BRANCH  22  26
ATOM     26  O   UNL     1       5.356   3.793   4.651  0.00  0.00    -0.503 OA
ATOM     27  H   UNL     1       5.900   4.574   4.826  0.00  0.00    +0.292 HD
ENDBRANCH  22  26
BRANCH  15  28
ATOM     28  O   UNL     1       6.322   2.971  -2.315  0.00  0.00    -0.501 OA
ATOM     29  H   UNL     1       6.362   2.015  -2.455  0.00  0.00    +0.292 HD
ENDBRANCH  15  28
BRANCH  14  30
ATOM     30  O   UNL     1       5.273   3.844  -4.704  0.00  0.00    -0.503 OA
ATOM     31  H   UNL     1       5.810   4.628  -4.881  0.00  0.00    +0.292 HD
ENDBRANCH  14  30
TORSDOF 4
