REMARK  Name = ZINC41069881
REMARK  5 active torsions:
REMARK  status: ('A' for Active; 'I' for Inactive)
REMARK    1  A    between atoms: C_1  and  C_2
REMARK    2  A    between atoms: N_8  and  S_9
REMARK    3  A    between atoms: S_9  and  C_12
REMARK    4  A    between atoms: C_17  and  N_18
REMARK    5  A    between atoms: N_18  and  N_19
REMARK                            x       y       z     vdW  Elec       q    Type
REMARK                         _______ _______ _______ _____ _____    ______ ____
ROOT
ATOM      1  S   UNL     1       0.051  -0.934   3.791  0.00  0.00    +0.104 S 
ATOM      2  O   UNL     1      -1.185  -1.632   3.868  0.00  0.00    -0.146 OA
ATOM      3  O   UNL     1       1.306  -1.599   3.845  0.00  0.00    -0.146 OA
ENDROOT
BRANCH   1  11
ATOM      4  C   UNL     1      -0.018   1.503   0.010  0.00  0.00    +0.047 C 
ATOM      5  C   UNL     1       0.002  -0.004   0.002  0.00  0.00    -0.007 A 
ATOM      6  C   UNL     1       0.006  -0.684  -1.174  0.00  0.00    +0.008 A 
ATOM      7  C   UNL     1       0.025  -2.090  -1.165  0.00  0.00    +0.018 A 
ATOM      8  C   UNL     1       0.041  -2.765   0.004  0.00  0.00    +0.084 A 
ATOM      9  N   UNL     1       0.037  -2.099   1.193  0.00  0.00    -0.345 N 
ATOM     10  C   UNL     1       0.023  -0.726   1.219  0.00  0.00    +0.155 A 
ATOM     11  N   UNL     1       0.026  -0.085   2.369  0.00  0.00    -0.111 NA
ATOM     12  H   UNL     1       0.047  -2.598   2.025  0.00  0.00    +0.167 HD
ENDBRANCH   1  11
BRANCH   1  13
ATOM     13  C   UNL     1       0.047   0.243   5.101  0.00  0.00    +0.154 A 
ATOM     14  C   UNL     1      -1.024   0.318   5.973  0.00  0.00    +0.049 A 
ATOM     15  C   UNL     1      -0.985   1.261   6.992  0.00  0.00    +0.038 A 
ATOM     16  C   UNL     1       0.115   2.090   7.104  0.00  0.00    +0.128 A 
ATOM     17  N   UNL     1       1.122   1.996   6.257  0.00  0.00    -0.236 NA
ATOM     18  C   UNL     1       1.124   1.106   5.277  0.00  0.00    +0.159 A 
ATOM     19 BR   UNL     1      -2.421   1.409   8.213  0.00  0.00    -0.049 Br
BRANCH  18  20
ATOM     20  N   UNL     1       2.210   1.037   4.411  0.00  0.00    -0.266 N 
ATOM     21  H   UNL     1       2.214   0.389   3.689  0.00  0.00    +0.167 HD
BRANCH  20  22
ATOM     22  N   UNL     1       3.271   1.881   4.578  0.00  0.00    -0.255 NA
ATOM     23  H   UNL     1       3.655   1.800   5.508  0.00  0.00    +0.140 HD
ATOM     24  H   UNL     1       3.979   1.714   3.879  0.00  0.00    +0.140 HD
ENDBRANCH  20  22
ENDBRANCH  18  20
ENDBRANCH   1  13
TORSDOF 4
