REMARK  Name = ZINC57086526
REMARK  8 active torsions:
REMARK  status: ('A' for Active; 'I' for Inactive)
REMARK    1  A    between atoms: C_1  and  C_2
REMARK    2  A    between atoms: C_2  and  C_4
REMARK    3  A    between atoms: C_2  and  N_7
REMARK    4  A    between atoms: N_7  and  C_8
REMARK    5  A    between atoms: N_7  and  C_15
REMARK    6  A    between atoms: C_8  and  C_9
REMARK    7  A    between atoms: C_15  and  N_16
REMARK    8  A    between atoms: N_24  and  C_26
REMARK                            x       y       z     vdW  Elec       q    Type
REMARK                         _______ _______ _______ _____ _____    ______ ____
ROOT
ATOM      1  N   UNL     1      -1.211  -2.609   0.960  0.00  0.00    -0.245 N 
ATOM      2  C   UNL     1       0.044  -3.081   1.108  0.00  0.00    +0.293 A 
ATOM      3  O   UNL     1       0.868  -2.945   0.221  0.00  0.00    -0.264 OA
ATOM      4  C   UNL     1       0.397  -3.762   2.359  0.00  0.00    +0.160 A 
ATOM      5  C   UNL     1      -0.658  -3.885   3.383  0.00  0.00    +0.045 A 
ATOM      6  C   UNL     1      -1.975  -3.325   3.087  0.00  0.00    +0.144 A 
ATOM      7  N   UNL     1      -2.184  -2.736   1.948  0.00  0.00    -0.178 NA
ATOM      8  C   UNL     1      -0.056  -4.550   4.421  0.00  0.00    +0.124 A 
ATOM      9  N   UNL     1       1.217  -4.791   4.044  0.00  0.00    -0.239 N 
ATOM     10  N   UNL     1       1.461  -4.335   2.866  0.00  0.00    -0.161 NA
ENDROOT
BRANCH   9  11
ATOM     11  C   UNL     1       2.159  -5.456   4.839  0.00  0.00    +0.065 A 
ATOM     12  C   UNL     1       1.804  -5.918   6.100  0.00  0.00    +0.028 A 
ATOM     13  C   UNL     1       2.735  -6.573   6.881  0.00  0.00    +0.002 A 
ATOM     14  C   UNL     1       4.020  -6.769   6.411  0.00  0.00    +0.000 A 
ATOM     15  C   UNL     1       4.377  -6.309   5.156  0.00  0.00    +0.002 A 
ATOM     16  C   UNL     1       3.449  -5.659   4.367  0.00  0.00    +0.028 A 
ENDBRANCH   9  11
BRANCH   1  17
ATOM     17  C   UNL     1      -1.562  -1.929  -0.290  0.00  0.00    +0.074 C 
BRANCH  17  18
ATOM     18  N   UNL     1      -1.784  -0.501  -0.025  0.00  0.00    +0.397 N 
ATOM     19  H   UNL     1      -2.174  -0.387   0.898  0.00  0.00    -0.078 HD
BRANCH  18  21
ATOM     20  C   UNL     1       0.396  -0.212   1.053  0.00  0.00    -0.013 C 
ATOM     21  C   UNL     1      -0.504   0.216  -0.108  0.00  0.00    -0.066 C 
BRANCH  21  22
ATOM     22  C   UNL     1       0.182  -0.117  -1.434  0.00  0.00    -0.025 C 
ATOM     23  C   UNL     1       1.541  -0.816  -1.371  0.00  0.00    +0.002 C 
ATOM     24  C   UNL     1       1.456   0.655  -1.783  0.00  0.00    +0.002 C 
ENDBRANCH  21  22
ENDBRANCH  18  21
BRANCH  18  25
ATOM     25  C   UNL     1      -2.715   0.043  -1.022  0.00  0.00    -0.040 C 
BRANCH  25  26
ATOM     26  C   UNL     1      -3.062   1.464  -0.662  0.00  0.00    -0.064 A 
ATOM     27  C   UNL     1      -4.062   1.720   0.258  0.00  0.00    +0.002 A 
ATOM     28  C   UNL     1      -4.380   3.024   0.588  0.00  0.00    +0.000 A 
ATOM     29  C   UNL     1      -3.699   4.072  -0.001  0.00  0.00    +0.000 A 
ATOM     30  C   UNL     1      -2.698   3.817  -0.920  0.00  0.00    +0.000 A 
ATOM     31  C   UNL     1      -2.377   2.513  -1.247  0.00  0.00    +0.002 A 
ENDBRANCH  25  26
ENDBRANCH  18  25
ENDBRANCH  17  18
ENDBRANCH   1  17
TORSDOF 7
