REMARK  Name = ZINC63104524
REMARK  3 active torsions:
REMARK  status: ('A' for Active; 'I' for Inactive)
REMARK    1  A    between atoms: C_1  and  C_2
REMARK    2  A    between atoms: C_7  and  C_10
REMARK    3  A    between atoms: C_16  and  N_20
REMARK                            x       y       z     vdW  Elec       q    Type
REMARK                         _______ _______ _______ _____ _____    ______ ____
ROOT
ATOM      1  C   UNL     1      -0.019   1.526   0.010  0.00  0.00    +0.007 C 
ATOM      2  C   UNL     1       0.002  -0.004   0.002  0.00  0.00    -0.011 C 
ATOM      3  C   UNL     1      -1.434  -0.533   0.012  0.00  0.00    +0.022 C 
ATOM      4  C   UNL     1      -1.409  -2.065  -0.031  0.00  0.00    +0.107 C 
ATOM      5  N   UNL     1      -0.577  -2.556   1.075  0.00  0.00    -0.307 N 
ATOM      6  C   UNL     1       0.792  -2.042   1.212  0.00  0.00    +0.072 C 
ATOM      7  C   UNL     1       0.743  -0.511   1.242  0.00  0.00    +0.025 C 
ATOM      8  C   UNL     1       1.409  -2.563   2.511  0.00  0.00    +0.028 C 
ATOM      9  C   UNL     1      -1.073  -3.483   1.971  0.00  0.00    +0.162 A 
ATOM     10  N   UNL     1      -0.480  -4.023   3.010  0.00  0.00    -0.225 NA
ATOM     11  C   UNL     1      -1.093  -4.927   3.808  0.00  0.00    +0.080 A 
ATOM     12  C   UNL     1      -0.571  -5.579   4.949  0.00  0.00    +0.031 A 
ATOM     13  C   UNL     1      -1.329  -6.477   5.653  0.00  0.00    +0.025 A 
ATOM     14  C   UNL     1      -2.634  -6.782   5.273  0.00  0.00    +0.026 A 
ATOM     15  C   UNL     1      -3.177  -6.158   4.157  0.00  0.00    +0.040 A 
ATOM     16  C   UNL     1      -2.420  -5.258   3.450  0.00  0.00    +0.042 A 
ATOM     17  S   UNL     1      -2.688  -4.248   2.013  0.00  0.00    -0.052 S 
ENDROOT
BRANCH  14  18
ATOM     18  N   UNL     1      -3.389  -7.704   6.007  0.00  0.00    -0.358 N 
ATOM     19  H   UNL     1      -3.003  -8.136   6.786  0.00  0.00    +0.142 HD
ATOM     20  H   UNL     1      -4.297  -7.911   5.737  0.00  0.00    +0.142 HD
ENDBRANCH  14  18
TORSDOF 1
