REMARK  Name = ZINC39466256
REMARK  4 active torsions:
REMARK  status: ('A' for Active; 'I' for Inactive)
REMARK    1  A    between atoms: C_1  and  C_2
REMARK    2  A    between atoms: C_2  and  C_3
REMARK    3  A    between atoms: C_2  and  S_4
REMARK    4  A    between atoms: S_4  and  P_7
REMARK                            x       y       z     vdW  Elec       q    Type
REMARK                         _______ _______ _______ _____ _____    ______ ____
ROOT
ATOM      1  P   UNL     1      -0.225   0.155   3.114  0.00  0.00    +0.419 P 
ATOM      2  O   UNL     1      -1.603  -0.384   3.096  0.00  0.00    -0.246 OA
ATOM      3  N   UNL     1       0.525  -0.233   4.535  0.00  0.00    -0.161 NA
ATOM      4  N   UNL     1       0.211   0.542   5.630  0.00  0.00    -0.224 NA
ATOM      5  C   UNL     1       0.971   0.081   6.802  0.00  0.00    +0.108 C 
ATOM      6  C   UNL     1       0.374   0.717   8.057  0.00  0.00    +0.052 C 
ATOM      7  C   UNL     1       0.273   2.210   7.870  0.00  0.00    -0.040 A 
ATOM      8  C   UNL     1       0.135   3.010   8.993  0.00  0.00    +0.025 A 
ATOM      9  C   UNL     1       0.038   4.382   8.864  0.00  0.00    +0.060 A 
ATOM     10  C   UNL     1       0.080   4.959   7.606  0.00  0.00    +0.060 A 
ATOM     11  C   UNL     1       0.218   4.160   6.488  0.00  0.00    +0.027 A 
ATOM     12  C   UNL     1       0.315   2.782   6.617  0.00  0.00    -0.022 A 
ATOM     13  C   UNL     1       0.464   1.958   5.365  0.00  0.00    +0.130 C 
ATOM     14  C   UNL     1      -0.490   2.496   4.295  0.00  0.00    +0.195 C 
ATOM     15  O   UNL     1      -0.256   1.781   3.066  0.00  0.00    -0.298 OA
ATOM     16 CL   UNL     1      -0.042   6.682   7.434  0.00  0.00    -0.082 Cl
ATOM     17 CL   UNL     1      -0.137   5.379  10.274  0.00  0.00    -0.082 Cl
ATOM     18  H   UNL     1       1.154  -0.970   4.596  0.00  0.00    +0.152 HD
ENDROOT
BRANCH   1  19
ATOM     19  S   UNL     1       0.879  -0.605   1.472  0.00  0.00    +0.058 S 
ATOM     20  O   UNL     1       0.754  -2.017   1.573  0.00  0.00    -0.164 OA
ATOM     21  O   UNL     1       2.152   0.018   1.571  0.00  0.00    -0.164 OA
BRANCH  19  23
ATOM     22  C   UNL     1      -0.019   1.526   0.010  0.00  0.00    +0.032 C 
ATOM     23  C   UNL     1       0.002  -0.004   0.002  0.00  0.00    +0.136 C 
ATOM     24  C   UNL     1       0.718  -0.497  -1.257  0.00  0.00    +0.032 C 
ENDBRANCH  19  23
ENDBRANCH   1  19
TORSDOF 2
