REMARK  Name = ZINC39979876
REMARK  8 active torsions:
REMARK  status: ('A' for Active; 'I' for Inactive)
REMARK    1  A    between atoms: C_1  and  C_2
REMARK    2  A    between atoms: C_2  and  C_3
REMARK    3  A    between atoms: C_2  and  C_4
REMARK    4  A    between atoms: C_6  and  C_24
REMARK    5  A    between atoms: C_7  and  N_23
REMARK    6  A    between atoms: C_12  and  C_15
REMARK    7  A    between atoms: C_15  and  S_16
REMARK    8  A    between atoms: S_16  and  C_17
REMARK                            x       y       z     vdW  Elec       q    Type
REMARK                         _______ _______ _______ _____ _____    ______ ____
ROOT
ATOM      1  C   UNL     1      -1.433  -0.534   0.013  0.00  0.00    +0.070 C 
ATOM      2  C   UNL     1      -1.434  -2.050  -0.043  0.00  0.00    +0.093 C 
ATOM      3  C   UNL     1      -1.848  -2.720  -1.139  0.00  0.00    +0.195 C 
ATOM      4  O   UNL     1      -2.321  -2.182  -2.278  0.00  0.00    -0.448 OA
ATOM      5  C   UNL     1      -1.979  -0.822  -2.554  0.00  0.00    +0.343 C 
ATOM      6  C   UNL     1      -2.163  -0.084  -1.223  0.00  0.00    +0.027 C 
ATOM      7  C   UNL     1      -3.019   0.875  -1.477  0.00  0.00    +0.079 C 
ATOM      8  N   UNL     1      -3.472   0.776  -2.753  0.00  0.00    -0.154 NA
ATOM      9  N   UNL     1      -2.958  -0.160  -3.420  0.00  0.00    -0.138 NA
ENDROOT
BRANCH   1  11
ATOM     10  C   UNL     1      -0.019   1.526   0.010  0.00  0.00    +0.008 C 
ATOM     11  C   UNL     1       0.002  -0.004   0.002  0.00  0.00    -0.005 C 
ATOM     12  C   UNL     1       0.742  -0.511   1.242  0.00  0.00    +0.008 C 
ENDBRANCH   1  11
BRANCH   3  13
ATOM     13  N   UNL     1      -1.779  -4.090  -1.087  0.00  0.00    -0.329 N 
ATOM     14  H   UNL     1      -1.445  -4.528  -0.289  0.00  0.00    +0.145 HD
ATOM     15  H   UNL     1      -2.064  -4.619  -1.848  0.00  0.00    +0.145 HD
ENDBRANCH   3  13
BRANCH   2  16
ATOM     16  C   UNL     1      -0.983  -2.790   1.097  0.00  0.00    +0.100 C 
ATOM     17  N   UNL     1      -0.625  -3.377   2.002  0.00  0.00    -0.191 NA
ENDBRANCH   2  16
BRANCH   7  18
ATOM     18  C   UNL     1      -3.440   1.937  -0.494  0.00  0.00    +0.131 C 
BRANCH  18  19
ATOM     19  S   UNL     1      -2.638   3.507  -0.920  0.00  0.00    -0.119 S 
BRANCH  19  20
ATOM     20  C   UNL     1      -3.223   4.631   0.305  0.00  0.00    +0.008 A 
ATOM     21  C   UNL     1      -4.097   4.192   1.292  0.00  0.00    +0.015 A 
ATOM     22  C   UNL     1      -4.553   5.075   2.251  0.00  0.00    +0.001 A 
ATOM     23  C   UNL     1      -4.142   6.395   2.229  0.00  0.00    +0.000 A 
ATOM     24  C   UNL     1      -3.272   6.836   1.248  0.00  0.00    +0.001 A 
ATOM     25  C   UNL     1      -2.807   5.957   0.290  0.00  0.00    +0.015 A 
ENDBRANCH  19  20
ENDBRANCH  18  19
ENDBRANCH   7  18
TORSDOF 6
