REMARK  Name = ZINC03840772
REMARK  7 active torsions:
REMARK  status: ('A' for Active; 'I' for Inactive)
REMARK    1  A    between atoms: C_1  and  C_2
REMARK    2  A    between atoms: C_10  and  C_12
REMARK    3  A    between atoms: C_16  and  C_37
REMARK    4  A    between atoms: C_19  and  O_36
REMARK    5  A    between atoms: C_21  and  C_25
REMARK    6  A    between atoms: C_25  and  C_27
REMARK    7  A    between atoms: C_25  and  C_28
REMARK                            x       y       z     vdW  Elec       q    Type
REMARK                         _______ _______ _______ _____ _____    ______ ____
ROOT
ATOM      1  C   UNL     1      -0.124   0.526  -0.276  0.00  0.00    +0.014 C 
ATOM      2  C   UNL     1      -0.680   1.168   0.997  0.00  0.00    +0.042 C 
ATOM      3  C   UNL     1       0.003   0.558   2.212  0.00  0.00    +0.057 A 
ATOM      4  C   UNL     1      -0.721   0.259   3.321  0.00  0.00    +0.015 A 
ATOM      5  S   UNL     1       0.504  -0.405   4.417  0.00  0.00    -0.057 S 
ATOM      6  C   UNL     1       1.861  -0.240   3.344  0.00  0.00    +0.165 A 
ATOM      7  N   UNL     1       1.304   0.287   2.273  0.00  0.00    -0.229 NA
ATOM      8  N   UNL     1       3.192  -0.578   3.560  0.00  0.00    -0.264 N 
ATOM      9  C   UNL     1       3.569  -1.113   4.738  0.00  0.00    +0.222 C 
ATOM     10  O   UNL     1       2.747  -1.300   5.610  0.00  0.00    -0.275 OA
ATOM     11  C   UNL     1      -2.181   0.450   3.534  0.00  0.00    +0.051 C 
ATOM     12  C   UNL     1      -2.732   1.379   2.434  0.00  0.00    -0.022 C 
ATOM     13  C   UNL     1      -2.192   0.918   1.078  0.00  0.00    +0.033 C 
ATOM     14  C   UNL     1      -2.851   1.716  -0.051  0.00  0.00    +0.123 C 
ATOM     15  C   UNL     1      -4.369   1.553  -0.003  0.00  0.00    +0.029 C 
ATOM     16  C   UNL     1      -4.878   2.087   1.340  0.00  0.00    +0.007 C 
ATOM     17  C   UNL     1      -4.259   1.260   2.464  0.00  0.00    +0.008 C 
ATOM     18  C   UNL     1      -2.314   2.824   2.713  0.00  0.00    +0.012 C 
ATOM     19  H   UNL     1       3.850  -0.428   2.863  0.00  0.00    +0.157 HD
ENDROOT
BRANCH   9  20
ATOM     20  C   UNL     1       5.012  -1.479   4.973  0.00  0.00    +0.075 C 
ATOM     21  C   UNL     1       5.355  -2.966   5.079  0.00  0.00    +0.013 C 
ATOM     22  C   UNL     1       5.376  -2.084   6.330  0.00  0.00    +0.013 C 
ENDBRANCH   9  20
BRANCH  15  23
ATOM     23  C   UNL     1      -5.006   2.346  -1.145  0.00  0.00    +0.078 C 
ATOM     24  C   UNL     1      -4.749   3.839  -0.936  0.00  0.00    +0.017 C 
BRANCH  23  25
ATOM     25  C   UNL     1      -6.491   2.090  -1.166  0.00  0.00    +0.219 C 
ATOM     26  O   UNL     1      -7.248   2.865  -0.622  0.00  0.00    -0.275 OA
ATOM     27  N   UNL     1      -6.978   0.999  -1.790  0.00  0.00    -0.300 N 
ATOM     28  C   UNL     1      -6.053   0.010  -2.346  0.00  0.00    +0.118 C 
ATOM     29  C   UNL     1      -6.202  -1.312  -1.575  0.00  0.00    +0.088 C 
ATOM     30  S   UNL     1      -7.935  -1.853  -1.682  0.00  0.00    -0.158 S 
ATOM     31  C   UNL     1      -8.858  -0.403  -1.091  0.00  0.00    +0.088 C 
ATOM     32  C   UNL     1      -8.426   0.820  -1.908  0.00  0.00    +0.118 C 
ENDBRANCH  23  25
ENDBRANCH  15  23
BRANCH  14  33
ATOM     33  O   UNL     1      -2.364   1.241  -1.308  0.00  0.00    -0.391 OA
ATOM     34  H   UNL     1      -2.654   1.767  -2.066  0.00  0.00    +0.210 HD
ENDBRANCH  14  33
TORSDOF 4
