REMARK  Name = ZINC38636329
REMARK  11 active torsions:
REMARK  status: ('A' for Active; 'I' for Inactive)
REMARK    1  A    between atoms: C_4  and  N_7
REMARK    2  A    between atoms: N_7  and  C_8
REMARK    3  A    between atoms: C_11  and  N_14
REMARK    4  A    between atoms: N_14  and  N_15
REMARK    5  A    between atoms: C_24  and  C_27
REMARK    6  A    between atoms: N_29  and  C_30
REMARK    7  A    between atoms: N_29  and  C_33
REMARK    8  A    between atoms: C_30  and  C_31
REMARK    9  A    between atoms: C_31  and  O_32
REMARK   10  A    between atoms: C_33  and  C_34
REMARK   11  A    between atoms: C_34  and  O_35
REMARK                            x       y       z     vdW  Elec       q    Type
REMARK                         _______ _______ _______ _____ _____    ______ ____
ROOT
ATOM      1  N   UNL     1       3.659  -5.809   1.844  0.00  0.00    -0.178 NA
ATOM      2  C   UNL     1       3.488  -6.767   2.738  0.00  0.00    +0.137 C 
ATOM      3  C   UNL     1       3.325  -6.481   4.179  0.00  0.00    +0.013 A 
ATOM      4  C   UNL     1       3.801  -5.297   4.736  0.00  0.00    +0.011 A 
ATOM      5  C   UNL     1       3.616  -5.056   6.081  0.00  0.00    +0.001 A 
ATOM      6  C   UNL     1       2.956  -5.983   6.878  0.00  0.00    +0.001 A 
ATOM      7  C   UNL     1       2.485  -7.152   6.356  0.00  0.00    +0.008 A 
ATOM      8  C   UNL     1       2.670  -7.435   4.992  0.00  0.00    -0.015 A 
ATOM      9  C   UNL     1       2.222  -8.658   4.451  0.00  0.00    +0.025 C 
ATOM     10  C   UNL     1       2.560  -9.057   3.174  0.00  0.00    +0.086 C 
ATOM     11  C   UNL     1       3.442  -8.201   2.364  0.00  0.00    +0.218 C 
ATOM     12  O   UNL     1       4.100  -8.648   1.439  0.00  0.00    -0.285 OA
ENDROOT
BRANCH  10  13
ATOM     13  C   UNL     1       2.042 -10.322   2.626  0.00  0.00    +0.251 C 
ATOM     14  O   UNL     1       2.043 -11.327   3.311  0.00  0.00    -0.270 OA
ATOM     15  N   UNL     1       1.566 -10.366   1.366  0.00  0.00    -0.293 N 
BRANCH  15  16
ATOM     16  C   UNL     1       1.124 -11.640   0.794  0.00  0.00    +0.136 C 
BRANCH  16  17
ATOM     17  C   UNL     1      -0.363 -11.843   1.090  0.00  0.00    +0.174 C 
BRANCH  17  18
ATOM     18  O   UNL     1      -1.125 -10.841   0.414  0.00  0.00    -0.393 OA
ATOM     19  H   UNL     1      -2.079 -10.909   0.557  0.00  0.00    +0.209 HD
ENDBRANCH  17  18
ENDBRANCH  16  17
ENDBRANCH  15  16
BRANCH  15  20
ATOM     20  C   UNL     1       1.490  -9.139   0.568  0.00  0.00    +0.136 C 
BRANCH  20  21
ATOM     21  C   UNL     1       1.396  -9.501  -0.915  0.00  0.00    +0.174 C 
BRANCH  21  22
ATOM     22  O   UNL     1       0.126 -10.100  -1.180  0.00  0.00    -0.393 OA
ATOM     23  H   UNL     1      -0.003 -10.356  -2.103  0.00  0.00    +0.209 HD
ENDBRANCH  21  22
ENDBRANCH  20  21
ENDBRANCH  15  20
ENDBRANCH  10  13
BRANCH   1  24
ATOM     24  N   UNL     1       3.791  -6.109   0.596  0.00  0.00    -0.237 N 
ATOM     25  H   UNL     1       3.766  -7.036   0.314  0.00  0.00    +0.174 HD
BRANCH  24  29
ATOM     26  C   UNL     1       4.327  -3.091  -2.223  0.00  0.00    +0.031 A 
ATOM     27  C   UNL     1       4.291  -4.420  -2.627  0.00  0.00    +0.025 A 
ATOM     28  C   UNL     1       4.114  -5.420  -1.693  0.00  0.00    +0.026 A 
ATOM     29  C   UNL     1       3.971  -5.098  -0.348  0.00  0.00    +0.048 A 
ATOM     30  C   UNL     1       4.006  -3.768   0.056  0.00  0.00    +0.026 A 
ATOM     31  C   UNL     1       4.189  -2.769  -0.878  0.00  0.00    +0.025 A 
BRANCH  26  32
ATOM     32  N   UNL     1       4.506  -2.078  -3.169  0.00  0.00    -0.314 N 
ATOM     33  H   UNL     1       5.006  -1.280  -2.936  0.00  0.00    +0.152 HD
BRANCH  32  37
ATOM     34  C   UNL     1       2.892  -2.484  -6.986  0.00  0.00    +0.000 A 
ATOM     35  C   UNL     1       2.327  -3.164  -5.922  0.00  0.00    +0.002 A 
ATOM     36  C   UNL     1       2.860  -3.032  -4.655  0.00  0.00    +0.023 A 
ATOM     37  C   UNL     1       3.965  -2.215  -4.449  0.00  0.00    +0.031 A 
ATOM     38  C   UNL     1       4.529  -1.533  -5.520  0.00  0.00    +0.023 A 
ATOM     39  C   UNL     1       3.992  -1.670  -6.785  0.00  0.00    +0.002 A 
ENDBRANCH  32  37
ENDBRANCH  26  32
ENDBRANCH  24  29
ENDBRANCH   1  24
TORSDOF 11
