REMARK  Name = ZINC35239848
REMARK  8 active torsions:
REMARK  status: ('A' for Active; 'I' for Inactive)
REMARK    1  A    between atoms: C_1  and  C_2
REMARK    2  A    between atoms: C_2  and  C_3
REMARK    3  A    between atoms: C_2  and  C_4
REMARK    4  A    between atoms: C_7  and  C_10
REMARK    5  A    between atoms: C_12  and  C_24
REMARK    6  A    between atoms: C_14  and  C_19
REMARK    7  A    between atoms: C_14  and  O_23
REMARK    8  A    between atoms: C_24  and  C_26
REMARK                            x       y       z     vdW  Elec       q    Type
REMARK                         _______ _______ _______ _____ _____    ______ ____
ROOT
ATOM      1  C   UNL     1       2.472  -1.922   4.548  0.00  0.00    +0.120 C 
ATOM      2  C   UNL     1       2.497  -0.827   5.620  0.00  0.00    +0.144 C 
ATOM      3  C   UNL     1       1.125  -0.779   6.300  0.00  0.00    +0.243 C 
ATOM      4  N   UNL     1       0.801  -2.108   6.822  0.00  0.00    -0.264 N 
ATOM      5  C   UNL     1       1.274  -3.220   6.240  0.00  0.00    +0.302 C 
ATOM      6  O   UNL     1       0.965  -4.300   6.707  0.00  0.00    -0.253 OA
ATOM      7  N   UNL     1       2.075  -3.189   5.163  0.00  0.00    -0.292 N 
ATOM      8  H   UNL     1       0.232  -2.186   7.604  0.00  0.00    +0.153 HD
ATOM      9  H   UNL     1       2.398  -4.022   4.785  0.00  0.00    +0.151 HD
ENDROOT
BRANCH   1  13
ATOM     10  C   UNL     1      -0.335  -0.876   1.502  0.00  0.00    -0.045 A 
ATOM     11  C   UNL     1       0.938  -0.338   1.483  0.00  0.00    +0.004 A 
ATOM     12  C   UNL     1       1.847  -0.676   2.468  0.00  0.00    +0.006 A 
ATOM     13  C   UNL     1       1.481  -1.552   3.473  0.00  0.00    -0.026 A 
ATOM     14  C   UNL     1       0.208  -2.089   3.493  0.00  0.00    +0.006 A 
ATOM     15  C   UNL     1      -0.702  -1.748   2.510  0.00  0.00    +0.004 A 
BRANCH  10  17
ATOM     16  C   UNL     1      -1.557   1.006   0.445  0.00  0.00    +0.012 C 
ATOM     17  C   UNL     1      -1.325  -0.507   0.427  0.00  0.00    +0.013 C 
ATOM     18  C   UNL     1      -0.774  -0.922  -0.938  0.00  0.00    +0.012 C 
ENDBRANCH  10  17
ENDBRANCH   1  13
BRANCH   3  19
ATOM     19  C   UNL     1       1.161   0.227   7.452  0.00  0.00    +0.436 C 
ATOM     20  F   UNL     1       1.639   1.456   6.983  0.00  0.00    -0.166 F 
ATOM     21  F   UNL     1      -0.130   0.394   7.966  0.00  0.00    -0.166 F 
ATOM     22  F   UNL     1       2.006  -0.248   8.460  0.00  0.00    -0.166 F 
ENDBRANCH   3  19
BRANCH   3  23
ATOM     23  O   UNL     1       0.134  -0.384   5.350  0.00  0.00    -0.364 OA
ATOM     24  H   UNL     1      -0.761  -0.333   5.713  0.00  0.00    +0.212 HD
ENDBRANCH   3  23
BRANCH   2  25
ATOM     25  C   UNL     1       3.561  -1.142   6.639  0.00  0.00    +0.173 C 
ATOM     26  O   UNL     1       3.393  -2.043   7.433  0.00  0.00    -0.292 OA
BRANCH  25  27
ATOM     27  C   UNL     1       4.804  -0.356   6.671  0.00  0.00    +0.018 A 
ATOM     28  C   UNL     1       5.047   0.616   5.694  0.00  0.00    +0.013 A 
ATOM     29  C   UNL     1       6.213   1.349   5.731  0.00  0.00    +0.020 A 
ATOM     30  C   UNL     1       7.145   1.125   6.732  0.00  0.00    +0.041 A 
ATOM     31  C   UNL     1       6.912   0.164   7.702  0.00  0.00    +0.020 A 
ATOM     32  C   UNL     1       5.747  -0.572   7.682  0.00  0.00    +0.013 A 
ATOM     33 CL   UNL     1       8.612   2.053   6.769  0.00  0.00    -0.084 Cl
ENDBRANCH  25  27
ENDBRANCH   2  25
TORSDOF 6
