REMARK  Name = ZINC19636084
REMARK  10 active torsions:
REMARK  status: ('A' for Active; 'I' for Inactive)
REMARK    1  A    between atoms: C_1  and  C_2
REMARK    2  A    between atoms: C_2  and  O_3
REMARK    3  A    between atoms: O_3  and  C_4
REMARK    4  A    between atoms: C_6  and  C_14
REMARK    5  A    between atoms: C_9  and  O_10
REMARK    6  A    between atoms: O_10  and  C_11
REMARK    7  A    between atoms: C_11  and  C_13
REMARK    8  A    between atoms: C_16  and  C_34
REMARK    9  A    between atoms: C_17  and  C_33
REMARK   10  A    between atoms: C_24  and  C_27
REMARK                            x       y       z     vdW  Elec       q    Type
REMARK                         _______ _______ _______ _____ _____    ______ ____
ROOT
ATOM      1  C   UNL     1       1.191  -2.186  -0.027  0.00  0.00    +0.096 C 
ATOM      2  C   UNL     1       1.903  -2.666  -1.258  0.00  0.00    +0.058 C 
ATOM      3  C   UNL     1       3.161  -3.127  -1.201  0.00  0.00    +0.019 C 
ATOM      4  N   UNL     1       3.830  -3.173  -0.005  0.00  0.00    -0.320 N 
ATOM      5  C   UNL     1       3.143  -3.142   1.178  0.00  0.00    +0.016 C 
ATOM      6  C   UNL     1       1.873  -2.685   1.221  0.00  0.00    +0.024 C 
ATOM      7  C   UNL     1       1.152  -2.662   2.427  0.00  0.00    +0.162 C 
ATOM      8  O   UNL     1       0.014  -2.235   2.434  0.00  0.00    -0.292 OA
ATOM      9  C   UNL     1       1.762  -3.157   3.710  0.00  0.00    +0.088 C 
ATOM     10  C   UNL     1       2.805  -4.231   3.384  0.00  0.00    +0.032 C 
ATOM     11  C   UNL     1       3.837  -3.631   2.425  0.00  0.00    +0.059 C 
ATOM     12  C   UNL     1       3.844  -3.596  -2.459  0.00  0.00    +0.061 C 
ATOM     13  H   UNL     1       4.928  -3.236   0.009  0.00  0.00    +0.152 HD
ENDROOT
BRANCH   1  16
ATOM     14  C   UNL     1      -0.030   1.389  -0.020  0.00  0.00    +0.163 A 
ATOM     15  C   UNL     1      -0.020   0.004  -0.029  0.00  0.00    +0.054 A 
ATOM     16  C   UNL     1       1.182  -0.679  -0.018  0.00  0.00    -0.031 A 
ATOM     17  C   UNL     1       2.376   0.018   0.003  0.00  0.00    +0.008 A 
ATOM     18  C   UNL     1       2.373   1.400   0.013  0.00  0.00    +0.050 A 
ATOM     19  C   UNL     1       1.172   2.091   0.001  0.00  0.00    +0.173 A 
BRANCH  14  20
ATOM     20  O   UNL     1      -1.211   2.062  -0.037  0.00  0.00    -0.489 OA
BRANCH  20  22
ATOM     21  C   UNL     1      -3.623   2.202  -0.080  0.00  0.00    +0.048 C 
ATOM     22  C   UNL     1      -2.405   1.277  -0.064  0.00  0.00    +0.226 C 
ENDBRANCH  20  22
ENDBRANCH  14  20
BRANCH  19  23
ATOM     23  O   UNL     1       1.168   3.451   0.009  0.00  0.00    -0.422 OA
BRANCH  23  24
ATOM     24  C   UNL     1       0.965   4.052   1.192  0.00  0.00    +0.309 C 
ATOM     25  O   UNL     1       0.894   3.392   2.201  0.00  0.00    -0.251 OA
ATOM     26  C   UNL     1       0.825   5.551   1.261  0.00  0.00    +0.136 C 
ENDBRANCH  23  24
ENDBRANCH  19  23
ENDBRANCH   1  16
BRANCH  10  27
ATOM     27  C   UNL     1       3.490  -4.673   4.652  0.00  0.00    -0.044 A 
ATOM     28  C   UNL     1       4.191  -3.757   5.415  0.00  0.00    +0.004 A 
ATOM     29  C   UNL     1       4.815  -4.161   6.580  0.00  0.00    +0.000 A 
ATOM     30  C   UNL     1       4.747  -5.483   6.977  0.00  0.00    +0.000 A 
ATOM     31  C   UNL     1       4.050  -6.400   6.213  0.00  0.00    +0.000 A 
ATOM     32  C   UNL     1       3.422  -5.995   5.050  0.00  0.00    +0.004 A 
ENDBRANCH  10  27
BRANCH   2  33
ATOM     33  C   UNL     1       1.225  -2.632  -2.519  0.00  0.00    +0.097 C 
ATOM     34  N   UNL     1       0.688  -2.605  -3.519  0.00  0.00    -0.191 NA
ENDBRANCH   2  33
TORSDOF 7
