REMARK  Name = ZINC22295330
REMARK  12 active torsions:
REMARK  status: ('A' for Active; 'I' for Inactive)
REMARK    1  A    between atoms: C_1  and  C_2
REMARK    2  A    between atoms: C_2  and  C_3
REMARK    3  A    between atoms: C_3  and  C_4
REMARK    4  A    between atoms: C_4  and  O_5
REMARK    5  A    between atoms: O_5  and  C_6
REMARK    6  A    between atoms: C_9  and  C_12
REMARK    7  A    between atoms: N_14  and  C_15
REMARK    8  A    between atoms: C_15  and  C_16
REMARK    9  A    between atoms: C_21  and  C_24
REMARK   10  A    between atoms: C_24  and  N_25
REMARK   11  A    between atoms: C_27  and  C_34
REMARK   12  A    between atoms: C_30  and  C_33
REMARK                            x       y       z     vdW  Elec       q    Type
REMARK                         _______ _______ _______ _____ _____    ______ ____
ROOT
ATOM      1  C   UNL     1      -0.742   1.585  -1.213  0.00  0.00    +0.236 C 
ATOM      2  O   UNL     1      -1.736   2.268  -1.088  0.00  0.00    -0.274 OA
ATOM      3  N   UNL     1      -0.288   1.272  -2.443  0.00  0.00    -0.263 N 
ATOM      4  C   UNL     1      -0.961   1.733  -3.569  0.00  0.00    +0.165 A 
ATOM      5  N   UNL     1      -0.677   1.536  -4.842  0.00  0.00    -0.231 NA
ATOM      6  C   UNL     1      -1.427   2.050  -5.797  0.00  0.00    +0.034 A 
ATOM      7  C   UNL     1      -2.505   2.791  -5.443  0.00  0.00    +0.070 A 
ATOM      8  S   UNL     1      -2.394   2.708  -3.661  0.00  0.00    -0.060 S 
ATOM      9  H   UNL     1       0.614   0.653  -2.556  0.00  0.00    +0.157 HD
ENDROOT
BRANCH   1  10
ATOM     10  C   UNL     1      -0.013   1.086   0.008  0.00  0.00    +0.200 C 
BRANCH  10  13
ATOM     11  C   UNL     1      -0.222   1.232   2.431  0.00  0.00    +0.244 C 
ATOM     12  O   UNL     1       0.777   0.546   2.530  0.00  0.00    -0.270 OA
ATOM     13  N   UNL     1      -0.698   1.558   1.213  0.00  0.00    -0.303 N 
ATOM     14  H   UNL     1      -1.602   2.179   1.124  0.00  0.00    +0.150 HD
BRANCH  11  18
ATOM     15  C   UNL     1      -2.209   2.602   5.925  0.00  0.00    +0.121 A 
ATOM     16  C   UNL     1      -1.068   1.818   6.040  0.00  0.00    +0.046 A 
ATOM     17  C   UNL     1      -0.420   1.372   4.909  0.00  0.00    +0.016 A 
ATOM     18  C   UNL     1      -0.913   1.708   3.646  0.00  0.00    +0.037 A 
ATOM     19  C   UNL     1      -2.058   2.502   3.535  0.00  0.00    +0.016 A 
ATOM     20  C   UNL     1      -2.703   2.939   4.670  0.00  0.00    +0.046 A 
BRANCH  15  21
ATOM     21  O   UNL     1      -2.844   3.040   7.042  0.00  0.00    -0.492 OA
BRANCH  21  22
ATOM     22  C   UNL     1      -4.012   3.842   6.852  0.00  0.00    +0.229 C 
BRANCH  22  23
ATOM     23  C   UNL     1      -4.585   4.239   8.214  0.00  0.00    +0.041 C 
BRANCH  23  25
ATOM     24  C   UNL     1      -6.409   5.494   9.372  0.00  0.00    +0.004 C 
ATOM     25  C   UNL     1      -5.835   5.097   8.010  0.00  0.00    -0.000 C 
ENDBRANCH  23  25
ENDBRANCH  22  23
ENDBRANCH  21  22
ENDBRANCH  15  21
ENDBRANCH  11  18
ENDBRANCH  10  13
ENDBRANCH   1  10
BRANCH   6  26
ATOM     26  C   UNL     1      -1.093   1.820  -7.248  0.00  0.00    -0.022 C 
BRANCH  26  27
ATOM     27  N   UNL     1      -0.107   2.816  -7.688  0.00  0.00    +0.384 N 
ATOM     28  C   UNL     1      -0.680   4.168  -7.666  0.00  0.00    -0.075 C 
ATOM     29  C   UNL     1       0.412   5.191  -7.988  0.00  0.00    -0.031 C 
ATOM     30  C   UNL     1       0.998   4.887  -9.370  0.00  0.00    +0.003 C 
ATOM     31  C   UNL     1       1.544   3.457  -9.380  0.00  0.00    -0.031 C 
ATOM     32  C   UNL     1       0.420   2.484  -9.018  0.00  0.00    -0.075 C 
ATOM     33  C   UNL     1       2.078   3.124 -10.775  0.00  0.00    +0.005 C 
ATOM     34  C   UNL     1       1.518   5.107  -6.934  0.00  0.00    +0.005 C 
ATOM     35  H   UNL     1       0.734   2.797  -6.980  0.00  0.00    -0.081 HD
ENDBRANCH  26  27
ENDBRANCH   6  26
TORSDOF 9
