REMARK  Name = ZINC04047860
REMARK  9 active torsions:
REMARK  status: ('A' for Active; 'I' for Inactive)
REMARK    1  A    between atoms: C_1  and  C_2
REMARK    2  A    between atoms: C_2  and  N_3
REMARK    3  A    between atoms: N_3  and  C_4
REMARK    4  A    between atoms: N_3  and  C_6
REMARK    5  A    between atoms: C_4  and  C_5
REMARK    6  A    between atoms: C_9  and  C_12
REMARK    7  A    between atoms: C_17  and  C_22
REMARK    8  A    between atoms: C_25  and  O_28
REMARK    9  A    between atoms: O_28  and  C_29
REMARK                            x       y       z     vdW  Elec       q    Type
REMARK                         _______ _______ _______ _____ _____    ______ ____
ROOT
ATOM      1  C   UNL     1       0.756   6.520   3.542  0.00  0.00    +0.136 C 
ATOM      2  C   UNL     1       1.849   6.272   4.553  0.00  0.00    +0.036 C 
ATOM      3  C   UNL     1       3.137   6.638   4.428  0.00  0.00    +0.017 C 
ATOM      4  C   UNL     1       4.135   6.336   5.533  0.00  0.00    +0.059 C 
ATOM      5  C   UNL     1       3.753   5.038   6.242  0.00  0.00    +0.032 C 
ATOM      6  C   UNL     1       2.347   5.221   6.826  0.00  0.00    +0.088 C 
ATOM      7  C   UNL     1       1.413   5.587   5.712  0.00  0.00    +0.163 C 
ATOM      8  O   UNL     1       0.239   5.284   5.807  0.00  0.00    -0.292 OA
ATOM      9  N   UNL     1       3.651   7.299   3.360  0.00  0.00    -0.316 N 
ATOM     10  C   UNL     1       3.413   6.972   2.030  0.00  0.00    +0.052 A 
ATOM     11  C   UNL     1       4.427   6.586   1.171  0.00  0.00    +0.025 A 
ATOM     12  C   UNL     1       4.141   6.388  -0.169  0.00  0.00    +0.002 A 
ATOM     13  C   UNL     1       2.855   6.572  -0.643  0.00  0.00    +0.002 A 
ATOM     14  C   UNL     1       1.836   6.936   0.220  0.00  0.00    +0.025 A 
ATOM     15  C   UNL     1       2.115   7.117   1.565  0.00  0.00    +0.049 A 
ATOM     16  N   UNL     1       1.114   7.437   2.481  0.00  0.00    -0.331 N 
ATOM     17  H   UNL     1       4.228   8.057   3.539  0.00  0.00    +0.152 HD
ATOM     18  H   UNL     1       0.650   8.286   2.405  0.00  0.00    +0.147 HD
ENDROOT
BRANCH   1  22
ATOM     19  C   UNL     1      -0.340   2.781   1.786  0.00  0.00    +0.030 A 
ATOM     20  C   UNL     1       0.935   3.296   1.589  0.00  0.00    +0.023 A 
ATOM     21  C   UNL     1       1.284   4.507   2.153  0.00  0.00    +0.007 A 
ATOM     22  C   UNL     1       0.369   5.202   2.923  0.00  0.00    -0.023 A 
ATOM     23  C   UNL     1      -0.899   4.689   3.127  0.00  0.00    +0.007 A 
ATOM     24  C   UNL     1      -1.256   3.481   2.561  0.00  0.00    +0.023 A 
BRANCH  19  25
ATOM     25  N   UNL     1      -0.698   1.558   1.213  0.00  0.00    -0.330 N 
BRANCH  25  27
ATOM     26  C   UNL     1       0.138   1.253  -1.065  0.00  0.00    +0.024 C 
ATOM     27  C   UNL     1       0.269   0.821   0.397  0.00  0.00    +0.102 C 
ENDBRANCH  25  27
BRANCH  25  28
ATOM     28  C   UNL     1      -2.041   1.014   1.428  0.00  0.00    +0.102 C 
ATOM     29  C   UNL     1      -2.041   0.135   2.680  0.00  0.00    +0.024 C 
ENDBRANCH  25  28
ENDBRANCH  19  25
ENDBRANCH   1  22
BRANCH   5  30
ATOM     30  C   UNL     1       4.733   4.755   7.352  0.00  0.00    -0.043 A 
ATOM     31  C   UNL     1       4.892   5.665   8.381  0.00  0.00    +0.007 A 
ATOM     32  C   UNL     1       5.786   5.405   9.402  0.00  0.00    +0.046 A 
ATOM     33  C   UNL     1       6.532   4.235   9.388  0.00  0.00    +0.120 A 
ATOM     34  C   UNL     1       6.375   3.327   8.351  0.00  0.00    +0.046 A 
ATOM     35  C   UNL     1       5.476   3.589   7.335  0.00  0.00    +0.007 A 
BRANCH  33  36
ATOM     36  O   UNL     1       7.416   3.980  10.388  0.00  0.00    -0.495 OA
ATOM     37  C   UNL     1       7.525   4.959  11.423  0.00  0.00    +0.277 C 
ENDBRANCH  33  36
ENDBRANCH   5  30
TORSDOF 6
