REMARK  Name = ZINC63987697
REMARK  4 active torsions:
REMARK  status: ('A' for Active; 'I' for Inactive)
REMARK    1  A    between atoms: C_7  and  C_10
REMARK    2  A    between atoms: N_16  and  C_19
REMARK    3  A    between atoms: C_19  and  C_20
REMARK    4  A    between atoms: C_24  and  C_26
REMARK                            x       y       z     vdW  Elec       q    Type
REMARK                         _______ _______ _______ _____ _____    ______ ____
ROOT
ATOM      1  C   UNL     1       1.080  -3.146   0.076  0.00  0.00    +0.245 C 
ATOM      2  O   UNL     1       1.835  -2.192   0.089  0.00  0.00    -0.270 OA
ATOM      3  N   UNL     1       1.567  -4.392   0.237  0.00  0.00    -0.300 N 
ATOM      4  C   UNL     1       2.997  -4.561   0.567  0.00  0.00    +0.106 C 
ATOM      5  C   UNL     1       3.195  -5.654   1.632  0.00  0.00    +0.000 C 
ATOM      6  C   UNL     1       2.099  -5.550   2.670  0.00  0.00    -0.077 C 
ATOM      7  N   UNL     1       1.001  -6.442   2.304  0.00  0.00    +0.384 N 
ATOM      8  C   UNL     1       0.033  -5.873   1.446  0.00  0.00    -0.059 C 
ATOM      9  C   UNL     1       0.668  -5.518   0.087  0.00  0.00    +0.089 C 
ATOM     10  H   UNL     1       1.390  -7.255   1.851  0.00  0.00    -0.082 HD
ENDROOT
BRANCH   1  17
ATOM     11  C   UNL     1      -1.502   0.615  -0.074  0.00  0.00    +0.001 A 
ATOM     12  C   UNL     1      -2.874   0.391  -0.279  0.00  0.00    +0.002 A 
ATOM     13  C   UNL     1      -3.382  -0.852  -0.420  0.00  0.00    +0.026 A 
ATOM     14  C   UNL     1      -2.474  -2.008  -0.358  0.00  0.00    +0.043 A 
ATOM     15  N   UNL     1      -2.688  -3.290  -0.459  0.00  0.00    -0.380 N 
ATOM     16  C   UNL     1      -1.415  -4.004  -0.321  0.00  0.00    +0.154 C 
ATOM     17  C   UNL     1      -0.359  -2.940  -0.114  0.00  0.00    +0.042 C 
ATOM     18  C   UNL     1      -1.032  -1.738  -0.141  0.00  0.00    +0.008 A 
ATOM     19  C   UNL     1      -0.606  -0.392  -0.005  0.00  0.00    +0.010 A 
ATOM     20  H   UNL     1      -3.553  -3.705  -0.603  0.00  0.00    +0.160 HD
ENDBRANCH   1  17
BRANCH   7  21
ATOM     21  C   UNL     1       0.330  -6.880   3.535  0.00  0.00    -0.011 C 
BRANCH  21  22
ATOM     22  C   UNL     1      -0.173  -5.657   4.304  0.00  0.00    +0.260 C 
ATOM     23  N   UNL     1      -1.138  -4.896   3.490  0.00  0.00    -0.230 N 
ATOM     24  N   UNL     1      -0.560  -3.629   3.320  0.00  0.00    -0.150 NA
ATOM     25  C   UNL     1       0.575  -3.570   3.913  0.00  0.00    +0.210 C 
ATOM     26  O   UNL     1       0.899  -4.731   4.534  0.00  0.00    -0.457 OA
ATOM     27  H   UNL     1      -1.990  -5.205   3.146  0.00  0.00    +0.172 HD
BRANCH  25  28
ATOM     28  C   UNL     1       1.452  -2.345   3.921  0.00  0.00    +0.076 C 
ATOM     29  C   UNL     1       0.776  -0.994   4.162  0.00  0.00    +0.013 C 
ATOM     30  C   UNL     1       1.291  -1.354   2.767  0.00  0.00    +0.013 C 
ENDBRANCH  25  28
ENDBRANCH  21  22
ENDBRANCH   7  21
TORSDOF 4
