REMARK  Name = ZINC38649845
REMARK  10 active torsions:
REMARK  status: ('A' for Active; 'I' for Inactive)
REMARK    1  A    between atoms: C_1  and  C_2
REMARK    2  A    between atoms: C_2  and  C_3
REMARK    3  A    between atoms: C_2  and  C_4
REMARK    4  A    between atoms: C_2  and  C_5
REMARK    5  A    between atoms: C_8  and  C_11
REMARK    6  A    between atoms: C_16  and  O_25
REMARK    7  A    between atoms: C_20  and  N_24
REMARK    8  A    between atoms: C_21  and  C_22
REMARK    9  A    between atoms: O_25  and  C_26
REMARK   10  A    between atoms: C_26  and  C_28
REMARK                            x       y       z     vdW  Elec       q    Type
REMARK                         _______ _______ _______ _____ _____    ______ ____
ROOT
ATOM      1  C   UNL     1       2.669  -1.903  -4.712  0.00  0.00    +0.098 C 
ATOM      2  C   UNL     1       3.869  -2.727  -4.325  0.00  0.00    +0.008 A 
ATOM      3  C   UNL     1       3.683  -3.990  -3.791  0.00  0.00    +0.012 A 
ATOM      4  C   UNL     1       4.772  -4.760  -3.431  0.00  0.00    +0.047 A 
ATOM      5  C   UNL     1       6.058  -4.267  -3.606  0.00  0.00    +0.135 A 
ATOM      6  C   UNL     1       6.247  -3.003  -4.140  0.00  0.00    +0.093 A 
ATOM      7  C   UNL     1       5.151  -2.231  -4.502  0.00  0.00    +0.138 A 
ATOM      8  O   UNL     1       5.352  -0.995  -5.024  0.00  0.00    -0.441 OA
ATOM      9  C   UNL     1       4.375  -0.396  -5.725  0.00  0.00    +0.199 C 
ATOM     10  C   UNL     1       3.084  -0.780  -5.620  0.00  0.00    +0.098 C 
ENDROOT
BRANCH   1  14
ATOM     11  C   UNL     1       0.873  -0.285  -1.190  0.00  0.00    -0.042 A 
ATOM     12  C   UNL     1       0.146  -1.123  -2.013  0.00  0.00    +0.004 A 
ATOM     13  C   UNL     1       0.727  -1.647  -3.153  0.00  0.00    +0.005 A 
ATOM     14  C   UNL     1       2.035  -1.331  -3.469  0.00  0.00    -0.035 A 
ATOM     15  C   UNL     1       2.762  -0.492  -2.646  0.00  0.00    +0.005 A 
ATOM     16  C   UNL     1       2.180   0.035  -1.509  0.00  0.00    +0.004 A 
BRANCH  11  18
ATOM     17  C   UNL     1       0.236   1.814  -0.032  0.00  0.00    +0.015 C 
ATOM     18  C   UNL     1       0.240   0.286   0.053  0.00  0.00    -0.013 C 
ATOM     19  C   UNL     1       1.039  -0.154   1.281  0.00  0.00    +0.015 C 
ATOM     20  C   UNL     1      -1.199  -0.221   0.171  0.00  0.00    +0.015 C 
ENDBRANCH  11  18
ENDBRANCH   1  14
BRANCH   9  21
ATOM     21  N   UNL     1       4.698   0.635  -6.570  0.00  0.00    -0.328 N 
ATOM     22  H   UNL     1       5.621   0.922  -6.655  0.00  0.00    +0.145 HD
ATOM     23  H   UNL     1       4.004   1.078  -7.083  0.00  0.00    +0.145 HD
ENDBRANCH   9  21
BRANCH  10  24
ATOM     24  C   UNL     1       2.090  -0.100  -6.395  0.00  0.00    +0.101 C 
ATOM     25  N   UNL     1       1.302   0.439  -7.010  0.00  0.00    -0.191 NA
ENDBRANCH  10  24
BRANCH   5  26
ATOM     26  O   UNL     1       7.130  -5.024  -3.252  0.00  0.00    -0.422 OA
BRANCH  26  27
ATOM     27  C   UNL     1       7.399  -6.121  -3.986  0.00  0.00    +0.347 C 
ATOM     28  O   UNL     1       6.758  -6.352  -4.992  0.00  0.00    -0.244 OA
BRANCH  27  29
ATOM     29  C   UNL     1       8.473  -7.043  -3.568  0.00  0.00    +0.094 A 
ATOM     30  C   UNL     1       9.209  -6.784  -2.408  0.00  0.00    +0.018 A 
ATOM     31  C   UNL     1      10.210  -7.650  -2.023  0.00  0.00    +0.001 A 
ATOM     32  C   UNL     1      10.489  -8.774  -2.782  0.00  0.00    +0.003 A 
ATOM     33  C   UNL     1       9.768  -9.039  -3.930  0.00  0.00    +0.039 A 
ATOM     34  C   UNL     1       8.756  -8.184  -4.327  0.00  0.00    +0.137 A 
ATOM     35  F   UNL     1       8.047  -8.445  -5.447  0.00  0.00    -0.205 F 
ENDBRANCH  27  29
ENDBRANCH  26  27
ENDBRANCH   5  26
TORSDOF 7
