REMARK  Name = ZINC32529098
REMARK  8 active torsions:
REMARK  status: ('A' for Active; 'I' for Inactive)
REMARK    1  A    between atoms: C_1  and  C_2
REMARK    2  A    between atoms: C_9  and  S_13
REMARK    3  A    between atoms: C_11  and  C_12
REMARK    4  A    between atoms: S_13  and  C_14
REMARK    5  A    between atoms: C_14  and  C_16
REMARK    6  A    between atoms: C_14  and  C_17
REMARK    7  A    between atoms: N_19  and  C_20
REMARK    8  A    between atoms: C_21  and  C_29
REMARK                            x       y       z     vdW  Elec       q    Type
REMARK                         _______ _______ _______ _____ _____    ______ ____
ROOT
ATOM      1  C   UNL     1      -2.652   8.627  -3.321  0.00  0.00    +0.136 C 
ATOM      2  C   UNL     1      -1.382   9.429  -3.612  0.00  0.00    +0.029 C 
ENDROOT
BRANCH   1   3
ATOM      3  C   UNL     1      -2.278   7.223  -2.922  0.00  0.00    +0.231 C 
ATOM      4  O   UNL     1      -2.260   6.341  -3.755  0.00  0.00    -0.274 OA
ATOM      5  N   UNL     1      -1.965   6.946  -1.641  0.00  0.00    -0.278 N 
ATOM      6  H   UNL     1      -1.982   7.746  -0.886  0.00  0.00    +0.155 HD
BRANCH   5   7
ATOM      7  C   UNL     1      -1.621   5.653  -1.274  0.00  0.00    +0.090 A 
ATOM      8  C   UNL     1      -1.271   5.177  -0.019  0.00  0.00    +0.084 A 
ATOM      9  C   UNL     1      -0.951   3.765   0.100  0.00  0.00    -0.018 A 
ATOM     10  C   UNL     1      -1.032   3.059  -1.049  0.00  0.00    -0.004 A 
ATOM     11  S   UNL     1      -1.524   4.240  -2.273  0.00  0.00    -0.077 S 
ATOM     12  C   UNL     1      -0.761   1.597  -1.232  0.00  0.00    +0.043 C 
ATOM     13  C   UNL     1      -0.013   1.086   0.008  0.00  0.00    +0.005 C 
ATOM     14  C   UNL     1      -0.735   1.583   1.264  0.00  0.00    +0.005 C 
ATOM     15  C   UNL     1      -0.551   3.094   1.407  0.00  0.00    +0.037 C 
BRANCH   8  16
ATOM     16  C   UNL     1      -1.226   6.047   1.118  0.00  0.00    +0.102 C 
ATOM     17  N   UNL     1      -1.190   6.736   2.020  0.00  0.00    -0.191 NA
ENDBRANCH   8  16
ENDBRANCH   5   7
ENDBRANCH   1   3
BRANCH   1  18
ATOM     18  S   UNL     1      -3.688   8.578  -4.804  0.00  0.00    -0.093 S 
BRANCH  18  27
ATOM     19  C   UNL     1      -2.513  12.855  -2.070  0.00  0.00    +0.046 C 
ATOM     20  C   UNL     1      -3.389  13.349  -3.192  0.00  0.00    -0.024 A 
ATOM     21  C   UNL     1      -3.691  14.674  -3.291  0.00  0.00    +0.005 A 
ATOM     22  C   UNL     1      -4.500  15.150  -4.319  0.00  0.00    +0.001 A 
ATOM     23  C   UNL     1      -5.011  14.303  -5.256  0.00  0.00    +0.010 A 
ATOM     24  C   UNL     1      -4.720  12.933  -5.185  0.00  0.00    +0.004 A 
ATOM     25  C   UNL     1      -3.898  12.445  -4.140  0.00  0.00    +0.075 A 
ATOM     26  N   UNL     1      -3.621  11.139  -4.063  0.00  0.00    -0.240 NA
ATOM     27  C   UNL     1      -4.092  10.287  -4.952  0.00  0.00    +0.099 A 
ATOM     28  C   UNL     1      -4.911  10.708  -6.010  0.00  0.00    +0.038 A 
ATOM     29  C   UNL     1      -5.232  12.026  -6.136  0.00  0.00    -0.039 A 
ATOM     30  C   UNL     1      -6.110  12.502  -7.265  0.00  0.00    +0.044 C 
ENDBRANCH  18  27
ENDBRANCH   1  18
TORSDOF 5
