REMARK  Name = ZINC36313057
REMARK  17 active torsions:
REMARK  status: ('A' for Active; 'I' for Inactive)
REMARK    1  A    between atoms: C_1  and  C_2
REMARK    2  A    between atoms: C_2  and  N_3
REMARK    3  A    between atoms: N_3  and  C_4
REMARK    4  A    between atoms: N_3  and  C_6
REMARK    5  A    between atoms: C_4  and  C_5
REMARK    6  A    between atoms: C_7  and  C_17
REMARK    7  A    between atoms: C_8  and  C_11
REMARK    8  A    between atoms: C_17  and  N_18
REMARK    9  A    between atoms: N_18  and  C_19
REMARK   10  A    between atoms: N_18  and  C_27
REMARK   11  A    between atoms: C_19  and  C_20
REMARK   12  A    between atoms: C_27  and  C_28
REMARK   13  A    between atoms: C_28  and  C_30
REMARK   14  A    between atoms: C_28  and  O_35
REMARK   15  A    between atoms: C_30  and  O_31
REMARK   16  A    between atoms: O_31  and  C_32
REMARK   17  A    between atoms: C_32  and  C_33
REMARK                            x       y       z     vdW  Elec       q    Type
REMARK                         _______ _______ _______ _____ _____    ______ ____
ROOT
ATOM      1  N   UNL     1       1.659  -3.605   3.958  0.00  0.00    +0.387 N 
ATOM      2  H   UNL     1       2.350  -4.339   4.000  0.00  0.00    -0.081 HD
ENDROOT
BRANCH   1   3
ATOM      3  C   UNL     1       2.309  -2.342   3.581  0.00  0.00    -0.035 C 
BRANCH   3   5
ATOM      4  C   UNL     1       4.696  -2.461   4.479  0.00  0.00    +0.222 A 
ATOM      5  C   UNL     1       3.410  -2.032   4.561  0.00  0.00    +0.025 A 
ATOM      6  C   UNL     1       3.288  -1.245   5.725  0.00  0.00    +0.117 A 
ATOM      7  N   UNL     1       4.461  -1.208   6.314  0.00  0.00    -0.076 NA
ATOM      8  O   UNL     1       5.363  -1.978   5.541  0.00  0.00    -0.339 OA
BRANCH   6   9
ATOM      9  C   UNL     1       2.051  -0.576   6.201  0.00  0.00    +0.004 A 
ATOM     10  C   UNL     1       1.230   0.097   5.299  0.00  0.00    +0.010 A 
ATOM     11  C   UNL     1       0.080   0.717   5.746  0.00  0.00    +0.001 A 
ATOM     12  C   UNL     1      -0.257   0.671   7.087  0.00  0.00    +0.000 A 
ATOM     13  C   UNL     1       0.555   0.004   7.986  0.00  0.00    +0.001 A 
ATOM     14  C   UNL     1       1.704  -0.624   7.549  0.00  0.00    +0.010 A 
ENDBRANCH   6   9
BRANCH   4  15
ATOM     15  N   UNL     1       5.224  -3.260   3.482  0.00  0.00    -0.300 N 
BRANCH  15  17
ATOM     16  C   UNL     1       4.972  -2.259   1.264  0.00  0.00    +0.024 C 
ATOM     17  C   UNL     1       5.956  -2.653   2.368  0.00  0.00    +0.104 C 
ENDBRANCH  15  17
BRANCH  15  18
ATOM     18  C   UNL     1       5.051  -4.713   3.539  0.00  0.00    +0.104 C 
ATOM     19  C   UNL     1       6.160  -5.325   4.397  0.00  0.00    +0.024 C 
ENDBRANCH  15  18
ENDBRANCH   4  15
ENDBRANCH   3   5
ENDBRANCH   1   3
BRANCH   1  20
ATOM     20  C   UNL     1       0.641  -3.949   2.957  0.00  0.00    -0.040 C 
BRANCH  20  21
ATOM     21  C   UNL     1       1.308  -4.214   1.632  0.00  0.00    -0.029 A 
ATOM     22  C   UNL     1       1.257  -3.263   0.630  0.00  0.00    +0.004 A 
ATOM     23  C   UNL     1       1.869  -3.506  -0.586  0.00  0.00    +0.000 A 
ATOM     24  C   UNL     1       2.532  -4.700  -0.801  0.00  0.00    +0.003 A 
ATOM     25  C   UNL     1       2.584  -5.652   0.200  0.00  0.00    +0.038 A 
ATOM     26  C   UNL     1       1.976  -5.408   1.419  0.00  0.00    +0.125 A 
ATOM     27  F   UNL     1       2.031  -6.336   2.400  0.00  0.00    -0.205 F 
ENDBRANCH  20  21
ENDBRANCH   1  20
BRANCH   1  28
ATOM     28  C   UNL     1       1.022  -3.455   5.273  0.00  0.00    -0.044 C 
BRANCH  28  29
ATOM     29  C   UNL     1       0.454  -4.803   5.721  0.00  0.00    +0.124 C 
BRANCH  29  30
ATOM     30  O   UNL     1       1.524  -5.728   5.923  0.00  0.00    -0.391 OA
ATOM     31  H   UNL     1       2.163  -5.450   6.594  0.00  0.00    +0.210 HD
ENDBRANCH  29  30
BRANCH  29  32
ATOM     32  C   UNL     1      -0.317  -4.621   7.030  0.00  0.00    +0.189 C 
BRANCH  32  33
ATOM     33  O   UNL     1      -0.945  -5.854   7.388  0.00  0.00    -0.373 OA
BRANCH  33  34
ATOM     34  C   UNL     1      -1.695  -5.792   8.603  0.00  0.00    +0.186 C 
BRANCH  34  35
ATOM     35  C   UNL     1      -2.311  -7.139   8.882  0.00  0.00    -0.007 C 
ATOM     36  C   UNL     1      -2.256  -7.648  10.088  0.00  0.00    +0.006 C 
ENDBRANCH  34  35
ENDBRANCH  33  34
ENDBRANCH  32  33
ENDBRANCH  29  32
ENDBRANCH  28  29
ENDBRANCH   1  28
TORSDOF 15
