REMARK  Name = ZINC09010470
REMARK  5 active torsions:
REMARK  status: ('A' for Active; 'I' for Inactive)
REMARK    1  A    between atoms: C_1  and  C_2
REMARK    2  A    between atoms: C_4  and  C_8
REMARK    3  A    between atoms: N_10  and  N_11
REMARK    4  A    between atoms: C_12  and  C_13
REMARK    5  A    between atoms: C_18  and  O_19
REMARK                            x       y       z     vdW  Elec       q    Type
REMARK                         _______ _______ _______ _____ _____    ______ ____
ROOT
ATOM      1  N   UNL     1       0.073  -5.732  -1.583  0.00  0.00    -0.187 NA
ATOM      2  C   UNL     1       0.092  -6.885  -0.988  0.00  0.00    +0.142 C 
ENDROOT
BRANCH   2   3
ATOM      3  C   UNL     1       0.105  -8.125  -1.785  0.00  0.00    +0.038 A 
ATOM      4  C   UNL     1       0.120  -9.368  -1.148  0.00  0.00    +0.027 A 
ATOM      5  C   UNL     1       0.132 -10.525  -1.899  0.00  0.00    +0.015 A 
ATOM      6  C   UNL     1       0.130 -10.460  -3.283  0.00  0.00    +0.032 A 
ATOM      7  C   UNL     1       0.116  -9.235  -3.924  0.00  0.00    +0.056 A 
ATOM      8  C   UNL     1       0.098  -8.063  -3.185  0.00  0.00    +0.139 A 
ATOM      9  I   UNL     1       0.113  -9.151  -6.018  0.00  0.00    -0.040 I 
ATOM     10  I   UNL     1       0.155 -12.390  -0.944  0.00  0.00    -0.044 I 
BRANCH   8  11
ATOM     11  O   UNL     1       0.077  -6.860  -3.814  0.00  0.00    -0.505 OA
ATOM     12  H   UNL     1       0.955  -6.499  -4.001  0.00  0.00    +0.292 HD
ENDBRANCH   8  11
ENDBRANCH   2   3
BRANCH   1  15
ATOM     13  C   UNL     1       0.041  -3.355  -1.444  0.00  0.00    +0.281 C 
ATOM     14  O   UNL     1       0.035  -3.298  -2.659  0.00  0.00    -0.267 OA
ATOM     15  N   UNL     1       0.061  -4.553  -0.826  0.00  0.00    -0.202 N 
ATOM     16  H   UNL     1       0.067  -4.599   0.143  0.00  0.00    +0.178 HD
BRANCH  13  20
ATOM     17  C   UNL     1      -0.018   1.503   0.010  0.00  0.00    +0.067 C 
ATOM     18  C   UNL     1       0.002  -0.004   0.002  0.00  0.00    +0.060 A 
ATOM     19  C   UNL     1       0.008  -0.820  -1.131  0.00  0.00    +0.057 A 
ATOM     20  C   UNL     1       0.028  -2.118  -0.649  0.00  0.00    +0.122 A 
ATOM     21  N   UNL     1       0.033  -2.018   0.714  0.00  0.00    -0.272 N 
ATOM     22  H   UNL     1       0.047  -2.768   1.329  0.00  0.00    +0.189 HD
ATOM     23  N   UNL     1       0.023  -0.780   1.056  0.00  0.00    -0.178 NA
ENDBRANCH  13  20
ENDBRANCH   1  15
TORSDOF 4
