REMARK  Name = ZINC09052740
REMARK  7 active torsions:
REMARK  status: ('A' for Active; 'I' for Inactive)
REMARK    1  A    between atoms: C_1  and  C_2
REMARK    2  A    between atoms: C_2  and  C_4
REMARK    3  A    between atoms: C_2  and  C_19
REMARK    4  A    between atoms: N_21  and  CA_22
REMARK    5  A    between atoms: CA_22  and  C_24
REMARK    6  A    between atoms: CA_22  and  C_26
REMARK    7  A    between atoms: C_24  and  O_25
REMARK                            x       y       z     vdW  Elec       q    Type
REMARK                         _______ _______ _______ _____ _____    ______ ____
ROOT
ATOM      1  C   UNL     1      -3.362   3.482  -1.202  0.00  0.00    +0.022 C 
ATOM      2  C   UNL     1      -2.557   3.863   0.043  0.00  0.00    +0.102 C 
ENDROOT
BRANCH   2   3
ATOM      3  C   UNL     1      -1.236   3.137   0.028  0.00  0.00    -0.034 A 
ATOM      4  C   UNL     1      -1.214   1.751   0.017  0.00  0.00    +0.005 A 
ATOM      5  C   UNL     1      -0.013   1.076   0.008  0.00  0.00    +0.011 A 
ATOM      6  C   UNL     1       1.183   1.791   0.000  0.00  0.00    +0.007 A 
ATOM      7  C   UNL     1       2.603   1.393  -0.014  0.00  0.00    +0.009 A 
ATOM      8  C   UNL     1       3.253   0.162  -0.026  0.00  0.00    +0.030 A 
ATOM      9  C   UNL     1       4.631   0.115  -0.038  0.00  0.00    +0.042 A 
ATOM     10  C   UNL     1       5.370   1.290  -0.039  0.00  0.00    +0.022 A 
ATOM     11  C   UNL     1       4.739   2.514  -0.028  0.00  0.00    +0.027 A 
ATOM     12  C   UNL     1       3.349   2.581  -0.015  0.00  0.00    +0.048 A 
ATOM     13  N   UNL     1       2.468   3.649  -0.002  0.00  0.00    -0.354 N 
ATOM     14  H   UNL     1       2.729   4.583   0.001  0.00  0.00    +0.166 HD
ATOM     15  C   UNL     1       1.162   3.193   0.008  0.00  0.00    +0.048 A 
ATOM     16  C   UNL     1      -0.061   3.857   0.022  0.00  0.00    +0.030 A 
ATOM     17 CL   UNL     1       5.445  -1.419  -0.053  0.00  0.00    -0.084 Cl
ENDBRANCH   2   3
BRANCH   2  18
ATOM     18  C   UNL     1      -3.329   3.477   1.278  0.00  0.00    +0.221 C 
ATOM     19  O   UNL     1      -2.853   2.689   2.069  0.00  0.00    -0.275 OA
ATOM     20  N   UNL     1      -4.548   4.006   1.504  0.00  0.00    -0.306 N 
ATOM     21  H   UNL     1      -4.928   4.636   0.872  0.00  0.00    +0.149 HD
BRANCH  20  22
ATOM     22  CA  UNL     1      -5.298   3.630   2.705  0.00  0.00    +0.128 C 
BRANCH  22  23
ATOM     23  C   UNL     1      -6.266   4.730   3.057  0.00  0.00    -0.025 A 
ATOM     24  C   UNL     1      -6.953   5.393   2.057  0.00  0.00    +0.005 A 
ATOM     25  C   UNL     1      -7.844   6.399   2.380  0.00  0.00    +0.000 A 
ATOM     26  C   UNL     1      -8.041   6.749   3.703  0.00  0.00    +0.000 A 
ATOM     27  C   UNL     1      -7.351   6.090   4.702  0.00  0.00    +0.000 A 
ATOM     28  C   UNL     1      -6.463   5.081   4.380  0.00  0.00    +0.005 A 
ENDBRANCH  22  23
BRANCH  22  29
ATOM     29  C   UNL     1      -6.071   2.337   2.439  0.00  0.00    +0.182 C 
BRANCH  29  30
ATOM     30  O   UNL     1      -7.059   2.570   1.434  0.00  0.00    -0.393 OA
ATOM     31  H   UNL     1      -7.588   1.791   1.214  0.00  0.00    +0.209 HD
ENDBRANCH  29  30
ENDBRANCH  22  29
ENDBRANCH  20  22
ENDBRANCH   2  18
TORSDOF 6
