REMARK  Name = ZINC43254195
REMARK  6 active torsions:
REMARK  status: ('A' for Active; 'I' for Inactive)
REMARK    1  A    between atoms: C_4  and  C_7
REMARK    2  A    between atoms: C_7  and  N_8
REMARK    3  A    between atoms: C_9  and  C_28
REMARK    4  A    between atoms: N_18  and  C_21
REMARK    5  A    between atoms: C_21  and  C_22
REMARK    6  A    between atoms: C_33  and  O_34
REMARK                            x       y       z     vdW  Elec       q    Type
REMARK                         _______ _______ _______ _____ _____    ______ ____
ROOT
ATOM      1  N   UNL     1       4.153  -0.953   1.342  0.00  0.00    -0.174 NA
ATOM      2  C   UNL     1       5.409  -1.767   1.365  0.00  0.00    +0.133 C 
ATOM      3  C   UNL     1       6.342  -0.959   2.255  0.00  0.00    +0.139 C 
ATOM      4  C   UNL     1       5.800   0.478   1.896  0.00  0.00    +0.241 C 
ATOM      5  O   UNL     1       4.446   0.333   2.048  0.00  0.00    -0.283 OA
ATOM      6  C   UNL     1       6.889   1.316   2.365  0.00  0.00    +0.254 C 
ATOM      7  O   UNL     1       6.809   2.426   2.844  0.00  0.00    -0.272 OA
ATOM      8  N   UNL     1       8.027   0.583   2.152  0.00  0.00    -0.235 N 
ATOM      9  C   UNL     1       7.772  -0.741   1.873  0.00  0.00    +0.230 C 
ATOM     10  O   UNL     1       8.537  -1.560   1.411  0.00  0.00    -0.275 OA
ENDROOT
BRANCH   2  11
ATOM     11  C   UNL     1       5.148  -3.127   1.962  0.00  0.00    +0.017 A 
ATOM     12  C   UNL     1       4.017  -3.341   2.726  0.00  0.00    +0.029 A 
ATOM     13  C   UNL     1       3.777  -4.588   3.275  0.00  0.00    +0.043 A 
ATOM     14  C   UNL     1       4.668  -5.624   3.059  0.00  0.00    +0.043 A 
ATOM     15  C   UNL     1       5.801  -5.414   2.296  0.00  0.00    +0.084 A 
ATOM     16  C   UNL     1       6.040  -4.164   1.739  0.00  0.00    +0.140 A 
ATOM     17 CL   UNL     1       6.920  -6.713   2.026  0.00  0.00    -0.080 Cl
ATOM     18 CL   UNL     1       2.355  -4.853   4.235  0.00  0.00    -0.083 Cl
BRANCH  16  19
ATOM     19  O   UNL     1       7.151  -3.957   0.983  0.00  0.00    -0.505 OA
ATOM     20  H   UNL     1       7.922  -3.666   1.488  0.00  0.00    +0.292 HD
ENDBRANCH  16  19
ENDBRANCH   2  11
BRANCH   1  21
ATOM     21  C   UNL     1       3.711  -0.707  -0.038  0.00  0.00    +0.150 C 
BRANCH  21  25
ATOM     22  C   UNL     1      -0.017   1.378   0.010  0.00  0.00    +0.000 A 
ATOM     23  C   UNL     1       1.171   2.086   0.002  0.00  0.00    +0.000 A 
ATOM     24  C   UNL     1       2.377   1.411  -0.013  0.00  0.00    +0.005 A 
ATOM     25  C   UNL     1       2.396   0.029  -0.020  0.00  0.00    -0.031 A 
ATOM     26  C   UNL     1       1.208  -0.679  -0.012  0.00  0.00    +0.005 A 
ATOM     27  C   UNL     1       0.002  -0.004   0.002  0.00  0.00    +0.000 A 
ENDBRANCH  21  25
ENDBRANCH   1  21
BRANCH   8  28
ATOM     28  C   UNL     1       9.379   1.144   2.223  0.00  0.00    +0.151 C 
BRANCH  28  29
ATOM     29  C   UNL     1       9.899   1.022   3.632  0.00  0.00    -0.030 A 
ATOM     30  C   UNL     1       9.673   2.037   4.543  0.00  0.00    +0.005 A 
ATOM     31  C   UNL     1      10.151   1.925   5.835  0.00  0.00    +0.000 A 
ATOM     32  C   UNL     1      10.854   0.798   6.217  0.00  0.00    +0.000 A 
ATOM     33  C   UNL     1      11.079  -0.217   5.307  0.00  0.00    +0.000 A 
ATOM     34  C   UNL     1      10.598  -0.107   4.016  0.00  0.00    +0.005 A 
ENDBRANCH  28  29
ENDBRANCH   8  28
TORSDOF 6
