REMARK  Name = ZINC12602567
REMARK  7 active torsions:
REMARK  status: ('A' for Active; 'I' for Inactive)
REMARK    1  A    between atoms: C_1  and  C_2
REMARK    2  A    between atoms: C_2  and  C_3
REMARK    3  A    between atoms: C_2  and  N_4
REMARK    4  A    between atoms: N_7  and  C_8
REMARK    5  A    between atoms: C_8  and  C_9
REMARK    6  A    between atoms: C_18  and  C_20
REMARK    7  A    between atoms: C_20  and  N_21
REMARK                            x       y       z     vdW  Elec       q    Type
REMARK                         _______ _______ _______ _____ _____    ______ ____
ROOT
ATOM      1  C   UNL     1      -5.453  -1.797  -2.104  0.00  0.00    -0.051 C 
ATOM      2  C   UNL     1      -6.179  -2.058  -3.425  0.00  0.00    -0.010 C 
ATOM      3  C   UNL     1      -6.548  -3.546  -3.502  0.00  0.00    -0.012 C 
ATOM      4  C   UNL     1      -7.457  -3.881  -2.312  0.00  0.00    -0.015 C 
ATOM      5  C   UNL     1      -6.712  -3.556  -1.016  0.00  0.00    -0.078 C 
ATOM      6  N   UNL     1      -5.342  -3.043  -1.341  0.00  0.00    +0.383 N 
ATOM      7  C   UNL     1      -4.562  -4.035  -2.084  0.00  0.00    -0.073 C 
ATOM      8  C   UNL     1      -5.258  -4.370  -3.400  0.00  0.00    -0.011 C 
ATOM      9  H   UNL     1      -4.856  -2.846  -0.478  0.00  0.00    -0.081 HD
ENDROOT
BRANCH   1  10
ATOM     10  C   UNL     1      -4.053  -1.252  -2.393  0.00  0.00    +0.090 C 
BRANCH  10  14
ATOM     11  N   UNL     1      -1.372  -0.511   0.012  0.00  0.00    -0.297 N 
ATOM     12  C   UNL     1      -2.051  -0.643  -1.145  0.00  0.00    +0.300 C 
ATOM     13  O   UNL     1      -1.522  -0.341  -2.197  0.00  0.00    -0.253 OA
ATOM     14  N   UNL     1      -3.315  -1.109  -1.135  0.00  0.00    -0.301 N 
ATOM     15  H   UNL     1      -1.794  -0.752   0.852  0.00  0.00    +0.150 HD
ATOM     16  H   UNL     1      -3.737  -1.350  -0.295  0.00  0.00    +0.150 HD
BRANCH  11  18
ATOM     17  C   UNL     1      -0.019   1.526   0.010  0.00  0.00    +0.027 C 
ATOM     18  C   UNL     1       0.002  -0.004   0.002  0.00  0.00    +0.068 C 
ATOM     19  C   UNL     1       0.742  -0.511   1.242  0.00  0.00    +0.027 C 
ENDBRANCH  11  18
ENDBRANCH  10  14
ENDBRANCH   1  10
BRANCH   8  20
ATOM     20  C   UNL     1      -4.334  -4.024  -4.570  0.00  0.00    +0.086 C 
BRANCH  20  21
ATOM     21  N   UNL     1      -3.154  -4.898  -4.537  0.00  0.00    -0.301 NA
ATOM     22  C   UNL     1      -2.136  -4.443  -5.489  0.00  0.00    +0.089 C 
ATOM     23  C   UNL     1      -0.889  -5.311  -5.415  0.00  0.00    +0.024 C 
ATOM     24  C   UNL     1      -1.241  -6.786  -5.627  0.00  0.00    +0.017 C 
ATOM     25  C   UNL     1      -2.282  -7.171  -4.570  0.00  0.00    +0.050 C 
ATOM     26  C   UNL     1      -3.529  -6.298  -4.790  0.00  0.00    +0.094 C 
ATOM     27  C   UNL     1      -1.732  -6.861  -3.196  0.00  0.00    +0.026 A 
ATOM     28  C   UNL     1      -2.175  -7.618  -2.157  0.00  0.00    +0.022 A 
ATOM     29  C   UNL     1      -1.757  -7.344  -0.850  0.00  0.00    +0.007 A 
ATOM     30  C   UNL     1      -0.918  -6.291  -0.633  0.00  0.00    +0.070 A 
ATOM     31  C   UNL     1      -0.483  -5.529  -1.726  0.00  0.00    +0.251 A 
ATOM     32  O   UNL     1       0.218  -4.547  -1.538  0.00  0.00    -0.268 OA
ATOM     33  N   UNL     1      -0.832  -5.871  -2.990  0.00  0.00    -0.312 N 
ATOM     34  C   UNL     1      -0.175  -5.161  -4.082  0.00  0.00    +0.130 C 
ENDBRANCH  20  21
ENDBRANCH   8  20
TORSDOF 5
