REMARK  Name = ZINC25388498
REMARK  7 active torsions:
REMARK  status: ('A' for Active; 'I' for Inactive)
REMARK    1  A    between atoms: C_5  and  N_7
REMARK    2  A    between atoms: N_7  and  S_8
REMARK    3  A    between atoms: S_8  and  C_11
REMARK    4  A    between atoms: C_15  and  C_17
REMARK    5  A    between atoms: N_19  and  N_20
REMARK    6  A    between atoms: C_24  and  N_31
REMARK    7  A    between atoms: C_29  and  O_30
REMARK                            x       y       z     vdW  Elec       q    Type
REMARK                         _______ _______ _______ _____ _____    ______ ____
ROOT
ATOM      1  C   UNL     1       1.073  -7.381   2.407  0.00  0.00    +0.263 C 
ATOM      2  O   UNL     1       1.175  -6.763   3.449  0.00  0.00    -0.268 OA
ATOM      3  N   UNL     1       1.184  -8.724   2.407  0.00  0.00    -0.202 N 
ATOM      4  H   UNL     1       1.103  -9.217   1.575  0.00  0.00    +0.178 HD
ENDROOT
BRANCH   3   5
ATOM      5  N   UNL     1       1.398  -9.354   3.512  0.00  0.00    -0.174 NA
ATOM      6  C   UNL     1       1.611 -10.649   3.498  0.00  0.00    +0.152 C 
ATOM      7  C   UNL     1       1.809 -11.527   2.322  0.00  0.00    +0.035 A 
ATOM      8  C   UNL     1       1.834 -11.310   0.952  0.00  0.00    +0.045 A 
ATOM      9  C   UNL     1       2.047 -12.372   0.094  0.00  0.00    +0.127 A 
ATOM     10  C   UNL     1       2.234 -13.650   0.599  0.00  0.00    +0.035 A 
ATOM     11  C   UNL     1       2.212 -13.882   1.957  0.00  0.00    +0.031 A 
ATOM     12  C   UNL     1       1.998 -12.822   2.845  0.00  0.00    +0.077 A 
ATOM     13  N   UNL     1       1.929 -12.772   4.201  0.00  0.00    -0.211 NA
ATOM     14  C   UNL     1       1.717 -11.563   4.652  0.00  0.00    +0.241 C 
BRANCH   9  15
ATOM     15  N   UNL     1       2.075 -12.146  -1.368  0.00  0.00    +0.056 N 
ATOM     16  O   UNL     1       1.912 -11.032  -1.810  0.00  0.00    -0.126 OA
ATOM     17  O   UNL     1       2.261 -13.073  -2.120  0.00  0.00    -0.126 OA
ENDBRANCH   9  15
BRANCH  14  18
ATOM     18  O   UNL     1       1.608 -11.211   5.956  0.00  0.00    -0.491 OA
ATOM     19  H   UNL     1       1.705 -11.950   6.572  0.00  0.00    +0.294 HD
ENDBRANCH  14  18
ENDBRANCH   3   5
BRANCH   1  24
ATOM     20  C   UNL     1       0.484  -4.600  -0.047  0.00  0.00    +0.111 A 
ATOM     21  C   UNL     1       0.369  -5.307  -1.231  0.00  0.00    +0.029 A 
ATOM     22  C   UNL     1       0.483  -6.686  -1.235  0.00  0.00    +0.003 A 
ATOM     23  C   UNL     1       0.712  -7.366  -0.057  0.00  0.00    +0.013 A 
ATOM     24  C   UNL     1       0.829  -6.659   1.141  0.00  0.00    +0.040 A 
ATOM     25  C   UNL     1       0.719  -5.267   1.138  0.00  0.00    +0.042 A 
BRANCH  20  26
ATOM     26  S   UNL     1       0.338  -2.845  -0.053  0.00  0.00    +0.092 S 
ATOM     27  O   UNL     1      -0.054  -2.465   1.259  0.00  0.00    -0.148 OA
ATOM     28  O   UNL     1      -0.423  -2.504  -1.204  0.00  0.00    -0.148 OA
BRANCH  26  29
ATOM     29  N   UNL     1       1.856  -2.227  -0.290  0.00  0.00    -0.096 NA
BRANCH  29  34
ATOM     30  C   UNL     1       1.159   1.381  -0.245  0.00  0.00    +0.002 A 
ATOM     31  C   UNL     1       2.428   1.895  -0.444  0.00  0.00    +0.002 A 
ATOM     32  C   UNL     1       3.507   1.044  -0.591  0.00  0.00    +0.022 A 
ATOM     33  C   UNL     1       3.322  -0.324  -0.541  0.00  0.00    +0.065 A 
ATOM     34  C   UNL     1       2.048  -0.844  -0.341  0.00  0.00    +0.093 A 
ATOM     35  C   UNL     1       0.967   0.015  -0.194  0.00  0.00    +0.028 A 
ATOM     36 CL   UNL     1       4.677  -1.393  -0.727  0.00  0.00    -0.082 Cl
ENDBRANCH  29  34
ENDBRANCH  26  29
ENDBRANCH  20  26
ENDBRANCH   1  24
TORSDOF 7
