REMARK  Name = ZINC52580930
REMARK  7 active torsions:
REMARK  status: ('A' for Active; 'I' for Inactive)
REMARK    1  A    between atoms: C_1  and  C_2
REMARK    2  A    between atoms: C_2  and  C_4
REMARK    3  A    between atoms: C_2  and  N_13
REMARK    4  A    between atoms: C_4  and  O_5
REMARK    5  A    between atoms: O_5  and  C_6
REMARK    6  A    between atoms: N_16  and  N_17
REMARK    7  A    between atoms: C_18  and  C_20
REMARK                            x       y       z     vdW  Elec       q    Type
REMARK                         _______ _______ _______ _____ _____    ______ ____
ROOT
ATOM      1  N   UNL     1       0.688  -0.476  -1.203  0.00  0.00    -0.292 N 
ATOM      2  C   UNL     1       2.031  -0.587  -1.215  0.00  0.00    +0.316 C 
ATOM      3  O   UNL     1       2.674  -0.294  -0.225  0.00  0.00    -0.251 OA
ATOM      4  N   UNL     1       2.662  -1.022  -2.324  0.00  0.00    -0.218 N 
ATOM      5  H   UNL     1       0.175  -0.710  -1.993  0.00  0.00    +0.151 HD
ATOM      6  H   UNL     1       3.628  -1.101  -2.332  0.00  0.00    +0.174 HD
ENDROOT
BRANCH   4   7
ATOM      7  N   UNL     1       1.921  -1.359  -3.464  0.00  0.00    -0.229 N 
ATOM      8  C   UNL     1       2.552  -1.793  -4.573  0.00  0.00    +0.260 C 
ATOM      9  O   UNL     1       3.764  -1.893  -4.584  0.00  0.00    -0.269 OA
ATOM     10  H   UNL     1       0.955  -1.279  -3.456  0.00  0.00    +0.173 HD
BRANCH   8  11
ATOM     11  C   UNL     1       1.771  -2.149  -5.776  0.00  0.00    +0.038 A 
ATOM     12  C   UNL     1       0.380  -2.030  -5.769  0.00  0.00    +0.014 A 
ATOM     13  C   UNL     1      -0.343  -2.363  -6.895  0.00  0.00    +0.021 A 
ATOM     14  C   UNL     1       0.307  -2.816  -8.031  0.00  0.00    +0.041 A 
ATOM     15  C   UNL     1       1.687  -2.936  -8.044  0.00  0.00    +0.021 A 
ATOM     16  C   UNL     1       2.422  -2.599  -6.926  0.00  0.00    +0.014 A 
ATOM     17 CL   UNL     1      -0.610  -3.234  -9.444  0.00  0.00    -0.084 Cl
ENDBRANCH   8  11
ENDBRANCH   4   7
BRANCH   1  19
ATOM     18  C   UNL     1      -0.019   1.526   0.010  0.00  0.00    +0.031 C 
ATOM     19  C   UNL     1       0.002  -0.004   0.002  0.00  0.00    +0.109 C 
BRANCH  19  20
ATOM     20  C   UNL     1      -1.433  -0.534   0.013  0.00  0.00    +0.251 C 
BRANCH  20  21
ATOM     21  O   UNL     1      -2.158   0.032  -1.081  0.00  0.00    -0.490 OA
BRANCH  21  22
ATOM     22  C   UNL     1      -3.459  -0.338  -1.216  0.00  0.00    +0.121 A 
ATOM     23  C   UNL     1      -4.027  -1.222  -0.312  0.00  0.00    +0.048 A 
ATOM     24  C   UNL     1      -5.350  -1.597  -0.451  0.00  0.00    +0.042 A 
ATOM     25  C   UNL     1      -6.108  -1.091  -1.492  0.00  0.00    +0.124 A 
ATOM     26  C   UNL     1      -5.542  -0.208  -2.397  0.00  0.00    +0.042 A 
ATOM     27  C   UNL     1      -4.222   0.174  -2.256  0.00  0.00    +0.048 A 
ATOM     28  F   UNL     1      -7.401  -1.459  -1.627  0.00  0.00    -0.205 F 
ENDBRANCH  21  22
ENDBRANCH  20  21
ENDBRANCH  19  20
ENDBRANCH   1  19
TORSDOF 6
