REMARK  Name = ZINC51821083
REMARK  8 active torsions:
REMARK  status: ('A' for Active; 'I' for Inactive)
REMARK    1  A    between atoms: C_1  and  C_2
REMARK    2  A    between atoms: C_2  and  C_4
REMARK    3  A    between atoms: C_2  and  O_20
REMARK    4  A    between atoms: C_4  and  N_5
REMARK    5  A    between atoms: N_5  and  C_6
REMARK    6  A    between atoms: N_5  and  C_7
REMARK    7  A    between atoms: C_10  and  S_13
REMARK    8  A    between atoms: S_13  and  C_16
REMARK                            x       y       z     vdW  Elec       q    Type
REMARK                         _______ _______ _______ _____ _____    ______ ____
ROOT
ATOM      1  C   UNL     1      -0.129  -2.781   1.723  0.00  0.00    +0.030 A 
ATOM      2  C   UNL     1      -1.239  -2.208   2.329  0.00  0.00    +0.025 A 
ATOM      3  C   UNL     1      -2.221  -3.014   2.870  0.00  0.00    +0.029 A 
ATOM      4  C   UNL     1      -2.100  -4.390   2.811  0.00  0.00    +0.098 A 
ATOM      5  C   UNL     1      -0.995  -4.964   2.209  0.00  0.00    +0.029 A 
ATOM      6  C   UNL     1      -0.012  -4.164   1.660  0.00  0.00    +0.025 A 
ENDROOT
BRANCH   4   7
ATOM      7  S   UNL     1      -3.354  -5.414   3.504  0.00  0.00    +0.091 S 
ATOM      8  O   UNL     1      -2.691  -6.627   3.834  0.00  0.00    -0.161 OA
ATOM      9  O   UNL     1      -3.954  -4.617   4.517  0.00  0.00    -0.161 OA
BRANCH   7  10
ATOM     10  C   UNL     1      -4.529  -5.693   2.151  0.00  0.00    +0.526 C 
ATOM     11  F   UNL     1      -3.875  -6.324   1.087  0.00  0.00    -0.150 F 
ATOM     12  F   UNL     1      -5.576  -6.504   2.601  0.00  0.00    -0.150 F 
ATOM     13  F   UNL     1      -5.043  -4.465   1.719  0.00  0.00    -0.150 F 
ENDBRANCH   7  10
ENDBRANCH   4   7
BRANCH   1  14
ATOM     14  N   UNL     1       0.866  -1.969   1.174  0.00  0.00    -0.330 N 
ATOM     15  C   UNL     1       2.034  -2.575   0.530  0.00  0.00    +0.129 C 
BRANCH  14  16
ATOM     16  C   UNL     1       0.742  -0.511   1.242  0.00  0.00    +0.135 C 
BRANCH  16  18
ATOM     17  C   UNL     1      -0.019   1.526   0.010  0.00  0.00    +0.039 C 
ATOM     18  C   UNL     1       0.002  -0.004   0.002  0.00  0.00    +0.129 C 
BRANCH  18  19
ATOM     19  O   UNL     1      -1.339  -0.499   0.012  0.00  0.00    -0.391 OA
ATOM     20  H   UNL     1      -1.853  -0.225   0.784  0.00  0.00    +0.210 HD
ENDBRANCH  18  19
ENDBRANCH  16  18
ENDBRANCH  14  16
ENDBRANCH   1  14
TORSDOF 6
