REMARK  Name = ZINC22210884
REMARK  6 active torsions:
REMARK  status: ('A' for Active; 'I' for Inactive)
REMARK    1  A    between atoms: C_1  and  N_2
REMARK    2  A    between atoms: C_3  and  C_25
REMARK    3  A    between atoms: C_6  and  S_7
REMARK    4  A    between atoms: S_7  and  C_8
REMARK    5  A    between atoms: C_8  and  C_9
REMARK    6  A    between atoms: N_14  and  C_15
REMARK                            x       y       z     vdW  Elec       q    Type
REMARK                         _______ _______ _______ _____ _____    ______ ____
ROOT
ATOM      1  C   UNL     1       0.028   0.059   0.844  0.00  0.00    +0.231 C 
ATOM      2  O   UNL     1       1.085  -0.534   0.849  0.00  0.00    -0.274 OA
ATOM      3  N   UNL     1      -1.123  -0.615   1.037  0.00  0.00    -0.239 N 
ATOM      4  C   UNL     1      -1.099  -1.948   1.235  0.00  0.00    +0.306 C 
ATOM      5  O   UNL     1      -0.039  -2.542   1.239  0.00  0.00    -0.252 OA
ATOM      6  N   UNL     1      -2.250  -2.622   1.427  0.00  0.00    -0.294 N 
ATOM      7  H   UNL     1      -2.083  -0.077   1.033  0.00  0.00    +0.159 HD
ATOM      8  H   UNL     1      -3.210  -2.083   1.423  0.00  0.00    +0.151 HD
ENDROOT
BRANCH   6   9
ATOM      9  C   UNL     1      -2.224  -4.071   1.642  0.00  0.00    +0.037 C 
ATOM     10  C   UNL     1      -1.594  -4.755   0.427  0.00  0.00    +0.029 C 
ATOM     11  C   UNL     1      -1.567  -6.268   0.651  0.00  0.00    -0.008 C 
ATOM     12  C   UNL     1      -2.995  -6.781   0.842  0.00  0.00    +0.007 C 
ATOM     13  C   UNL     1      -3.625  -6.097   2.057  0.00  0.00    -0.008 C 
ATOM     14  C   UNL     1      -3.653  -4.584   1.833  0.00  0.00    +0.029 C 
ATOM     15  C   UNL     1      -2.799  -6.413   3.305  0.00  0.00    +0.007 C 
ATOM     16  C   UNL     1      -1.370  -5.899   3.115  0.00  0.00    -0.008 C 
ATOM     17  C   UNL     1      -0.740  -6.584   1.900  0.00  0.00    +0.007 C 
ATOM     18  C   UNL     1      -1.398  -4.386   2.890  0.00  0.00    +0.029 C 
ENDBRANCH   6   9
BRANCH   1  19
ATOM     19  C   UNL     1       0.001   1.549   0.624  0.00  0.00    +0.173 C 
BRANCH  19  20
ATOM     20  S   UNL     1       1.691   2.157   0.398  0.00  0.00    -0.077 S 
BRANCH  20  26
ATOM     21  C   UNL     1       3.754   4.682  -0.145  0.00  0.00    +0.153 C 
ATOM     22  N   UNL     1       2.301   4.849  -0.054  0.00  0.00    -0.305 N 
ATOM     23  C   UNL     1       1.590   6.021  -0.173  0.00  0.00    +0.167 A 
ATOM     24  N   UNL     1       0.321   5.718  -0.026  0.00  0.00    -0.128 NA
ATOM     25  N   UNL     1       0.191   4.454   0.168  0.00  0.00    -0.122 NA
ATOM     26  C   UNL     1       1.371   3.874   0.166  0.00  0.00    +0.192 A 
BRANCH  23  27
ATOM     27  C   UNL     1       2.149   7.367  -0.420  0.00  0.00    +0.054 A 
ATOM     28  C   UNL     1       3.105   7.557  -1.418  0.00  0.00    +0.014 A 
ATOM     29  C   UNL     1       3.623   8.815  -1.643  0.00  0.00    +0.001 A 
ATOM     30  C   UNL     1       3.197   9.890  -0.883  0.00  0.00    +0.003 A 
ATOM     31  C   UNL     1       2.249   9.711   0.109  0.00  0.00    +0.039 A 
ATOM     32  C   UNL     1       1.718   8.457   0.342  0.00  0.00    +0.134 A 
ATOM     33  F   UNL     1       0.788   8.283   1.307  0.00  0.00    -0.205 F 
ENDBRANCH  23  27
ENDBRANCH  20  26
ENDBRANCH  19  20
ENDBRANCH   1  19
TORSDOF 5
