REMARK  Name = ZINC37615667
REMARK  6 active torsions:
REMARK  status: ('A' for Active; 'I' for Inactive)
REMARK    1  A    between atoms: C_1  and  C_2
REMARK    2  A    between atoms: C_2  and  C_3
REMARK    3  A    between atoms: C_2  and  C_6
REMARK    4  A    between atoms: C_2  and  N_21
REMARK    5  A    between atoms: N_8  and  C_9
REMARK    6  A    between atoms: C_14  and  N_16
REMARK                            x       y       z     vdW  Elec       q    Type
REMARK                         _______ _______ _______ _____ _____    ______ ____
ROOT
ATOM      1  C   UNL     1      -1.412  -0.526   0.013  0.00  0.00    +0.202 C 
ATOM      2  O   UNL     1      -1.939  -0.827   1.062  0.00  0.00    -0.277 OA
ATOM      3  N   UNL     1      -2.090  -0.657  -1.144  0.00  0.00    -0.312 N 
ATOM      4  H   UNL     1      -1.669  -0.416  -1.984  0.00  0.00    +0.149 HD
ENDROOT
BRANCH   3   5
ATOM      5  C   UNL     1      -3.465  -1.164  -1.134  0.00  0.00    +0.096 C 
ATOM      6  C   UNL     1      -4.455  -0.002  -0.919  0.00  0.00    +0.024 C 
ATOM      7  C   UNL     1      -4.898   0.390  -2.350  0.00  0.00    +0.004 C 
ATOM      8  C   UNL     1      -4.994  -0.981  -3.066  0.00  0.00    +0.027 C 
ATOM      9  C   UNL     1      -3.807  -1.788  -2.498  0.00  0.00    +0.108 C 
BRANCH   9  10
ATOM     10  N   UNL     1      -4.190  -3.192  -2.327  0.00  0.00    -0.334 N 
ATOM     11  C   UNL     1      -5.239  -3.663  -1.584  0.00  0.00    +0.105 A 
ATOM     12  C   UNL     1      -5.228  -5.004  -1.702  0.00  0.00    +0.101 A 
ATOM     13  N   UNL     1      -4.200  -5.343  -2.494  0.00  0.00    -0.352 N 
ATOM     14  C   UNL     1      -3.577  -4.262  -2.877  0.00  0.00    +0.174 A 
ATOM     15  H   UNL     1      -3.961  -6.248  -2.746  0.00  0.00    +0.166 HD
ENDBRANCH   9  10
ENDBRANCH   3   5
BRANCH   1  17
ATOM     16  C   UNL     1      -0.019   1.526   0.010  0.00  0.00    -0.001 C 
ATOM     17  C   UNL     1       0.002  -0.004   0.002  0.00  0.00    +0.007 C 
BRANCH  17  18
ATOM     18  N   UNL     1       0.690  -0.478  -1.207  0.00  0.00    +0.388 N 
ATOM     19  H   UNL     1       1.636  -0.129  -1.214  0.00  0.00    -0.089 HD
ATOM     20  H   UNL     1       0.703  -1.487  -1.212  0.00  0.00    -0.089 HD
ATOM     21  H   UNL     1       0.202  -0.144  -2.024  0.00  0.00    -0.089 HD
ENDBRANCH  17  18
BRANCH  17  22
ATOM     22  C   UNL     1       0.742  -0.511   1.242  0.00  0.00    -0.014 C 
ATOM     23  C   UNL     1       1.015   0.495   2.362  0.00  0.00    +0.003 C 
ATOM     24  C   UNL     1       2.163   0.006   1.476  0.00  0.00    +0.003 C 
ENDBRANCH  17  22
ENDBRANCH   1  17
TORSDOF 5
