REMARK  Name = ZINC33010107
REMARK  7 active torsions:
REMARK  status: ('A' for Active; 'I' for Inactive)
REMARK    1  A    between atoms: C_1  and  C_2
REMARK    2  A    between atoms: C_5  and  C_9
REMARK    3  A    between atoms: C_7  and  C_8
REMARK    4  A    between atoms: C_9  and  C_11
REMARK    5  A    between atoms: C_9  and  N_12
REMARK    6  A    between atoms: C_13  and  C_15
REMARK    7  A    between atoms: C_27  and  C_30
REMARK                            x       y       z     vdW  Elec       q    Type
REMARK                         _______ _______ _______ _____ _____    ______ ____
ROOT
ATOM      1  C   UNL     1      -0.018   1.503   0.010  0.00  0.00    +0.078 C 
ATOM      2  C   UNL     1      -0.738   1.998   1.268  0.00  0.00    +0.031 C 
ATOM      3  C   UNL     1      -0.810   3.526   1.240  0.00  0.00    +0.107 C 
ATOM      4  N   UNL     1      -1.531   3.963   0.037  0.00  0.00    -0.314 N 
ATOM      5  C   UNL     1      -0.832   3.539  -1.183  0.00  0.00    +0.107 C 
ATOM      6  C   UNL     1      -0.761   2.011  -1.228  0.00  0.00    +0.031 C 
ATOM      7  C   UNL     1      -1.728   5.339   0.046  0.00  0.00    +0.142 A 
ATOM      8  C   UNL     1      -2.384   5.941   1.138  0.00  0.00    +0.049 A 
ATOM      9  C   UNL     1      -2.583   7.286   1.157  0.00  0.00    +0.053 A 
ATOM     10  C   UNL     1      -2.124   8.063   0.077  0.00  0.00    +0.178 A 
ATOM     11  N   UNL     1      -2.161   9.358  -0.198  0.00  0.00    -0.128 NA
ATOM     12  N   UNL     1      -1.596   9.575  -1.334  0.00  0.00    -0.127 NA
ATOM     13  C   UNL     1      -1.166   8.438  -1.850  0.00  0.00    +0.185 A 
ATOM     14  N   UNL     1      -1.489   7.446  -0.972  0.00  0.00    -0.191 N 
ATOM     15  N   UNL     1      -1.296   6.063  -0.960  0.00  0.00    -0.148 NA
ENDROOT
BRANCH  13  16
ATOM     16  C   UNL     1      -0.467   8.271  -3.141  0.00  0.00    +0.021 A 
ATOM     17  C   UNL     1      -0.340   7.003  -3.711  0.00  0.00    +0.013 A 
ATOM     18  C   UNL     1       0.311   6.854  -4.918  0.00  0.00    +0.021 A 
ATOM     19  C   UNL     1       0.846   7.958  -5.560  0.00  0.00    +0.041 A 
ATOM     20  C   UNL     1       0.728   9.218  -4.998  0.00  0.00    +0.021 A 
ATOM     21  C   UNL     1       0.075   9.380  -3.793  0.00  0.00    +0.013 A 
ATOM     22 CL   UNL     1       1.668   7.762  -7.076  0.00  0.00    -0.084 Cl
ENDBRANCH  13  16
BRANCH   1  24
ATOM     23  N   UNL     1       0.604  -0.675   1.004  0.00  0.00    -0.309 N 
ATOM     24  C   UNL     1       0.002  -0.004   0.002  0.00  0.00    +0.217 C 
ATOM     25  O   UNL     1      -0.523  -0.613  -0.906  0.00  0.00    -0.275 OA
ATOM     26  H   UNL     1       1.081  -0.123   1.827  0.00  0.00    +0.149 HD
BRANCH  23  27
ATOM     27  C   UNL     1       0.624  -2.140   0.996  0.00  0.00    +0.100 C 
ATOM     28  C   UNL     1      -0.670  -2.671   1.615  0.00  0.00    +0.033 C 
BRANCH  27  33
ATOM     29  C   UNL     1       5.141  -4.023   4.068  0.00  0.00    +0.044 C 
ATOM     30  C   UNL     1       3.964  -3.532   3.267  0.00  0.00    -0.048 A 
ATOM     31  C   UNL     1       3.228  -2.449   3.711  0.00  0.00    +0.004 A 
ATOM     32  C   UNL     1       2.148  -1.998   2.976  0.00  0.00    +0.006 A 
ATOM     33  C   UNL     1       1.802  -2.631   1.797  0.00  0.00    -0.027 A 
ATOM     34  C   UNL     1       2.534  -3.717   1.355  0.00  0.00    +0.009 A 
ATOM     35  C   UNL     1       3.618  -4.164   2.087  0.00  0.00    -0.047 A 
ATOM     36  C   UNL     1       4.419  -5.345   1.603  0.00  0.00    +0.044 C 
ENDBRANCH  27  33
ENDBRANCH  23  27
ENDBRANCH   1  24
TORSDOF 4
