REMARK  Name = ZINC00174860
REMARK  1 active torsions:
REMARK  status: ('A' for Active; 'I' for Inactive)
REMARK    1  A    between atoms: C_7  and  N_15
REMARK                            x       y       z     vdW  Elec       q    Type
REMARK                         _______ _______ _______ _____ _____    ______ ____
ROOT
ATOM      1  C   UNL     1       1.175   1.784   0.000  0.00  0.00    +0.001 A 
ATOM      2  C   UNL     1      -0.013   1.076   0.008  0.00  0.00    +0.004 A 
ATOM      3  C   UNL     1      -1.217   1.750   0.017  0.00  0.00    +0.046 A 
ATOM      4  C   UNL     1      -1.239   3.140   0.031  0.00  0.00    +0.134 A 
ATOM      5  C   UNL     1      -0.047   3.846   0.023  0.00  0.00    +0.020 A 
ATOM      6  C   UNL     1       1.157   3.165   0.008  0.00  0.00    +0.009 A 
ATOM      7  C   UNL     1      -0.044   5.350   0.031  0.00  0.00    +0.151 C 
ATOM      8  C   UNL     1      -1.388   5.884  -0.384  0.00  0.00    +0.020 A 
ATOM      9  C   UNL     1      -1.498   7.200  -0.798  0.00  0.00    +0.009 A 
ATOM     10  C   UNL     1      -2.724   7.708  -1.181  0.00  0.00    +0.001 A 
ATOM     11  C   UNL     1      -3.847   6.903  -1.153  0.00  0.00    +0.004 A 
ATOM     12  C   UNL     1      -3.744   5.590  -0.741  0.00  0.00    +0.046 A 
ATOM     13  C   UNL     1      -2.512   5.074  -0.355  0.00  0.00    +0.134 A 
ATOM     14  O   UNL     1      -2.431   3.782   0.045  0.00  0.00    -0.455 OA
ENDROOT
BRANCH   7  15
ATOM     15  N   UNL     1       0.270   5.826   1.380  0.00  0.00    -0.230 N 
ATOM     16  C   UNL     1      -0.487   5.535   2.445  0.00  0.00    +0.223 C 
ATOM     17  O   UNL     1      -1.496   4.862   2.427  0.00  0.00    -0.275 OA
ATOM     18  C   UNL     1       0.117   6.175   3.676  0.00  0.00    +0.105 C 
ATOM     19  C   UNL     1       1.363   6.903   3.130  0.00  0.00    +0.105 C 
ATOM     20  C   UNL     1       1.334   6.593   1.649  0.00  0.00    +0.223 C 
ATOM     21  O   UNL     1       2.146   6.977   0.836  0.00  0.00    -0.275 OA
ENDBRANCH   7  15
TORSDOF 1
