REMARK  Name = ZINC21082317
REMARK  9 active torsions:
REMARK  status: ('A' for Active; 'I' for Inactive)
REMARK    1  A    between atoms: C_1  and  C_2
REMARK    2  A    between atoms: C_2  and  C_25
REMARK    3  A    between atoms: N_3  and  N_4
REMARK    4  A    between atoms: C_7  and  S_10
REMARK    5  A    between atoms: S_10  and  C_11
REMARK    6  A    between atoms: C_11  and  C_12
REMARK    7  A    between atoms: C_12  and  C_13
REMARK    8  A    between atoms: N_15  and  C_16
REMARK    9  A    between atoms: C_20  and  N_22
REMARK                            x       y       z     vdW  Elec       q    Type
REMARK                         _______ _______ _______ _____ _____    ______ ____
ROOT
ATOM      1  N   UNL     1       6.885  12.489   0.855  0.00  0.00    -0.205 N 
ATOM      2  C   UNL     1       6.013  11.416   0.738  0.00  0.00    +0.232 A 
ATOM      3  N   UNL     1       4.648  11.490   0.698  0.00  0.00    -0.186 NA
ATOM      4  C   UNL     1       4.160  10.221   0.578  0.00  0.00    +0.210 A 
ATOM      5  N   UNL     1       5.178   9.395   0.550  0.00  0.00    -0.144 NA
ATOM      6  N   UNL     1       6.353  10.153   0.646  0.00  0.00    -0.245 N 
ATOM      7  H   UNL     1       6.491  13.513   0.926  0.00  0.00    +0.177 HD
ATOM      8  H   UNL     1       7.415   9.867   0.654  0.00  0.00    +0.192 HD
ENDROOT
BRANCH   1  11
ATOM      9  C   UNL     1       8.544  14.675   1.091  0.00  0.00    +0.068 C 
ATOM     10  C   UNL     1       9.085  13.271   0.993  0.00  0.00    +0.063 C 
ATOM     11  N   UNL     1       8.268  12.267   0.883  0.00  0.00    -0.184 NA
BRANCH  10  12
ATOM     12  C   UNL     1      10.540  13.038   1.022  0.00  0.00    -0.002 A 
ATOM     13  C   UNL     1      11.420  14.130   1.142  0.00  0.00    +0.010 A 
ATOM     14  C   UNL     1      12.763  13.941   1.171  0.00  0.00    +0.009 A 
ATOM     15  C   UNL     1      13.293  12.640   1.082  0.00  0.00    -0.018 A 
ATOM     16  C   UNL     1      14.680  12.420   1.111  0.00  0.00    +0.008 A 
ATOM     17  C   UNL     1      15.164  11.150   1.023  0.00  0.00    +0.001 A 
ATOM     18  C   UNL     1      14.304  10.061   0.904  0.00  0.00    +0.001 A 
ATOM     19  C   UNL     1      12.954  10.234   0.873  0.00  0.00    +0.008 A 
ATOM     20  C   UNL     1      12.417  11.531   0.961  0.00  0.00    -0.017 A 
ATOM     21  C   UNL     1      11.031  11.745   0.938  0.00  0.00    +0.018 A 
ENDBRANCH  10  12
ENDBRANCH   1  11
BRANCH   4  22
ATOM     22  S   UNL     1       2.459   9.770   0.484  0.00  0.00    -0.084 S 
BRANCH  22  23
ATOM     23  C   UNL     1       2.491   7.962   0.338  0.00  0.00    +0.086 C 
BRANCH  23  24
ATOM     24  C   UNL     1       1.059   7.432   0.247  0.00  0.00    +0.107 C 
BRANCH  24  25
ATOM     25  C   UNL     1       1.085   5.931   0.125  0.00  0.00    +0.218 C 
ATOM     26  O   UNL     1       2.146   5.342   0.112  0.00  0.00    -0.275 OA
ATOM     27  N   UNL     1      -0.069   5.242   0.030  0.00  0.00    -0.285 N 
ATOM     28  H   UNL     1      -1.026   5.779  -0.046  0.00  0.00    +0.155 HD
BRANCH  27  29
ATOM     29  C   UNL     1      -0.051   3.842   0.028  0.00  0.00    +0.036 A 
ATOM     30  C   UNL     1       0.907   3.158   0.766  0.00  0.00    +0.023 A 
ATOM     31  C   UNL     1       0.922   1.777   0.762  0.00  0.00    +0.004 A 
ATOM     32  C   UNL     1      -0.015   1.076   0.025  0.00  0.00    +0.033 A 
ATOM     33  C   UNL     1      -0.966   1.754  -0.715  0.00  0.00    +0.128 A 
ATOM     34  C   UNL     1      -0.990   3.135  -0.711  0.00  0.00    +0.056 A 
BRANCH  33  35
ATOM     35  N   UNL     1      -1.963   0.999  -1.506  0.00  0.00    +0.056 N 
ATOM     36  O   UNL     1      -1.945  -0.218  -1.506  0.00  0.00    -0.126 OA
ATOM     37  O   UNL     1      -2.801   1.596  -2.158  0.00  0.00    -0.126 OA
ENDBRANCH  33  35
ENDBRANCH  27  29
ENDBRANCH  24  25
ENDBRANCH  23  24
ENDBRANCH  22  23
ENDBRANCH   4  22
TORSDOF 8
