REMARK  Name = ZINC41630491
REMARK  6 active torsions:
REMARK  status: ('A' for Active; 'I' for Inactive)
REMARK    1  A    between atoms: C_1  and  C_2
REMARK    2  A    between atoms: C_2  and  C_4
REMARK    3  A    between atoms: C_2  and  S_17
REMARK    4  A    between atoms: C_4  and  C_6
REMARK    5  A    between atoms: S_17  and  C_18
REMARK    6  A    between atoms: C_24  and  N_26
REMARK                            x       y       z     vdW  Elec       q    Type
REMARK                         _______ _______ _______ _____ _____    ______ ____
ROOT
ATOM      1  C   UNL     1      -0.019   1.526   0.010  0.00  0.00    +0.028 C 
ATOM      2  C   UNL     1       0.002  -0.004   0.002  0.00  0.00    +0.122 C 
ENDROOT
BRANCH   2   3
ATOM      3  C   UNL     1       0.707  -0.490  -1.238  0.00  0.00    +0.176 C 
ATOM      4  O   UNL     1       0.066  -0.782  -2.225  0.00  0.00    -0.291 OA
BRANCH   3   5
ATOM      5  C   UNL     1       2.171  -0.610  -1.250  0.00  0.00    +0.020 A 
ATOM      6  C   UNL     1       2.913  -0.280  -0.110  0.00  0.00    +0.015 A 
ATOM      7  C   UNL     1       4.285  -0.393  -0.121  0.00  0.00    +0.048 A 
ATOM      8  C   UNL     1       4.937  -0.835  -1.264  0.00  0.00    +0.142 A 
ATOM      9  C   UNL     1       4.204  -1.167  -2.406  0.00  0.00    +0.076 A 
ATOM     10  C   UNL     1       2.829  -1.062  -2.402  0.00  0.00    +0.038 A 
ATOM     11  N   UNL     1       4.883  -1.612  -3.551  0.00  0.00    -0.280 N 
ATOM     12  C   UNL     1       6.169  -2.010  -3.435  0.00  0.00    +0.255 C 
ATOM     13  O   UNL     1       6.786  -2.370  -4.415  0.00  0.00    -0.272 OA
ATOM     14  C   UNL     1       6.834  -2.004  -2.082  0.00  0.00    +0.325 C 
ATOM     15  O   UNL     1       6.290  -0.951  -1.283  0.00  0.00    -0.481 OA
ATOM     16  H   UNL     1       4.437  -1.633  -4.411  0.00  0.00    +0.155 HD
ENDBRANCH   3   5
ENDBRANCH   2   3
BRANCH   2  17
ATOM     17  S   UNL     1      -1.700  -0.632   0.015  0.00  0.00    -0.077 S 
BRANCH  17  18
ATOM     18  C   UNL     1      -2.335  -0.110   1.573  0.00  0.00    +0.171 A 
ATOM     19  N   UNL     1      -3.615  -0.428   1.913  0.00  0.00    -0.302 N 
ATOM     20  H   UNL     1      -4.166  -0.938   1.298  0.00  0.00    +0.171 HD
ATOM     21  C   UNL     1      -4.118  -0.037   3.102  0.00  0.00    +0.254 A 
ATOM     22  O   UNL     1      -5.264  -0.318   3.414  0.00  0.00    -0.268 OA
ATOM     23  C   UNL     1      -3.304   0.696   3.971  0.00  0.00    +0.113 A 
ATOM     24  C   UNL     1      -2.007   0.995   3.578  0.00  0.00    +0.124 A 
ATOM     25  N   UNL     1      -1.560   0.576   2.389  0.00  0.00    -0.209 NA
BRANCH  24  26
ATOM     26  N   UNL     1      -1.179   1.717   4.414  0.00  0.00    -0.343 N 
ATOM     27  H   UNL     1      -1.503   2.017   5.277  0.00  0.00    +0.144 HD
ATOM     28  H   UNL     1      -0.273   1.925   4.138  0.00  0.00    +0.144 HD
ENDBRANCH  24  26
ENDBRANCH  17  18
ENDBRANCH   2  17
TORSDOF 5
