REMARK  Name = ZINC67156009
REMARK  9 active torsions:
REMARK  status: ('A' for Active; 'I' for Inactive)
REMARK    1  A    between atoms: C_1  and  C_2
REMARK    2  A    between atoms: C_2  and  C_3
REMARK    3  A    between atoms: C_2  and  C_4
REMARK    4  A    between atoms: C_4  and  C_5
REMARK    5  A    between atoms: C_5  and  C_6
REMARK    6  A    between atoms: N_8  and  C_9
REMARK    7  A    between atoms: C_9  and  C_10
REMARK    8  A    between atoms: N_12  and  C_13
REMARK    9  A    between atoms: C_15  and  C_19
REMARK                            x       y       z     vdW  Elec       q    Type
REMARK                         _______ _______ _______ _____ _____    ______ ____
ROOT
ATOM      1  C   UNL     1      -4.417  -5.911  -0.339  0.00  0.00    +0.235 C 
ATOM      2  O   UNL     1      -3.361  -6.499  -0.432  0.00  0.00    -0.274 OA
ATOM      3  N   UNL     1      -5.576  -6.600  -0.353  0.00  0.00    -0.269 N 
ATOM      4  H   UNL     1      -6.421  -6.129  -0.278  0.00  0.00    +0.156 HD
ENDROOT
BRANCH   3   5
ATOM      5  C   UNL     1      -5.560  -7.989  -0.475  0.00  0.00    +0.121 A 
ATOM      6  C   UNL     1      -4.454  -8.771  -0.582  0.00  0.00    +0.074 A 
ATOM      7  C   UNL     1      -4.881 -10.110  -0.684  0.00  0.00    +0.101 A 
ATOM      8  N   UNL     1      -6.198 -10.123  -0.639  0.00  0.00    -0.172 NA
ATOM      9  N   UNL     1      -6.647  -8.804  -0.503  0.00  0.00    -0.263 N 
ATOM     10  H   UNL     1      -7.573  -8.520  -0.441  0.00  0.00    +0.190 HD
BRANCH   7  11
ATOM     11  C   UNL     1      -4.005 -11.293  -0.818  0.00  0.00    +0.040 A 
ATOM     12  C   UNL     1      -4.349 -12.613  -0.927  0.00  0.00    +0.019 A 
ATOM     13  C   UNL     1      -3.347 -13.552  -1.044  0.00  0.00    +0.023 A 
ATOM     14  C   UNL     1      -2.053 -13.141  -1.047  0.00  0.00    +0.056 A 
ATOM     15  S   UNL     1      -2.223 -11.371  -0.889  0.00  0.00    -0.080 S 
ATOM     16 BR   UNL     1      -0.476 -14.176  -1.190  0.00  0.00    -0.043 Br
ENDBRANCH   7  11
ENDBRANCH   3   5
BRANCH   1  17
ATOM     17  C   UNL     1      -4.435  -4.410  -0.207  0.00  0.00    +0.200 C 
BRANCH  17  20
ATOM     18  C   UNL     1      -2.829  -2.579  -0.111  0.00  0.00    +0.213 C 
ATOM     19  O   UNL     1      -3.760  -1.808  -0.006  0.00  0.00    -0.276 OA
ATOM     20  N   UNL     1      -3.060  -3.903  -0.217  0.00  0.00    -0.307 N 
ATOM     21  H   UNL     1      -2.316  -4.520  -0.301  0.00  0.00    +0.149 HD
BRANCH  18  22
ATOM     22  C   UNL     1      -1.416  -2.058  -0.121  0.00  0.00    +0.096 C 
BRANCH  22  23
ATOM     23  C   UNL     1      -1.433  -0.534   0.013  0.00  0.00    +0.012 C 
BRANCH  23  25
ATOM     24  C   UNL     1      -0.019   1.526   0.010  0.00  0.00    +0.007 C 
ATOM     25  C   UNL     1       0.002  -0.004   0.002  0.00  0.00    -0.017 C 
ATOM     26  C   UNL     1       0.742  -0.511   1.242  0.00  0.00    +0.007 C 
ENDBRANCH  23  25
ENDBRANCH  22  23
ENDBRANCH  18  22
ENDBRANCH  17  20
ENDBRANCH   1  17
TORSDOF 7
