REMARK  Name = ZINC35004415
REMARK  12 active torsions:
REMARK  status: ('A' for Active; 'I' for Inactive)
REMARK    1  A    between atoms: C_1  and  C_2
REMARK    2  A    between atoms: C_2  and  C_3
REMARK    3  A    between atoms: C_3  and  C_5
REMARK    4  A    between atoms: C_3  and  C_6
REMARK    5  A    between atoms: C_6  and  C_8
REMARK    6  A    between atoms: C_6  and  N_24
REMARK    7  A    between atoms: C_14  and  C_17
REMARK    8  A    between atoms: N_20  and  C_21
REMARK    9  A    between atoms: C_21  and  C_22
REMARK   10  A    between atoms: C_21  and  C_23
REMARK   11  A    between atoms: N_27  and  C_28
REMARK   12  A    between atoms: C_31  and  N_34
REMARK                            x       y       z     vdW  Elec       q    Type
REMARK                         _______ _______ _______ _____ _____    ______ ____
ROOT
ATOM      1  C   UNL     1       1.871   0.310  -0.850  0.00  0.00    +0.163 C 
ENDROOT
BRANCH   1   2
ATOM      2  C   UNL     1       2.552  -0.493  -1.928  0.00  0.00    +0.236 C 
ATOM      3  O   UNL     1       3.349   0.042  -2.670  0.00  0.00    -0.274 OA
ATOM      4  N   UNL     1       2.275  -1.804  -2.068  0.00  0.00    -0.297 N 
ATOM      5  C   UNL     1       1.232  -2.440  -1.251  0.00  0.00    +0.127 C 
ATOM      6  C   UNL     1       1.847  -3.638  -0.517  0.00  0.00    +0.128 C 
ATOM      7  N   UNL     1       2.582  -4.458  -1.491  0.00  0.00    -0.280 N 
ATOM      8  C   UNL     1       3.625  -3.822  -2.308  0.00  0.00    +0.092 C 
ATOM      9  C   UNL     1       3.006  -2.623  -3.045  0.00  0.00    +0.130 C 
ATOM     10  C   UNL     1       4.765  -3.346  -1.405  0.00  0.00    +0.030 C 
ATOM     11  C   UNL     1       2.305  -5.770  -1.631  0.00  0.00    +0.303 C 
ATOM     12  O   UNL     1       2.982  -6.458  -2.369  0.00  0.00    -0.253 OA
ATOM     13  N   UNL     1       1.277  -6.318  -0.953  0.00  0.00    -0.297 N 
ATOM     14  H   UNL     1       0.691  -5.755  -0.423  0.00  0.00    +0.150 HD
BRANCH  13  15
ATOM     15  C   UNL     1       1.045  -7.763  -1.017  0.00  0.00    +0.068 C 
ATOM     16  C   UNL     1       0.294  -8.214   0.237  0.00  0.00    +0.027 C 
ATOM     17  C   UNL     1       0.210  -8.091  -2.257  0.00  0.00    +0.027 C 
ENDBRANCH  13  15
ENDBRANCH   1   2
BRANCH   1  18
ATOM     18  N   UNL     1       2.446   1.657  -0.806  0.00  0.00    -0.288 N 
ATOM     19  C   UNL     1       2.523   2.319   0.365  0.00  0.00    +0.304 C 
ATOM     20  O   UNL     1       2.202   1.766   1.399  0.00  0.00    -0.252 OA
ATOM     21  N   UNL     1       2.956   3.595   0.390  0.00  0.00    -0.269 N 
ATOM     22  H   UNL     1       2.772   2.071  -1.620  0.00  0.00    +0.151 HD
ATOM     23  H   UNL     1       3.147   4.059  -0.440  0.00  0.00    +0.156 HD
BRANCH  21  24
ATOM     24  C   UNL     1       3.128   4.252   1.614  0.00  0.00    +0.035 A 
ATOM     25  C   UNL     1       2.899   5.618   1.709  0.00  0.00    +0.025 A 
ATOM     26  C   UNL     1       3.070   6.263   2.918  0.00  0.00    +0.034 A 
ATOM     27  C   UNL     1       3.469   5.550   4.034  0.00  0.00    +0.126 A 
ATOM     28  C   UNL     1       3.698   4.189   3.942  0.00  0.00    +0.034 A 
ATOM     29  C   UNL     1       3.524   3.537   2.737  0.00  0.00    +0.025 A 
BRANCH  27  30
ATOM     30  N   UNL     1       3.651   6.244   5.328  0.00  0.00    +0.056 N 
ATOM     31  O   UNL     1       3.451   7.433   5.410  0.00  0.00    -0.126 OA
ATOM     32  O   UNL     1       4.000   5.621   6.304  0.00  0.00    -0.126 OA
ENDBRANCH  27  30
ENDBRANCH  21  24
ENDBRANCH   1  18
BRANCH   1  33
ATOM     33  C   UNL     1       0.374   0.405  -1.152  0.00  0.00    +0.015 C 
ATOM     34  C   UNL     1      -0.344   1.065   0.026  0.00  0.00    +0.010 C 
BRANCH  33  36
ATOM     35  C   UNL     1       0.660   0.465  -3.634  0.00  0.00    +0.004 C 
ATOM     36  C   UNL     1       0.161   1.243  -2.414  0.00  0.00    +0.002 C 
ENDBRANCH  33  36
ENDBRANCH   1  33
TORSDOF 7
