REMARK  Name = ZINC22851922
REMARK  6 active torsions:
REMARK  status: ('A' for Active; 'I' for Inactive)
REMARK    1  A    between atoms: C_3  and  C_8
REMARK    2  A    between atoms: C_8  and  C_10
REMARK    3  A    between atoms: C_8  and  N_24
REMARK    4  A    between atoms: C_11  and  O_23
REMARK    5  A    between atoms: C_16  and  C_18
REMARK    6  A    between atoms: C_30  and  C_32
REMARK                            x       y       z     vdW  Elec       q    Type
REMARK                         _______ _______ _______ _____ _____    ______ ____
ROOT
ATOM      1  C   UNL     1      -1.263   2.001  -0.024  0.00  0.00    +0.129 C 
ENDROOT
BRANCH   1   2
ATOM      2  C   UNL     1      -1.499   2.001   1.465  0.00  0.00    +0.076 A 
ATOM      3  C   UNL     1      -2.261   1.181   2.198  0.00  0.00    +0.228 A 
ATOM      4  N   UNL     1      -2.348   1.337   3.560  0.00  0.00    -0.173 N 
ATOM      5  C   UNL     1      -1.636   2.364   4.117  0.00  0.00    +0.200 A 
ATOM      6  S   UNL     1      -0.839   3.099   2.710  0.00  0.00    -0.047 S 
ATOM      7  N   UNL     1      -1.826   2.382   5.407  0.00  0.00    -0.197 NA
ATOM      8  C   UNL     1      -2.656   1.387   5.747  0.00  0.00    +0.218 A 
ATOM      9  N   UNL     1      -3.000   0.726   4.662  0.00  0.00    -0.138 NA
BRANCH   8  10
ATOM     10  C   UNL     1      -3.112   1.081   7.119  0.00  0.00    +0.173 A 
ATOM     11  C   UNL     1      -2.763   1.757   8.245  0.00  0.00    +0.053 A 
ATOM     12  C   UNL     1      -3.424   1.128   9.318  0.00  0.00    +0.042 A 
ATOM     13  C   UNL     1      -4.137   0.109   8.800  0.00  0.00    +0.196 A 
ATOM     14  O   UNL     1      -3.951   0.087   7.470  0.00  0.00    -0.460 OA
ENDBRANCH   8  10
BRANCH   3  15
ATOM     15  O   UNL     1      -2.953   0.181   1.589  0.00  0.00    -0.492 OA
ATOM     16  H   UNL     1      -3.581  -0.496   2.187  0.00  0.00    +0.294 HD
ENDBRANCH   3  15
ENDBRANCH   1   2
BRANCH   1  17
ATOM     17  N   UNL     1      -1.321   3.380  -0.528  0.00  0.00    -0.288 NA
ATOM     18  C   UNL     1      -2.577   4.032  -0.135  0.00  0.00    +0.104 C 
ATOM     19  C   UNL     1      -2.522   5.514  -0.521  0.00  0.00    +0.123 C 
ATOM     20  N   UNL     1      -2.191   5.613  -1.951  0.00  0.00    -0.293 N 
ATOM     21  C   UNL     1      -1.021   4.872  -2.446  0.00  0.00    +0.123 C 
ATOM     22  C   UNL     1      -1.135   3.416  -1.985  0.00  0.00    +0.104 C 
ATOM     23  C   UNL     1      -2.939   6.362  -2.784  0.00  0.00    +0.282 C 
ATOM     24  O   UNL     1      -2.620   6.475  -3.953  0.00  0.00    -0.267 OA
BRANCH  23  25
ATOM     25  C   UNL     1      -4.138   7.041  -2.282  0.00  0.00    +0.189 A 
ATOM     26  C   UNL     1      -5.047   7.727  -3.036  0.00  0.00    +0.054 A 
ATOM     27  C   UNL     1      -6.025   8.208  -2.151  0.00  0.00    +0.042 A 
ATOM     28  C   UNL     1      -5.674   7.801  -0.912  0.00  0.00    +0.196 A 
ATOM     29  O   UNL     1      -4.540   7.093  -0.995  0.00  0.00    -0.458 OA
ENDBRANCH  23  25
ENDBRANCH   1  17
BRANCH   1  32
ATOM     30  C   UNL     1       1.449  -0.442  -0.988  0.00  0.00    +0.002 A 
ATOM     31  C   UNL     1       0.205   0.095  -0.713  0.00  0.00    +0.005 A 
ATOM     32  C   UNL     1       0.093   1.415  -0.318  0.00  0.00    -0.024 A 
ATOM     33  C   UNL     1       1.226   2.199  -0.199  0.00  0.00    +0.025 A 
ATOM     34  C   UNL     1       2.470   1.663  -0.475  0.00  0.00    +0.041 A 
ATOM     35  C   UNL     1       2.582   0.341  -0.870  0.00  0.00    +0.020 A 
ATOM     36 CL   UNL     1       3.893   2.647  -0.325  0.00  0.00    -0.084 Cl
ENDBRANCH   1  32
TORSDOF 6
