REMARK  Name = ZINC67548477
REMARK  9 active torsions:
REMARK  status: ('A' for Active; 'I' for Inactive)
REMARK    1  A    between atoms: C_1  and  C_2
REMARK    2  A    between atoms: N_8  and  C_9
REMARK    3  A    between atoms: C_9  and  C_11
REMARK    4  A    between atoms: C_9  and  C_12
REMARK    5  A    between atoms: C_12  and  N_13
REMARK    6  A    between atoms: C_14  and  C_16
REMARK    7  A    between atoms: C_18  and  N_26
REMARK    8  A    between atoms: C_20  and  S_22
REMARK    9  A    between atoms: S_22  and  C_25
REMARK                            x       y       z     vdW  Elec       q    Type
REMARK                         _______ _______ _______ _____ _____    ______ ____
ROOT
ATOM      1  N   UNL     1       2.681  -2.166   2.418  0.00  0.00    -0.313 N 
ATOM      2  C   UNL     1       3.111  -2.985   3.399  0.00  0.00    +0.244 C 
ATOM      3  O   UNL     1       3.672  -2.523   4.373  0.00  0.00    -0.270 OA
ATOM      4  H   UNL     1       2.233  -2.535   1.641  0.00  0.00    +0.149 HD
ENDROOT
BRANCH   2   5
ATOM      5  C   UNL     1       2.900  -4.444   3.290  0.00  0.00    +0.041 A 
ATOM      6  C   UNL     1       2.260  -4.978   2.170  0.00  0.00    +0.046 A 
ATOM      7  C   UNL     1       2.066  -6.340   2.074  0.00  0.00    +0.129 A 
ATOM      8  C   UNL     1       2.504  -7.177   3.086  0.00  0.00    +0.059 A 
ATOM      9  C   UNL     1       3.138  -6.654   4.198  0.00  0.00    +0.091 A 
ATOM     10  C   UNL     1       3.344  -5.294   4.303  0.00  0.00    +0.040 A 
BRANCH   9  11
ATOM     11  S   UNL     1       3.691  -7.729   5.481  0.00  0.00    -0.006 S 
ATOM     12  O   UNL     1       3.702  -6.921   6.650  0.00  0.00    -0.170 OA
ATOM     13  O   UNL     1       2.842  -8.865   5.393  0.00  0.00    -0.170 OA
ATOM     14  C   UNL     1       5.386  -8.177   5.015  0.00  0.00    +0.200 C 
ENDBRANCH   9  11
BRANCH   7  15
ATOM     15  N   UNL     1       1.389  -6.908   0.887  0.00  0.00    +0.057 N 
ATOM     16  O   UNL     1       1.005  -6.178   0.003  0.00  0.00    -0.126 OA
ATOM     17  O   UNL     1       1.218  -8.102   0.802  0.00  0.00    -0.126 OA
ENDBRANCH   7  15
ENDBRANCH   2   5
BRANCH   1  18
ATOM     18  C   UNL     1       2.890  -0.720   2.526  0.00  0.00    +0.089 C 
BRANCH  18  19
ATOM     19  C   UNL     1       2.166  -0.013   1.379  0.00  0.00    -0.054 C 
ATOM     20  C   UNL     1       2.542   1.470   1.375  0.00  0.00    -0.012 C 
BRANCH  19  27
ATOM     21  C   UNL     1       0.788  -2.032  -0.003  0.00  0.00    -0.013 C 
ATOM     22  C   UNL     1       0.329  -1.554   1.376  0.00  0.00    -0.071 C 
ATOM     23  C   UNL     1      -1.191  -1.688   1.482  0.00  0.00    -0.016 C 
ATOM     24  C   UNL     1      -1.645  -1.208   2.864  0.00  0.00    -0.003 C 
ATOM     25  C   UNL     1      -1.173   0.234   3.074  0.00  0.00    -0.019 C 
ATOM     26  C   UNL     1       0.346   0.296   2.909  0.00  0.00    -0.078 C 
ATOM     27  N   UNL     1       0.714  -0.149   1.559  0.00  0.00    +0.384 N 
ATOM     28  H   UNL     1       0.237   0.420   0.876  0.00  0.00    -0.081 HD
ENDBRANCH  19  27
ENDBRANCH  18  19
ENDBRANCH   1  18
TORSDOF 6
