REMARK  Name = ZINC63832735
REMARK  10 active torsions:
REMARK  status: ('A' for Active; 'I' for Inactive)
REMARK    1  A    between atoms: C_1  and  C_2
REMARK    2  A    between atoms: N_6  and  C_7
REMARK    3  A    between atoms: C_7  and  C_8
REMARK    4  A    between atoms: C_8  and  N_9
REMARK    5  A    between atoms: N_9  and  C_10
REMARK    6  A    between atoms: N_9  and  C_11
REMARK    7  A    between atoms: C_11  and  C_12
REMARK    8  A    between atoms: C_15  and  C_18
REMARK    9  A    between atoms: C_22  and  C_27
REMARK   10  A    between atoms: C_24  and  C_26
REMARK                            x       y       z     vdW  Elec       q    Type
REMARK                         _______ _______ _______ _____ _____    ______ ____
ROOT
ATOM      1  C   UNL     1      -2.774   0.814   6.301  0.00  0.00    -0.064 A 
ATOM      2  C   UNL     1      -2.781  -0.202   7.241  0.00  0.00    +0.002 A 
ATOM      3  C   UNL     1      -2.774   0.099   8.586  0.00  0.00    +0.011 A 
ATOM      4  C   UNL     1      -2.760   1.433   9.001  0.00  0.00    +0.017 A 
ATOM      5  C   UNL     1      -2.752   2.454   8.046  0.00  0.00    +0.011 A 
ATOM      6  C   UNL     1      -2.754   2.138   6.703  0.00  0.00    +0.002 A 
ENDROOT
BRANCH   4   7
ATOM      7  C   UNL     1      -2.753   1.764  10.439  0.00  0.00    +0.152 C 
ATOM      8  N   UNL     1      -2.755   0.762  11.293  0.00  0.00    -0.160 NA
ATOM      9  C   UNL     1      -2.749   0.964  12.615  0.00  0.00    +0.246 C 
ATOM     10  O   UNL     1      -2.752   0.034  13.398  0.00  0.00    -0.273 OA
ATOM     11  C   UNL     1      -2.739   2.403  13.096  0.00  0.00    +0.118 C 
ATOM     12  C   UNL     1      -2.736   3.467  12.015  0.00  0.00    +0.030 C 
ATOM     13  N   UNL     1      -2.739   3.069  10.779  0.00  0.00    -0.238 NA
ATOM     14  C   UNL     1      -2.727   4.934  12.363  0.00  0.00    +0.061 C 
ATOM     15  C   UNL     1      -3.974   2.622  13.972  0.00  0.00    +0.023 C 
ENDBRANCH   4   7
BRANCH   1  16
ATOM     16  C   UNL     1      -2.781   0.477   4.832  0.00  0.00    -0.043 C 
BRANCH  16  17
ATOM     17  N   UNL     1      -1.399   0.347   4.352  0.00  0.00    +0.382 N 
ATOM     18  C   UNL     1      -0.723   1.648   4.449  0.00  0.00    -0.096 C 
ATOM     19  H   UNL     1      -0.908  -0.330   4.918  0.00  0.00    -0.082 HD
BRANCH  17  20
ATOM     20  C   UNL     1      -1.406  -0.098   2.953  0.00  0.00    -0.057 C 
BRANCH  20  21
ATOM     21  C   UNL     1       0.030  -0.353   2.491  0.00  0.00    +0.104 C 
BRANCH  21  27
ATOM     22  C   UNL     1      -0.018   1.503   0.010  0.00  0.00    +0.084 C 
ATOM     23  C   UNL     1       0.002  -0.004   0.002  0.00  0.00    +0.084 A 
ATOM     24  N   UNL     1       0.008  -0.759  -1.063  0.00  0.00    -0.350 N 
ATOM     25  C   UNL     1       0.028  -2.047  -0.691  0.00  0.00    +0.101 A 
ATOM     26  C   UNL     1       0.034  -2.093   0.655  0.00  0.00    +0.104 A 
ATOM     27  N   UNL     1       0.023  -0.797   1.095  0.00  0.00    -0.338 N 
ATOM     28  H   UNL     1      -0.000  -0.438  -1.978  0.00  0.00    +0.166 HD
ENDBRANCH  21  27
ENDBRANCH  20  21
ENDBRANCH  17  20
ENDBRANCH  16  17
ENDBRANCH   1  16
TORSDOF 6
