REMARK  Name = ZINC36372827
REMARK  13 active torsions:
REMARK  status: ('A' for Active; 'I' for Inactive)
REMARK    1  A    between atoms: C_1  and  C_2
REMARK    2  A    between atoms: C_2  and  C_4
REMARK    3  A    between atoms: C_2  and  C_10
REMARK    4  A    between atoms: C_4  and  C_5
REMARK    5  A    between atoms: C_5  and  C_6
REMARK    6  A    between atoms: C_6  and  C_7
REMARK    7  A    between atoms: C_7  and  C_8
REMARK    8  A    between atoms: C_7  and  C_9
REMARK    9  A    between atoms: C_16  and  C_43
REMARK   10  A    between atoms: C_26  and  C_42
REMARK   11  A    between atoms: C_29  and  O_32
REMARK   12  A    between atoms: O_32  and  C_33
REMARK   13  A    between atoms: N_35  and  C_36
REMARK                            x       y       z     vdW  Elec       q    Type
REMARK                         _______ _______ _______ _____ _____    ______ ____
ROOT
ATOM      1  C   UNL     1      -1.392  -0.608   0.172  0.00  0.00    -0.002 C 
ATOM      2  C   UNL     1      -1.453  -2.137   0.424  0.00  0.00    +0.004 C 
ATOM      3  C   UNL     1      -2.397  -2.342   1.645  0.00  0.00    +0.004 C 
ATOM      4  C   UNL     1      -3.167  -1.010   1.679  0.00  0.00    -0.001 C 
ATOM      5  C   UNL     1      -2.022  -0.000   1.447  0.00  0.00    -0.026 C 
ATOM      6  C   UNL     1      -2.576   1.388   1.277  0.00  0.00    +0.007 C 
ATOM      7  C   UNL     1      -3.626   1.717   2.344  0.00  0.00    +0.005 C 
ATOM      8  C   UNL     1      -3.694   0.683   3.454  0.00  0.00    +0.003 C 
ATOM      9  C   UNL     1      -3.970  -0.719   2.906  0.00  0.00    +0.000 C 
ATOM     10  C   UNL     1      -3.709  -1.718   4.040  0.00  0.00    +0.031 C 
ATOM     11  C   UNL     1      -4.603  -1.343   5.192  0.00  0.00    -0.027 C 
ATOM     12  C   UNL     1      -5.080  -0.150   5.369  0.00  0.00    -0.064 C 
ATOM     13  C   UNL     1      -4.769   1.030   4.482  0.00  0.00    -0.008 C 
ATOM     14  C   UNL     1      -6.063   1.504   3.833  0.00  0.00    +0.015 C 
ATOM     15  C   UNL     1      -7.264   0.817   4.482  0.00  0.00    +0.046 C 
ATOM     16  C   UNL     1      -7.219   0.885   6.004  0.00  0.00    +0.182 C 
ATOM     17  C   UNL     1      -6.010   0.112   6.541  0.00  0.00    +0.075 C 
ATOM     18  C   UNL     1      -4.216   2.160   5.358  0.00  0.00    +0.016 C 
ATOM     19  C   UNL     1      -0.947  -0.047   2.532  0.00  0.00    +0.012 C 
ENDROOT
BRANCH   1  21
ATOM     20  C   UNL     1       0.090   1.366  -0.194  0.00  0.00    +0.008 C 
ATOM     21  C   UNL     1       0.057  -0.145   0.041  0.00  0.00    -0.010 C 
BRANCH  21  22
ATOM     22  C   UNL     1       0.715  -0.859  -1.141  0.00  0.00    +0.003 C 
BRANCH  22  23
ATOM     23  C   UNL     1       2.199  -0.490  -1.197  0.00  0.00    +0.001 C 
BRANCH  23  24
ATOM     24  C   UNL     1       2.858  -1.205  -2.379  0.00  0.00    +0.003 C 
BRANCH  24  25
ATOM     25  C   UNL     1       4.342  -0.836  -2.435  0.00  0.00    -0.017 C 
ATOM     26  C   UNL     1       5.049  -1.376  -1.191  0.00  0.00    +0.007 C 
ATOM     27  C   UNL     1       4.973  -1.449  -3.687  0.00  0.00    +0.007 C 
ENDBRANCH  24  25
ENDBRANCH  23  24
ENDBRANCH  22  23
ENDBRANCH  21  22
ENDBRANCH   1  21
BRANCH  16  28
ATOM     28  O   UNL     1      -7.158   2.245   6.430  0.00  0.00    -0.447 OA
BRANCH  28  29
ATOM     29  C   UNL     1      -7.715   2.538   7.621  0.00  0.00    +0.405 C 
ATOM     30  O   UNL     1      -8.239   1.661   8.279  0.00  0.00    -0.226 OA
ATOM     31  N   UNL     1      -7.692   3.804   8.082  0.00  0.00    -0.251 N 
ATOM     32  H   UNL     1      -7.218   4.492   7.589  0.00  0.00    +0.158 HD
BRANCH  31  33
ATOM     33  C   UNL     1      -8.351   4.127   9.274  0.00  0.00    +0.036 A 
ATOM     34  C   UNL     1      -8.981   5.357   9.410  0.00  0.00    +0.023 A 
ATOM     35  C   UNL     1      -9.631   5.672  10.587  0.00  0.00    +0.002 A 
ATOM     36  C   UNL     1      -9.655   4.764  11.629  0.00  0.00    +0.000 A 
ATOM     37  C   UNL     1      -9.030   3.538  11.497  0.00  0.00    +0.002 A 
ATOM     38  C   UNL     1      -8.383   3.215  10.321  0.00  0.00    +0.023 A 
ENDBRANCH  31  33
ENDBRANCH  28  29
ENDBRANCH  16  28
TORSDOF 8
