REMARK  Name = ZINC11599159
REMARK  7 active torsions:
REMARK  status: ('A' for Active; 'I' for Inactive)
REMARK    1  A    between atoms: C_3  and  C_6
REMARK    2  A    between atoms: C_6  and  C_8
REMARK    3  A    between atoms: C_6  and  N_62
REMARK    4  A    between atoms: C_8  and  N_9
REMARK    5  A    between atoms: C_10  and  C_12
REMARK    6  A    between atoms: C_12  and  C_13
REMARK    7  A    between atoms: C_13  and  C_14
REMARK                            x       y       z     vdW  Elec       q    Type
REMARK                         _______ _______ _______ _____ _____    ______ ____
ROOT
ATOM      1  N   UNL     1      -0.245   0.863  -2.493  0.00  0.00    -0.316 N 
ATOM      2  C   UNL     1      -0.771   0.813  -1.254  0.00  0.00    +0.213 C 
ATOM      3  O   UNL     1      -1.830   1.357  -1.022  0.00  0.00    -0.276 OA
ATOM      4  H   UNL     1       0.602   0.427  -2.679  0.00  0.00    +0.149 HD
ENDROOT
BRANCH   1   5
ATOM      5  C   UNL     1      -0.953   1.573  -3.562  0.00  0.00    +0.096 C 
BRANCH   5   6
ATOM      6  C   UNL     1      -0.213   1.370  -4.886  0.00  0.00    +0.016 C 
BRANCH   6  12
ATOM      7  C   UNL     1       1.298   3.172  -4.313  0.00  0.00    -0.078 C 
ATOM      8  C   UNL     1       2.762   3.509  -4.018  0.00  0.00    -0.019 C 
ATOM      9  C   UNL     1       3.600   3.264  -5.275  0.00  0.00    -0.004 C 
ATOM     10  C   UNL     1       3.434   1.806  -5.714  0.00  0.00    -0.019 C 
ATOM     11  C   UNL     1       1.951   1.519  -5.960  0.00  0.00    -0.078 C 
ATOM     12  N   UNL     1       1.203   1.750  -4.706  0.00  0.00    +0.387 N 
ATOM     13  H   UNL     1       1.612   1.171  -3.963  0.00  0.00    -0.081 HD
ENDBRANCH   6  12
BRANCH   6  16
ATOM     14  C   UNL     1      -0.851  -1.996  -6.244  0.00  0.00    +0.041 A 
ATOM     15  C   UNL     1      -1.130  -0.611  -6.184  0.00  0.00    +0.043 A 
ATOM     16  C   UNL     1      -0.283  -0.082  -5.283  0.00  0.00    +0.093 A 
ATOM     17  O   UNL     1       0.493  -1.066  -4.801  0.00  0.00    -0.469 OA
ATOM     18  C   UNL     1       0.149  -2.230  -5.376  0.00  0.00    +0.195 A 
ENDBRANCH   6  16
ENDBRANCH   5   6
ENDBRANCH   1   5
BRANCH   2  19
ATOM     19  C   UNL     1      -0.043   0.082  -0.155  0.00  0.00    +0.103 C 
BRANCH  19  20
ATOM     20  C   UNL     1      -0.849   0.178   1.142  0.00  0.00    +0.083 C 
BRANCH  20  21
ATOM     21  C   UNL     1      -0.122  -0.553   2.241  0.00  0.00    +0.111 A 
ATOM     22  N   UNL     1      -0.662  -0.595   3.486  0.00  0.00    -0.310 N 
ATOM     23  H   UNL     1      -1.510  -0.153   3.651  0.00  0.00    +0.170 HD
ATOM     24  C   UNL     1      -0.046  -1.237   4.496  0.00  0.00    +0.260 A 
ATOM     25  O   UNL     1      -0.544  -1.265   5.608  0.00  0.00    -0.267 OA
ATOM     26  C   UNL     1       1.206  -1.886   4.242  0.00  0.00    +0.075 A 
ATOM     27  C   UNL     1       2.047  -2.635   5.175  0.00  0.00    -0.023 A 
ATOM     28  C   UNL     1       3.192  -3.155   4.686  0.00  0.00    -0.004 A 
ATOM     29  S   UNL     1       3.216  -2.685   2.977  0.00  0.00    -0.073 S 
ATOM     30  C   UNL     1       1.685  -1.789   2.925  0.00  0.00    +0.116 A 
ATOM     31  N   UNL     1       1.015  -1.139   1.977  0.00  0.00    -0.227 NA
ATOM     32  C   UNL     1       4.216  -3.955   5.430  0.00  0.00    +0.043 C 
ATOM     33  C   UNL     1       3.960  -3.789   6.935  0.00  0.00    +0.005 C 
ATOM     34  C   UNL     1       2.468  -4.002   7.206  0.00  0.00    +0.005 C 
ATOM     35  C   UNL     1       1.665  -2.830   6.640  0.00  0.00    +0.037 C 
ENDBRANCH  20  21
ENDBRANCH  19  20
ENDBRANCH   2  19
TORSDOF 7
