REMARK  Name = ZINC44783914
REMARK  4 active torsions:
REMARK  status: ('A' for Active; 'I' for Inactive)
REMARK    1  A    between atoms: C_2  and  N_10
REMARK    2  A    between atoms: C_11  and  C_13
REMARK    3  A    between atoms: C_13  and  C_18
REMARK    4  A    between atoms: N_19  and  O_20
REMARK                            x       y       z     vdW  Elec       q    Type
REMARK                         _______ _______ _______ _____ _____    ______ ____
ROOT
ATOM      1  N   UNL     1       1.491   3.764   0.327  0.00  0.00    -0.283 N 
ATOM      2  C   UNL     1       0.239   4.188   0.065  0.00  0.00    +0.231 C 
ATOM      3  O   UNL     1      -0.676   3.392   0.032  0.00  0.00    -0.274 OA
ATOM      4  H   UNL     1       2.207   4.409   0.446  0.00  0.00    +0.155 HD
ENDROOT
BRANCH   1   6
ATOM      5  C   UNL     1       0.772   1.521   0.862  0.00  0.00    +0.046 A 
ATOM      6  C   UNL     1       1.760   2.393   0.428  0.00  0.00    +0.053 A 
ATOM      7  C   UNL     1       3.017   1.904   0.093  0.00  0.00    +0.064 A 
ATOM      8  C   UNL     1       3.280   0.551   0.192  0.00  0.00    +0.043 A 
ATOM      9  C   UNL     1       2.293  -0.317   0.625  0.00  0.00    +0.061 A 
ATOM     10  C   UNL     1       1.039   0.169   0.960  0.00  0.00    +0.061 A 
ATOM     11 CL   UNL     1      -0.196  -0.923   1.504  0.00  0.00    -0.082 Cl
ATOM     12 CL   UNL     1       2.626  -2.016   0.748  0.00  0.00    -0.082 Cl
ATOM     13 CL   UNL     1       4.256   2.992  -0.452  0.00  0.00    -0.082 Cl
ENDBRANCH   1   6
BRANCH   2  14
ATOM     14  C   UNL     1      -0.025   5.650  -0.186  0.00  0.00    +0.105 C 
ATOM     15  C   UNL     1       0.493   6.489   0.995  0.00  0.00    +0.024 C 
ATOM     16  C   UNL     1      -0.729   7.226   1.582  0.00  0.00    +0.001 C 
ATOM     17  C   UNL     1      -1.937   6.357   1.153  0.00  0.00    +0.001 C 
ATOM     18  C   UNL     1      -1.543   5.905  -0.275  0.00  0.00    +0.024 C 
BRANCH  14  19
ATOM     19  C   UNL     1       0.648   6.083  -1.463  0.00  0.00    +0.147 C 
ATOM     20  N   UNL     1       0.630   7.327  -1.813  0.00  0.00    -0.076 NA
ATOM     21  N   UNL     1       1.281   5.154  -2.258  0.00  0.00    -0.343 N 
ATOM     22  H   UNL     1       1.212   4.209  -2.048  0.00  0.00    +0.144 HD
ATOM     23  H   UNL     1       1.796   5.444  -3.027  0.00  0.00    +0.144 HD
BRANCH  20  24
ATOM     24  O   UNL     1       0.109   8.303  -0.929  0.00  0.00    -0.408 OA
ATOM     25  H   UNL     1       0.138   9.205  -1.278  0.00  0.00    +0.328 HD
ENDBRANCH  20  24
ENDBRANCH  14  19
ENDBRANCH   2  14
TORSDOF 4
