REMARK  Name = ZINC39684960
REMARK  9 active torsions:
REMARK  status: ('A' for Active; 'I' for Inactive)
REMARK    1  A    between atoms: C_1  and  C_2
REMARK    2  A    between atoms: C_2  and  C_3
REMARK    3  A    between atoms: C_3  and  C_5
REMARK    4  A    between atoms: C_3  and  C_6
REMARK    5  A    between atoms: C_6  and  C_7
REMARK    6  A    between atoms: C_11  and  C_20
REMARK    7  A    between atoms: N_22  and  C_23
REMARK    8  A    between atoms: C_23  and  C_24
REMARK    9  A    between atoms: C_27  and  C_30
REMARK                            x       y       z     vdW  Elec       q    Type
REMARK                         _______ _______ _______ _____ _____    ______ ____
ROOT
ATOM      1  C   UNL     1       1.779  -2.509  -2.498  0.00  0.00    +0.216 C 
ATOM      2  O   UNL     1       2.176  -1.736  -3.344  0.00  0.00    -0.276 OA
ATOM      3  N   UNL     1       1.977  -3.833  -2.648  0.00  0.00    -0.300 N 
ATOM      4  C   UNL     1       1.562  -4.924  -1.734  0.00  0.00    +0.121 C 
ATOM      5  C   UNL     1       1.094  -6.061  -2.670  0.00  0.00    +0.100 C 
ATOM      6  C   UNL     1       1.819  -5.797  -4.000  0.00  0.00    -0.004 C 
ATOM      7  C   UNL     1       2.654  -4.529  -3.769  0.00  0.00    +0.115 C 
ATOM      8  C   UNL     1       0.806  -5.558  -5.115  0.00  0.00    -0.010 C 
ATOM      9  C   UNL     1       1.549  -5.355  -6.439  0.00  0.00    -0.082 C 
ATOM     10  N   UNL     1       2.360  -6.543  -6.734  0.00  0.00    +0.379 N 
ATOM     11  C   UNL     1       3.393  -6.712  -5.704  0.00  0.00    -0.082 C 
ATOM     12  C   UNL     1       2.727  -6.972  -4.349  0.00  0.00    -0.010 C 
ATOM     13  H   UNL     1       1.767  -7.358  -6.750  0.00  0.00    -0.086 HD
ATOM     14  H   UNL     1       2.801  -6.432  -7.635  0.00  0.00    -0.086 HD
ENDROOT
BRANCH   5  15
ATOM     15  C   UNL     1       1.495  -7.401  -2.108  0.00  0.00    +0.218 C 
ATOM     16  O   UNL     1       2.500  -7.501  -1.438  0.00  0.00    -0.275 OA
ATOM     17  N   UNL     1       0.735  -8.487  -2.350  0.00  0.00    -0.311 N 
ATOM     18  H   UNL     1      -0.070  -8.407  -2.886  0.00  0.00    +0.149 HD
BRANCH  17  19
ATOM     19  C   UNL     1       1.124  -9.790  -1.804  0.00  0.00    +0.139 C 
BRANCH  19  20
ATOM     20  C   UNL     1       0.115 -10.830  -2.217  0.00  0.00    -0.030 A 
ATOM     21  C   UNL     1      -0.988 -11.076  -1.418  0.00  0.00    +0.006 A 
ATOM     22  C   UNL     1      -1.915 -12.026  -1.790  0.00  0.00    +0.019 A 
ATOM     23  C   UNL     1      -1.740 -12.740  -2.977  0.00  0.00    +0.052 A 
ATOM     24  C   UNL     1      -0.626 -12.487  -3.780  0.00  0.00    +0.019 A 
ATOM     25  C   UNL     1       0.291 -11.530  -3.397  0.00  0.00    +0.006 A 
BRANCH  23  26
ATOM     26  C   UNL     1      -2.699 -13.729  -3.370  0.00  0.00    +0.099 C 
ATOM     27  N   UNL     1      -3.460 -14.513  -3.681  0.00  0.00    -0.191 NA
ENDBRANCH  23  26
ENDBRANCH  19  20
ENDBRANCH  17  19
ENDBRANCH   5  15
BRANCH   1  28
ATOM     28  C   UNL     1       1.063  -1.988  -1.278  0.00  0.00    +0.099 C 
BRANCH  28  29
ATOM     29  C   UNL     1       0.971  -0.463  -1.353  0.00  0.00    -0.006 C 
ATOM     30  C   UNL     1       0.092  -0.062  -2.540  0.00  0.00    +0.008 C 
BRANCH  29  32
ATOM     31  C   UNL     1       0.379   1.606  -0.083  0.00  0.00    +0.004 C 
ATOM     32  C   UNL     1       0.357   0.076  -0.060  0.00  0.00    +0.000 C 
ENDBRANCH  29  32
ENDBRANCH  28  29
ENDBRANCH   1  28
TORSDOF 7
