REMARK  Name = ZINC45063879
REMARK  4 active torsions:
REMARK  status: ('A' for Active; 'I' for Inactive)
REMARK    1  A    between atoms: C_1  and  C_2
REMARK    2  A    between atoms: C_6  and  C_9
REMARK    3  A    between atoms: C_7  and  N_8
REMARK    4  A    between atoms: C_15  and  C_17
REMARK                            x       y       z     vdW  Elec       q    Type
REMARK                         _______ _______ _______ _____ _____    ______ ____
ROOT
ATOM      1  C   UNL     1       0.215  -2.901   2.303  0.00  0.00    +0.249 C 
ATOM      2  O   UNL     1       0.321  -2.147   3.251  0.00  0.00    -0.270 OA
ATOM      3  N   UNL     1       0.028  -4.219   2.507  0.00  0.00    -0.294 N 
ATOM      4  C   UNL     1      -0.013  -5.255   1.459  0.00  0.00    +0.108 C 
ATOM      5  C   UNL     1      -0.835  -6.413   2.077  0.00  0.00    +0.021 C 
ATOM      6  C   UNL     1      -0.368  -6.373   3.555  0.00  0.00    +0.024 C 
ATOM      7  C   UNL     1      -0.164  -4.865   3.814  0.00  0.00    +0.079 C 
ENDROOT
BRANCH   1  13
ATOM      8  C   UNL     1      -1.012   0.577  -1.079  0.00  0.00    +0.045 C 
ATOM      9  C   UNL     1      -0.297  -0.697  -0.708  0.00  0.00    -0.029 A 
ATOM     10  C   UNL     1       0.436  -1.378  -1.658  0.00  0.00    +0.005 A 
ATOM     11  C   UNL     1       1.098  -2.550  -1.327  0.00  0.00    +0.001 A 
ATOM     12  C   UNL     1       1.030  -3.049  -0.045  0.00  0.00    +0.015 A 
ATOM     13  C   UNL     1       0.292  -2.372   0.929  0.00  0.00    +0.058 A 
ATOM     14  C   UNL     1      -0.372  -1.181   0.592  0.00  0.00    +0.040 A 
BRANCH  14  15
ATOM     15  N   UNL     1      -1.104  -0.495   1.552  0.00  0.00    -0.357 N 
ATOM     16  H   UNL     1      -1.610   0.294   1.303  0.00  0.00    +0.142 HD
ATOM     17  H   UNL     1      -1.110  -0.805   2.471  0.00  0.00    +0.142 HD
ENDBRANCH  14  15
ENDBRANCH   1  13
BRANCH   7  18
ATOM     18  C   UNL     1       1.073  -4.646   4.689  0.00  0.00    +0.010 C 
ATOM     19  C   UNL     1       2.316  -5.254   4.007  0.00  0.00    +0.005 C 
ATOM     20  C   UNL     1       3.144  -5.839   5.178  0.00  0.00    +0.000 C 
ATOM     21  C   UNL     1       2.052  -6.407   6.119  0.00  0.00    +0.000 C 
ATOM     22  C   UNL     1       0.905  -5.379   6.031  0.00  0.00    +0.005 C 
ENDBRANCH   7  18
TORSDOF 3
