REMARK  Name = ZINC35406212
REMARK  16 active torsions:
REMARK  status: ('A' for Active; 'I' for Inactive)
REMARK    1  A    between atoms: C_1  and  C_2
REMARK    2  A    between atoms: C_4  and  C_8
REMARK    3  A    between atoms: C_5  and  C_7
REMARK    4  A    between atoms: N_10  and  C_11
REMARK    5  A    between atoms: N_10  and  C_29
REMARK    6  A    between atoms: C_11  and  C_12
REMARK    7  A    between atoms: C_12  and  C_13
REMARK    8  A    between atoms: N_15  and  C_16
REMARK    9  A    between atoms: N_15  and  C_17
REMARK   10  A    between atoms: C_17  and  C_18
REMARK   11  A    between atoms: C_18  and  C_19
REMARK   12  A    between atoms: C_22  and  O_27
REMARK   13  A    between atoms: C_23  and  O_25
REMARK   14  A    between atoms: O_25  and  C_26
REMARK   15  A    between atoms: O_27  and  C_28
REMARK   16  A    between atoms: C_29  and  C_30
REMARK                            x       y       z     vdW  Elec       q    Type
REMARK                         _______ _______ _______ _____ _____    ______ ____
ROOT
ATOM      1  C   UNL     1      -3.500  -4.588  -0.108  0.00  0.00    +0.118 C 
ENDROOT
BRANCH   1   4
ATOM      2  C   UNL     1      -1.364  -3.418  -0.014  0.00  0.00    +0.250 C 
ATOM      3  O   UNL     1      -0.714  -2.397   0.093  0.00  0.00    -0.270 OA
ATOM      4  N   UNL     1      -2.707  -3.356  -0.107  0.00  0.00    -0.290 N 
BRANCH   2   8
ATOM      5  C   UNL     1       0.175  -8.081  -1.400  0.00  0.00    +0.086 C 
ATOM      6  C   UNL     1      -0.017  -6.777  -0.669  0.00  0.00    +0.103 A 
ATOM      7  C   UNL     1      -0.823  -5.778  -1.060  0.00  0.00    +0.057 A 
ATOM      8  C   UNL     1      -0.684  -4.725  -0.042  0.00  0.00    +0.078 A 
ATOM      9  C   UNL     1       0.207  -5.212   0.870  0.00  0.00    +0.114 A 
ATOM     10  O   UNL     1       0.585  -6.433   0.480  0.00  0.00    -0.464 OA
ATOM     11  C   UNL     1       0.679  -4.496   2.109  0.00  0.00    +0.087 C 
ENDBRANCH   2   8
BRANCH   4  12
ATOM     12  C   UNL     1      -3.375  -2.056  -0.206  0.00  0.00    +0.182 C 
BRANCH  12  13
ATOM     13  C   UNL     1      -3.616  -1.725  -1.657  0.00  0.00    +0.122 A 
ATOM     14  C   UNL     1      -4.716  -2.043  -2.363  0.00  0.00    +0.046 A 
ATOM     15  C   UNL     1      -4.521  -1.543  -3.671  0.00  0.00    +0.041 A 
ATOM     16  C   UNL     1      -3.313  -0.950  -3.686  0.00  0.00    +0.195 A 
ATOM     17  O   UNL     1      -2.773  -1.058  -2.461  0.00  0.00    -0.466 OA
ENDBRANCH  12  13
ENDBRANCH   4  12
ENDBRANCH   1   4
BRANCH   1  18
ATOM     18  C   UNL     1      -3.872  -4.956   1.330  0.00  0.00    +0.115 C 
BRANCH  18  19
ATOM     19  C   UNL     1      -4.687  -6.224   1.329  0.00  0.00    +0.217 C 
ATOM     20  O   UNL     1      -4.945  -6.778   0.281  0.00  0.00    -0.276 OA
ATOM     21  N   UNL     1      -5.130  -6.741   2.492  0.00  0.00    -0.304 N 
ATOM     22  C   UNL     1      -4.818  -6.072   3.757  0.00  0.00    +0.132 C 
BRANCH  21  23
ATOM     23  C   UNL     1      -5.922  -7.973   2.491  0.00  0.00    +0.112 C 
BRANCH  23  24
ATOM     24  C   UNL     1      -4.988  -9.180   2.605  0.00  0.00    +0.054 C 
BRANCH  24  25
ATOM     25  C   UNL     1      -5.804 -10.448   2.604  0.00  0.00    -0.042 A 
ATOM     26  C   UNL     1      -6.262 -10.974   3.797  0.00  0.00    +0.007 A 
ATOM     27  C   UNL     1      -7.010 -12.137   3.802  0.00  0.00    +0.049 A 
ATOM     28  C   UNL     1      -7.302 -12.777   2.608  0.00  0.00    +0.161 A 
ATOM     29  C   UNL     1      -6.842 -12.246   1.407  0.00  0.00    +0.162 A 
ATOM     30  C   UNL     1      -6.096 -11.078   1.409  0.00  0.00    +0.053 A 
BRANCH  29  31
ATOM     31  O   UNL     1      -7.126 -12.871   0.233  0.00  0.00    -0.491 OA
ATOM     32  C   UNL     1      -6.621 -12.270  -0.961  0.00  0.00    +0.277 C 
ENDBRANCH  29  31
BRANCH  28  33
ATOM     33  O   UNL     1      -8.038 -13.921   2.611  0.00  0.00    -0.491 OA
ATOM     34  C   UNL     1      -8.477 -14.407   3.881  0.00  0.00    +0.277 C 
ENDBRANCH  28  33
ENDBRANCH  24  25
ENDBRANCH  23  24
ENDBRANCH  21  23
ENDBRANCH  18  19
ENDBRANCH   1  18
TORSDOF 11
