REMARK  Name = ZINC39623401
REMARK  8 active torsions:
REMARK  status: ('A' for Active; 'I' for Inactive)
REMARK    1  A    between atoms: C_1  and  C_2
REMARK    2  A    between atoms: C_2  and  C_3
REMARK    3  A    between atoms: C_3  and  C_4
REMARK    4  A    between atoms: C_4  and  C_5
REMARK    5  A    between atoms: C_5  and  N_6
REMARK    6  A    between atoms: C_7  and  C_9
REMARK    7  A    between atoms: C_20  and  C_22
REMARK    8  A    between atoms: C_22  and  C_28
REMARK                            x       y       z     vdW  Elec       q    Type
REMARK                         _______ _______ _______ _____ _____    ______ ____
ROOT
ATOM      1  C   UNL     1      -3.657  -6.776   0.020  0.00  0.00    +0.100 C 
ATOM      2  C   UNL     1      -2.935  -7.010   1.365  0.00  0.00    +0.121 C 
ATOM      3  N   UNL     1      -4.025  -7.262   2.337  0.00  0.00    -0.300 N 
ATOM      4  C   UNL     1      -5.001  -8.090   1.590  0.00  0.00    +0.115 C 
ATOM      5  C   UNL     1      -5.012  -7.489   0.170  0.00  0.00    -0.004 C 
ATOM      6  C   UNL     1      -6.154  -6.487   0.031  0.00  0.00    -0.010 C 
ATOM      7  C   UNL     1      -7.491  -7.229   0.127  0.00  0.00    -0.082 C 
ATOM      8  N   UNL     1      -7.569  -8.241  -0.934  0.00  0.00    +0.379 N 
ATOM      9  C   UNL     1      -6.522  -9.252  -0.739  0.00  0.00    -0.082 C 
ATOM     10  C   UNL     1      -5.145  -8.596  -0.871  0.00  0.00    -0.010 C 
ATOM     11  C   UNL     1      -4.109  -6.835   3.613  0.00  0.00    +0.222 C 
ATOM     12  O   UNL     1      -3.260  -6.094   4.062  0.00  0.00    -0.275 OA
ATOM     13  H   UNL     1      -8.474  -8.685  -0.907  0.00  0.00    -0.086 HD
ATOM     14  H   UNL     1      -7.442  -7.796  -1.831  0.00  0.00    -0.086 HD
ENDROOT
BRANCH  11  15
ATOM     15  C   UNL     1      -5.258  -7.278   4.481  0.00  0.00    +0.044 C 
ATOM     16  C   UNL     1      -6.562  -6.684   3.943  0.00  0.00    +0.016 C 
ATOM     17  C   UNL     1      -6.471  -5.157   3.958  0.00  0.00    +0.001 C 
ATOM     18  C   UNL     1      -6.244  -4.673   5.391  0.00  0.00    +0.000 C 
ATOM     19  C   UNL     1      -4.940  -5.266   5.929  0.00  0.00    +0.001 C 
ATOM     20  C   UNL     1      -5.031  -6.794   5.915  0.00  0.00    +0.016 C 
ATOM     21  C   UNL     1      -5.349  -8.805   4.467  0.00  0.00    +0.021 C 
ENDBRANCH  11  15
BRANCH   1  23
ATOM     22  N   UNL     1      -3.907  -4.820  -1.473  0.00  0.00    -0.315 N 
ATOM     23  C   UNL     1      -3.864  -5.302  -0.215  0.00  0.00    +0.218 C 
ATOM     24  O   UNL     1      -3.990  -4.549   0.728  0.00  0.00    -0.275 OA
ATOM     25  H   UNL     1      -3.806  -5.422  -2.227  0.00  0.00    +0.149 HD
BRANCH  22  26
ATOM     26  C   UNL     1      -4.108  -3.387  -1.702  0.00  0.00    +0.104 C 
BRANCH  26  27
ATOM     27  C   UNL     1      -4.117  -3.107  -3.206  0.00  0.00    +0.019 C 
BRANCH  27  28
ATOM     28  C   UNL     1      -4.327  -1.610  -3.444  0.00  0.00    +0.001 C 
BRANCH  28  30
ATOM     29  C   UNL     1      -4.546   0.167  -5.187  0.00  0.00    +0.004 C 
ATOM     30  C   UNL     1      -4.336  -1.330  -4.949  0.00  0.00    -0.003 C 
ENDBRANCH  28  30
ENDBRANCH  27  28
ENDBRANCH  26  27
ENDBRANCH  22  26
ENDBRANCH   1  23
TORSDOF 6
