REMARK  Name = ZINC06300954
REMARK  8 active torsions:
REMARK  status: ('A' for Active; 'I' for Inactive)
REMARK    1  A    between atoms: C_1  and  C_2
REMARK    2  A    between atoms: C_4  and  C_38
REMARK    3  A    between atoms: C_9  and  C_14
REMARK    4  A    between atoms: C_14  and  C_16
REMARK    5  A    between atoms: C_14  and  N_73
REMARK    6  A    between atoms: N_20  and  C_21
REMARK    7  A    between atoms: C_28  and  C_31
REMARK    8  A    between atoms: C_31  and  C_32
REMARK                            x       y       z     vdW  Elec       q    Type
REMARK                         _______ _______ _______ _____ _____    ______ ____
ROOT
ATOM      1  C   UNL     1      -2.604   3.705   0.050  0.00  0.00    +0.039 C 
ENDROOT
BRANCH   1  10
ATOM      2  C   UNL     1       1.869  -1.129   3.550  0.00  0.00    +0.044 C 
ATOM      3  C   UNL     1       1.558  -0.240   2.373  0.00  0.00    -0.050 A 
ATOM      4  C   UNL     1       2.453  -0.164   1.313  0.00  0.00    +0.008 A 
ATOM      5  C   UNL     1       2.189   0.642   0.227  0.00  0.00    -0.026 A 
ATOM      6  C   UNL     1       1.016   1.388   0.190  0.00  0.00    +0.052 A 
ATOM      7  C   UNL     1       0.112   1.309   1.265  0.00  0.00    -0.001 A 
ATOM      8  C   UNL     1       0.400   0.483   2.358  0.00  0.00    +0.013 A 
ATOM      9  C   UNL     1      -1.120   2.098   1.217  0.00  0.00    +0.017 A 
ATOM     10  C   UNL     1      -1.346   2.881   0.132  0.00  0.00    +0.011 A 
ATOM     11  C   UNL     1      -0.403   2.930  -0.917  0.00  0.00    +0.251 A 
ATOM     12  O   UNL     1      -0.622   3.645  -1.879  0.00  0.00    -0.268 OA
ATOM     13  N   UNL     1       0.728   2.204  -0.884  0.00  0.00    -0.322 N 
ATOM     14  H   UNL     1       1.352   2.258  -1.624  0.00  0.00    +0.169 HD
ATOM     15  C   UNL     1       3.169   0.715  -0.916  0.00  0.00    +0.046 C 
ENDBRANCH   1  10
BRANCH   1  21
ATOM     16  C   UNL     1      -3.595   1.867  -1.174  0.00  0.00    -0.077 C 
ATOM     17  C   UNL     1      -4.262   1.481  -2.496  0.00  0.00    -0.015 C 
ATOM     18  C   UNL     1      -5.592   2.228  -2.628  0.00  0.00    -0.010 C 
ATOM     19  C   UNL     1      -5.333   3.735  -2.545  0.00  0.00    -0.015 C 
ATOM     20  C   UNL     1      -4.635   4.055  -1.221  0.00  0.00    -0.077 C 
ATOM     21  N   UNL     1      -3.350   3.325  -1.167  0.00  0.00    +0.389 N 
ATOM     22  H   UNL     1      -2.791   3.573  -1.992  0.00  0.00    -0.080 HD
BRANCH  18  23
ATOM     23  C   UNL     1      -6.235   1.894  -3.975  0.00  0.00    +0.038 C 
BRANCH  23  24
ATOM     24  C   UNL     1      -6.602   0.433  -4.008  0.00  0.00    -0.047 A 
ATOM     25  C   UNL     1      -5.694  -0.498  -4.478  0.00  0.00    +0.003 A 
ATOM     26  C   UNL     1      -6.029  -1.839  -4.504  0.00  0.00    +0.000 A 
ATOM     27  C   UNL     1      -7.276  -2.248  -4.069  0.00  0.00    +0.000 A 
ATOM     28  C   UNL     1      -8.185  -1.317  -3.603  0.00  0.00    +0.000 A 
ATOM     29  C   UNL     1      -7.849   0.023  -3.573  0.00  0.00    +0.003 A 
ENDBRANCH  23  24
ENDBRANCH  18  23
ENDBRANCH   1  21
BRANCH   1  30
ATOM     30  C   UNL     1      -3.441   3.468   1.281  0.00  0.00    +0.143 A 
ATOM     31  N   UNL     1      -4.165   2.407   1.542  0.00  0.00    -0.115 NA
ATOM     32  N   UNL     1      -4.728   2.582   2.688  0.00  0.00    -0.023 NA
ATOM     33  N   UNL     1      -4.388   3.730   3.161  0.00  0.00    -0.044 NA
ATOM     34  N   UNL     1      -3.595   4.307   2.322  0.00  0.00    -0.227 N 
BRANCH  34  35
ATOM     35  C   UNL     1      -2.979   5.628   2.474  0.00  0.00    +0.111 C 
ATOM     36  C   UNL     1      -2.140   5.673   3.768  0.00  0.00    +0.027 C 
ATOM     37  C   UNL     1      -2.362   7.107   4.313  0.00  0.00    +0.002 C 
ATOM     38  C   UNL     1      -3.855   7.368   3.994  0.00  0.00    +0.002 C 
ATOM     39  C   UNL     1      -4.069   6.705   2.617  0.00  0.00    +0.027 C 
ENDBRANCH  34  35
ENDBRANCH   1  30
TORSDOF 6
