REMARK  Name = ZINC36604749
REMARK  10 active torsions:
REMARK  status: ('A' for Active; 'I' for Inactive)
REMARK    1  A    between atoms: C_1  and  C_2
REMARK    2  A    between atoms: C_2  and  C_3
REMARK    3  A    between atoms: C_2  and  C_4
REMARK    4  A    between atoms: C_2  and  N_5
REMARK    5  A    between atoms: C_6  and  C_8
REMARK    6  A    between atoms: C_8  and  C_10
REMARK    7  A    between atoms: C_8  and  N_20
REMARK    8  A    between atoms: C_12  and  N_17
REMARK    9  A    between atoms: N_20  and  C_21
REMARK   10  A    between atoms: C_27  and  C_29
REMARK                            x       y       z     vdW  Elec       q    Type
REMARK                         _______ _______ _______ _____ _____    ______ ____
ROOT
ATOM      1  C   UNL     1       2.643  -0.328  -2.780  0.00  0.00    +0.199 C 
ENDROOT
BRANCH   1   2
ATOM      2  C   UNL     1       2.497  -1.802  -2.504  0.00  0.00    +0.003 A 
ATOM      3  C   UNL     1       3.441  -2.459  -1.738  0.00  0.00    +0.040 A 
ATOM      4  C   UNL     1       3.308  -3.812  -1.485  0.00  0.00    +0.127 A 
ATOM      5  C   UNL     1       2.229  -4.508  -1.999  0.00  0.00    +0.034 A 
ATOM      6  C   UNL     1       1.284  -3.852  -2.765  0.00  0.00    +0.022 A 
ATOM      7  C   UNL     1       1.415  -2.497  -3.014  0.00  0.00    +0.047 A 
ATOM      8 CL   UNL     1       0.225  -1.671  -3.970  0.00  0.00    -0.083 Cl
BRANCH   4   9
ATOM      9  N   UNL     1       4.319  -4.514  -0.665  0.00  0.00    +0.056 N 
ATOM     10  O   UNL     1       5.262  -3.906  -0.216  0.00  0.00    -0.126 OA
ATOM     11  O   UNL     1       4.202  -5.697  -0.443  0.00  0.00    -0.126 OA
ENDBRANCH   4   9
ENDBRANCH   1   2
BRANCH   1  13
ATOM     12  N   UNL     1       0.537   0.251  -1.620  0.00  0.00    -0.309 N 
ATOM     13  C   UNL     1       1.862   0.455  -1.757  0.00  0.00    +0.239 C 
ATOM     14  O   UNL     1       2.426   1.268  -1.055  0.00  0.00    -0.273 OA
ATOM     15  H   UNL     1       0.086  -0.400  -2.181  0.00  0.00    +0.149 HD
BRANCH  12  17
ATOM     16  C   UNL     1      -0.108   2.506  -0.930  0.00  0.00    +0.031 C 
ATOM     17  C   UNL     1      -0.223   1.011  -0.625  0.00  0.00    +0.026 C 
ATOM     18  C   UNL     1       0.340   0.731   0.770  0.00  0.00    +0.031 C 
ATOM     19  C   UNL     1      -1.693   0.592  -0.676  0.00  0.00    +0.031 C 
ENDBRANCH  12  17
ENDBRANCH   1  13
BRANCH   1  20
ATOM     20  N   UNL     1       4.058   0.045  -2.704  0.00  0.00    -0.255 N 
ATOM     21  C   UNL     1       4.904  -0.314  -3.691  0.00  0.00    +0.224 C 
ATOM     22  O   UNL     1       4.482  -0.892  -4.670  0.00  0.00    -0.275 OA
BRANCH  20  23
ATOM     23  C   UNL     1       4.532   0.774  -1.608  0.00  0.00    +0.037 A 
ATOM     24  C   UNL     1       4.464   0.233  -0.331  0.00  0.00    +0.023 A 
ATOM     25  C   UNL     1       4.932   0.954   0.749  0.00  0.00    +0.002 A 
ATOM     26  C   UNL     1       5.469   2.215   0.560  0.00  0.00    +0.000 A 
ATOM     27  C   UNL     1       5.538   2.756  -0.710  0.00  0.00    +0.002 A 
ATOM     28  C   UNL     1       5.076   2.038  -1.795  0.00  0.00    +0.023 A 
ENDBRANCH  20  23
BRANCH  21  29
ATOM     29  C   UNL     1       6.372   0.002  -3.577  0.00  0.00    +0.076 C 
ATOM     30  C   UNL     1       7.002  -0.882  -2.499  0.00  0.00    +0.013 C 
ATOM     31  C   UNL     1       8.494  -0.561  -2.383  0.00  0.00    +0.001 C 
ATOM     32  C   UNL     1       9.179  -0.827  -3.725  0.00  0.00    +0.000 C 
ATOM     33  C   UNL     1       8.549   0.058  -4.803  0.00  0.00    +0.001 C 
ATOM     34  C   UNL     1       7.057  -0.264  -4.919  0.00  0.00    +0.013 C 
ENDBRANCH  21  29
ENDBRANCH   1  20
TORSDOF 7
