REMARK  Name = ZINC09381055
REMARK  5 active torsions:
REMARK  status: ('A' for Active; 'I' for Inactive)
REMARK    1  A    between atoms: C_3  and  N_23
REMARK    2  A    between atoms: C_6  and  C_7
REMARK    3  A    between atoms: C_7  and  S_8
REMARK    4  A    between atoms: S_8  and  C_9
REMARK    5  A    between atoms: C_14  and  C_16
REMARK                            x       y       z     vdW  Elec       q    Type
REMARK                         _______ _______ _______ _____ _____    ______ ____
ROOT
ATOM      1  C   UNL     1       1.225  -0.442  -0.078  0.00  0.00    +0.159 C 
ATOM      2  N   UNL     1       0.005  -0.017  -0.118  0.00  0.00    -0.261 NA
ATOM      3  C   UNL     1      -0.020   1.452  -0.144  0.00  0.00    +0.163 C 
ATOM      4  C   UNL     1       1.467   1.853  -0.110  0.00  0.00    +0.139 C 
ATOM      5  N   UNL     1       2.168   0.559  -0.069  0.00  0.00    -0.245 N 
ATOM      6  C   UNL     1       3.503   0.385  -0.029  0.00  0.00    +0.252 C 
ATOM      7  O   UNL     1       3.967  -0.732   0.100  0.00  0.00    -0.270 OA
ENDROOT
BRANCH   6   8
ATOM      8  C   UNL     1       4.404   1.550  -0.143  0.00  0.00    +0.037 A 
ATOM      9  C   UNL     1       3.880   2.844  -0.138  0.00  0.00    +0.014 A 
ATOM     10  C   UNL     1       4.726   3.928  -0.239  0.00  0.00    +0.016 A 
ATOM     11  C   UNL     1       6.093   3.735  -0.358  0.00  0.00    +0.018 A 
ATOM     12  C   UNL     1       6.618   2.454  -0.369  0.00  0.00    +0.016 A 
ATOM     13  C   UNL     1       5.783   1.362  -0.263  0.00  0.00    +0.014 A 
ATOM     14 BR   UNL     1       7.245   5.227  -0.503  0.00  0.00    -0.050 Br
ENDBRANCH   6   8
BRANCH   1  15
ATOM     15  S   UNL     1       1.644  -2.153  -0.038  0.00  0.00    -0.086 S 
BRANCH  15  16
ATOM     16  C   UNL     1      -0.013  -2.882  -0.071  0.00  0.00    +0.112 C 
BRANCH  16  22
ATOM     17  C   UNL     1       0.178  -5.094  -1.227  0.00  0.00    +0.007 A 
ATOM     18  C   UNL     1       0.286  -6.472  -1.201  0.00  0.00    +0.033 A 
ATOM     19  C   UNL     1       0.305  -7.141   0.008  0.00  0.00    +0.126 A 
ATOM     20  C   UNL     1       0.222  -6.432   1.192  0.00  0.00    +0.033 A 
ATOM     21  C   UNL     1       0.119  -5.054   1.166  0.00  0.00    +0.007 A 
ATOM     22  C   UNL     1       0.100  -4.385  -0.043  0.00  0.00    -0.037 A 
BRANCH  19  23
ATOM     23  N   UNL     1       0.415  -8.617   0.035  0.00  0.00    +0.056 N 
ATOM     24  O   UNL     1       0.433  -9.207   1.101  0.00  0.00    -0.126 OA
ATOM     25  O   UNL     1       0.489  -9.242  -1.008  0.00  0.00    -0.126 OA
ENDBRANCH  19  23
ENDBRANCH  16  22
ENDBRANCH  15  16
ENDBRANCH   1  15
TORSDOF 5
