REMARK  Name = ZINC66199939
REMARK  14 active torsions:
REMARK  status: ('A' for Active; 'I' for Inactive)
REMARK    1  A    between atoms: C_1  and  C_2
REMARK    2  A    between atoms: C_2  and  N_3
REMARK    3  A    between atoms: N_3  and  C_4
REMARK    4  A    between atoms: C_10  and  C_12
REMARK    5  A    between atoms: C_17  and  N_18
REMARK    6  A    between atoms: N_18  and  C_19
REMARK    7  A    between atoms: C_19  and  N_21
REMARK    8  A    between atoms: C_22  and  C_24
REMARK    9  A    between atoms: C_24  and  C_26
REMARK   10  A    between atoms: C_24  and  C_27
REMARK   11  A    between atoms: C_30  and  C_33
REMARK   12  A    between atoms: C_33  and  C_34
REMARK   13  A    between atoms: C_34  and  C_35
REMARK   14  A    between atoms: C_34  and  C_36
REMARK                            x       y       z     vdW  Elec       q    Type
REMARK                         _______ _______ _______ _____ _____    ______ ____
ROOT
ATOM      1  N   UNL     1      -3.089  -1.307   3.864  0.00  0.00    -0.296 N 
ATOM      2  H   UNL     1      -3.564  -1.558   3.057  0.00  0.00    +0.154 HD
ENDROOT
BRANCH   1   8
ATOM      3  C   UNL     1      -0.864  -1.371   2.908  0.00  0.00    +0.058 A 
ATOM      4  C   UNL     1       0.426  -0.842   2.829  0.00  0.00    +0.015 A 
ATOM      5  C   UNL     1       0.775   0.238   3.610  0.00  0.00    +0.001 A 
ATOM      6  C   UNL     1      -0.149   0.804   4.475  0.00  0.00    +0.002 A 
ATOM      7  C   UNL     1      -1.427   0.292   4.564  0.00  0.00    +0.024 A 
ATOM      8  C   UNL     1      -1.799  -0.792   3.780  0.00  0.00    +0.045 A 
BRANCH   3  10
ATOM      9  N   UNL     1      -1.242  -2.420   0.732  0.00  0.00    -0.268 N 
ATOM     10  C   UNL     1      -1.244  -2.528   2.075  0.00  0.00    +0.253 C 
ATOM     11  O   UNL     1      -1.559  -3.578   2.601  0.00  0.00    -0.270 OA
BRANCH   9  12
ATOM     12  C   UNL     1      -1.716  -3.475  -0.055  0.00  0.00    +0.037 A 
ATOM     13  C   UNL     1      -1.559  -3.439  -1.434  0.00  0.00    +0.023 A 
ATOM     14  C   UNL     1      -2.027  -4.483  -2.208  0.00  0.00    +0.002 A 
ATOM     15  C   UNL     1      -2.652  -5.562  -1.611  0.00  0.00    +0.000 A 
ATOM     16  C   UNL     1      -2.809  -5.601  -0.238  0.00  0.00    +0.002 A 
ATOM     17  C   UNL     1      -2.338  -4.564   0.542  0.00  0.00    +0.023 A 
ENDBRANCH   9  12
BRANCH   9  19
ATOM     18  C   UNL     1      -1.919  -0.261  -0.197  0.00  0.00    +0.025 C 
ATOM     19  C   UNL     1      -0.745  -1.198   0.096  0.00  0.00    +0.110 C 
ENDBRANCH   9  19
ENDBRANCH   3  10
ENDBRANCH   1   8
BRANCH   1  20
ATOM     20  C   UNL     1      -3.679  -1.454   5.067  0.00  0.00    +0.141 C 
ATOM     21  S   UNL     1      -2.898  -0.884   6.479  0.00  0.00    -0.018 S 
BRANCH  20  22
ATOM     22  N   UNL     1      -4.884  -2.051   5.158  0.00  0.00    -0.267 N 
ATOM     23  C   UNL     1      -5.474  -2.199   6.361  0.00  0.00    +0.226 C 
ATOM     24  O   UNL     1      -4.920  -1.795   7.361  0.00  0.00    -0.275 OA
ATOM     25  H   UNL     1      -5.327  -2.374   4.358  0.00  0.00    +0.157 HD
BRANCH  23  26
ATOM     26  C   UNL     1      -6.821  -2.866   6.462  0.00  0.00    +0.102 C 
ATOM     27  C   UNL     1      -6.726  -4.294   5.920  0.00  0.00    +0.022 C 
BRANCH  26  28
ATOM     28  C   UNL     1      -7.255  -2.906   7.905  0.00  0.00    -0.036 A 
ATOM     29  C   UNL     1      -6.480  -3.563   8.842  0.00  0.00    +0.004 A 
ATOM     30  C   UNL     1      -6.877  -3.599  10.165  0.00  0.00    +0.004 A 
ATOM     31  C   UNL     1      -8.050  -2.977  10.552  0.00  0.00    -0.047 A 
ATOM     32  C   UNL     1      -8.825  -2.319   9.615  0.00  0.00    +0.004 A 
ATOM     33  C   UNL     1      -8.425  -2.279   8.293  0.00  0.00    +0.004 A 
BRANCH  31  34
ATOM     34  C   UNL     1      -8.484  -3.017  11.995  0.00  0.00    +0.038 C 
BRANCH  34  35
ATOM     35  C   UNL     1      -7.901  -1.812  12.736  0.00  0.00    -0.013 C 
ATOM     36  C   UNL     1      -8.502  -0.525  12.168  0.00  0.00    +0.007 C 
ATOM     37  C   UNL     1      -8.237  -1.919  14.225  0.00  0.00    +0.007 C 
ENDBRANCH  34  35
ENDBRANCH  31  34
ENDBRANCH  26  28
ENDBRANCH  23  26
ENDBRANCH  20  22
ENDBRANCH   1  20
TORSDOF 10
