REMARK  Name = ZINC53097780
REMARK  10 active torsions:
REMARK  status: ('A' for Active; 'I' for Inactive)
REMARK    1  A    between atoms: C_1  and  C_2
REMARK    2  A    between atoms: C_7  and  C_13
REMARK    3  A    between atoms: C_13  and  N_14
REMARK    4  A    between atoms: N_14  and  C_15
REMARK    5  A    between atoms: N_14  and  C_24
REMARK    6  A    between atoms: C_15  and  C_16
REMARK    7  A    between atoms: C_19  and  O_22
REMARK    8  A    between atoms: O_22  and  C_23
REMARK    9  A    between atoms: C_24  and  C_26
REMARK   10  A    between atoms: C_24  and  C_27
REMARK                            x       y       z     vdW  Elec       q    Type
REMARK                         _______ _______ _______ _____ _____    ______ ____
ROOT
ATOM      1  N   UNL     1      -1.683  -6.389   1.300  0.00  0.00    +0.388 N 
ATOM      2  H   UNL     1      -2.471  -6.285   1.921  0.00  0.00    -0.080 HD
ENDROOT
BRANCH   1   3
ATOM      3  C   UNL     1      -2.009  -5.803  -0.007  0.00  0.00    -0.068 C 
ATOM      4  C   UNL     1      -0.888  -6.116  -1.001  0.00  0.00    -0.013 C 
BRANCH   3   5
ATOM      5  C   UNL     1      -3.324  -6.395  -0.519  0.00  0.00    -0.025 C 
ATOM      6  C   UNL     1      -3.282  -7.179  -1.831  0.00  0.00    +0.002 C 
ATOM      7  C   UNL     1      -3.923  -5.790  -1.790  0.00  0.00    +0.002 C 
ENDBRANCH   3   5
ENDBRANCH   1   3
BRANCH   1   8
ATOM      8  C   UNL     1      -0.516  -5.701   1.868  0.00  0.00    -0.021 C 
BRANCH   8  15
ATOM      9  C   UNL     1      -2.557   1.867   2.381  0.00  0.00    +0.045 C 
ATOM     10  C   UNL     1      -2.183   0.442   2.064  0.00  0.00    -0.034 A 
ATOM     11  C   UNL     1      -2.130   0.013   0.731  0.00  0.00    +0.008 A 
ATOM     12  C   UNL     1      -1.791  -1.278   0.453  0.00  0.00    +0.047 A 
ATOM     13  C   UNL     1      -1.500  -2.159   1.511  0.00  0.00    +0.140 A 
ATOM     14  N   UNL     1      -1.168  -3.421   1.241  0.00  0.00    -0.236 NA
ATOM     15  C   UNL     1      -0.887  -4.280   2.208  0.00  0.00    +0.032 A 
ATOM     16  C   UNL     1      -0.935  -3.877   3.528  0.00  0.00    +0.092 A 
ATOM     17  C   UNL     1      -1.282  -2.553   3.819  0.00  0.00    +0.258 A 
ATOM     18  O   UNL     1      -1.333  -2.164   4.976  0.00  0.00    -0.267 OA
ATOM     19  N   UNL     1      -1.560  -1.711   2.801  0.00  0.00    -0.268 N 
ATOM     20  C   UNL     1      -1.895  -0.418   3.067  0.00  0.00    +0.099 A 
ENDBRANCH   8  15
ENDBRANCH   1   8
BRANCH   1  21
ATOM     21  C   UNL     1      -1.377  -7.816   1.133  0.00  0.00    -0.042 C 
BRANCH  21  22
ATOM     22  C   UNL     1      -2.638  -8.563   0.783  0.00  0.00    -0.064 A 
ATOM     23  C   UNL     1      -3.759  -8.438   1.583  0.00  0.00    +0.005 A 
ATOM     24  C   UNL     1      -4.916  -9.122   1.264  0.00  0.00    +0.046 A 
ATOM     25  C   UNL     1      -4.953  -9.935   0.141  0.00  0.00    +0.120 A 
ATOM     26  C   UNL     1      -3.827 -10.059  -0.660  0.00  0.00    +0.046 A 
ATOM     27  C   UNL     1      -2.674  -9.368  -0.340  0.00  0.00    +0.005 A 
BRANCH  25  28
ATOM     28  O   UNL     1      -6.090 -10.609  -0.175  0.00  0.00    -0.495 OA
ATOM     29  C   UNL     1      -6.055 -11.428  -1.346  0.00  0.00    +0.277 C 
ENDBRANCH  25  28
ENDBRANCH  21  22
ENDBRANCH   1  21
TORSDOF 7
