REMARK  Name = ZINC36341208
REMARK  7 active torsions:
REMARK  status: ('A' for Active; 'I' for Inactive)
REMARK    1  A    between atoms: C_1  and  C_2
REMARK    2  A    between atoms: N_8  and  C_9
REMARK    3  A    between atoms: C_9  and  C_10
REMARK    4  A    between atoms: C_13  and  C_25
REMARK    5  A    between atoms: C_16  and  C_18
REMARK    6  A    between atoms: C_28  and  O_31
REMARK    7  A    between atoms: O_31  and  C_32
REMARK                            x       y       z     vdW  Elec       q    Type
REMARK                         _______ _______ _______ _____ _____    ______ ____
ROOT
ATOM      1  C   UNL     1       2.754  -0.315   2.498  0.00  0.00    +0.219 C 
ATOM      2  O   UNL     1       2.175  -1.008   3.308  0.00  0.00    -0.276 OA
ATOM      3  N   UNL     1       4.013   0.099   2.744  0.00  0.00    -0.187 N 
ATOM      4  C   UNL     1       4.800  -0.221   3.945  0.00  0.00    +0.137 C 
ATOM      5  C   UNL     1       6.142   0.498   3.700  0.00  0.00    +0.087 C 
ATOM      6  C   UNL     1       5.959   1.162   2.354  0.00  0.00    +0.072 C 
ATOM      7  N   UNL     1       4.784   0.894   1.898  0.00  0.00    -0.181 NA
ENDROOT
BRANCH   6   8
ATOM      8  C   UNL     1       6.971   1.983   1.665  0.00  0.00    +0.033 A 
ATOM      9  C   UNL     1       8.221   2.196   2.253  0.00  0.00    +0.012 A 
ATOM     10  C   UNL     1       9.163   2.965   1.604  0.00  0.00    +0.001 A 
ATOM     11  C   UNL     1       8.875   3.526   0.371  0.00  0.00    +0.003 A 
ATOM     12  C   UNL     1       7.642   3.321  -0.218  0.00  0.00    +0.039 A 
ATOM     13  C   UNL     1       6.689   2.548   0.417  0.00  0.00    +0.132 A 
ATOM     14  F   UNL     1       5.485   2.343  -0.162  0.00  0.00    -0.205 F 
ENDBRANCH   6   8
BRANCH   4  15
ATOM     15  C   UNL     1       4.125   0.316   5.180  0.00  0.00    -0.024 A 
ATOM     16  C   UNL     1       3.491   1.544   5.142  0.00  0.00    +0.009 A 
ATOM     17  C   UNL     1       2.871   2.039   6.273  0.00  0.00    +0.046 A 
ATOM     18  C   UNL     1       2.884   1.302   7.448  0.00  0.00    +0.120 A 
ATOM     19  C   UNL     1       3.521   0.070   7.484  0.00  0.00    +0.046 A 
ATOM     20  C   UNL     1       4.135  -0.423   6.349  0.00  0.00    +0.009 A 
BRANCH  18  21
ATOM     21  O   UNL     1       2.276   1.786   8.562  0.00  0.00    -0.495 OA
ATOM     22  C   UNL     1       2.330   0.974   9.737  0.00  0.00    +0.277 C 
ENDBRANCH  18  21
ENDBRANCH   4  15
BRANCH   1  23
ATOM     23  C   UNL     1       2.066   0.083   1.218  0.00  0.00    +0.021 C 
BRANCH  23  30
ATOM     24  C   UNL     1      -0.019   1.526   0.010  0.00  0.00    -0.013 C 
ATOM     25  C   UNL     1       0.002  -0.004   0.002  0.00  0.00    -0.071 C 
ATOM     26  C   UNL     1      -1.434  -0.533   0.011  0.00  0.00    -0.016 C 
ATOM     27  C   UNL     1      -1.408  -2.064   0.003  0.00  0.00    -0.003 C 
ATOM     28  C   UNL     1      -0.600  -2.558   1.206  0.00  0.00    -0.019 C 
ATOM     29  C   UNL     1       0.805  -1.954   1.152  0.00  0.00    -0.078 C 
ATOM     30  N   UNL     1       0.713  -0.490   1.191  0.00  0.00    +0.387 N 
ATOM     31  H   UNL     1       0.213  -0.206   2.020  0.00  0.00    -0.081 HD
ENDBRANCH  23  30
ENDBRANCH   1  23
TORSDOF 5
