REMARK  Name = ZINC38635907
REMARK  12 active torsions:
REMARK  status: ('A' for Active; 'I' for Inactive)
REMARK    1  A    between atoms: C_1  and  N_2
REMARK    2  A    between atoms: N_2  and  C_3
REMARK    3  A    between atoms: N_2  and  C_4
REMARK    4  A    between atoms: C_7  and  C_10
REMARK    5  A    between atoms: C_10  and  C_12
REMARK    6  A    between atoms: C_10  and  N_28
REMARK    7  A    between atoms: C_12  and  N_13
REMARK    8  A    between atoms: C_14  and  C_16
REMARK    9  A    between atoms: C_19  and  S_22
REMARK   10  A    between atoms: S_22  and  N_25
REMARK   11  A    between atoms: N_25  and  C_26
REMARK   12  A    between atoms: N_25  and  C_27
REMARK                            x       y       z     vdW  Elec       q    Type
REMARK                         _______ _______ _______ _____ _____    ______ ____
ROOT
ATOM      1  C   UNL     1      -5.465  -3.100  -1.379  0.00  0.00    +0.094 C 
ENDROOT
BRANCH   1   2
ATOM      2  N   UNL     1      -4.479  -3.767  -2.232  0.00  0.00    -0.313 N 
ATOM      3  C   UNL     1      -4.737  -3.955  -3.541  0.00  0.00    +0.244 C 
ATOM      4  O   UNL     1      -5.789  -3.571  -4.014  0.00  0.00    -0.270 OA
ATOM      5  H   UNL     1      -3.639  -4.074  -1.855  0.00  0.00    +0.149 HD
BRANCH   3   6
ATOM      6  C   UNL     1      -3.742  -4.628  -4.402  0.00  0.00    +0.037 A 
ATOM      7  C   UNL     1      -2.536  -5.076  -3.861  0.00  0.00    +0.015 A 
ATOM      8  C   UNL     1      -1.611  -5.704  -4.670  0.00  0.00    +0.029 A 
ATOM      9  C   UNL     1      -1.877  -5.890  -6.015  0.00  0.00    +0.105 A 
ATOM     10  C   UNL     1      -3.071  -5.448  -6.558  0.00  0.00    +0.029 A 
ATOM     11  C   UNL     1      -4.007  -4.824  -5.759  0.00  0.00    +0.015 A 
BRANCH   9  12
ATOM     12  S   UNL     1      -0.691  -6.692  -7.042  0.00  0.00    +0.060 S 
ATOM     13  O   UNL     1      -0.944  -6.258  -8.371  0.00  0.00    -0.153 OA
ATOM     14  O   UNL     1       0.572  -6.522  -6.412  0.00  0.00    -0.153 OA
BRANCH  12  15
ATOM     15  N   UNL     1      -1.026  -8.313  -7.002  0.00  0.00    -0.183 NA
ATOM     16  C   UNL     1      -1.946  -8.896  -7.982  0.00  0.00    +0.131 C 
ATOM     17  C   UNL     1      -0.402  -9.165  -5.986  0.00  0.00    +0.131 C 
ENDBRANCH  12  15
ENDBRANCH   9  12
ENDBRANCH   3   6
ENDBRANCH   1   2
BRANCH   1  18
ATOM     18  C   UNL     1      -4.875  -2.895   0.018  0.00  0.00    -0.020 C 
BRANCH  18  22
ATOM     19  C   UNL     1      -1.589  -0.172  -0.211  0.00  0.00    +0.029 A 
ATOM     20  C   UNL     1      -1.356  -1.540  -0.146  0.00  0.00    +0.023 A 
ATOM     21  C   UNL     1      -2.421  -2.417  -0.071  0.00  0.00    +0.004 A 
ATOM     22  C   UNL     1      -3.717  -1.935  -0.062  0.00  0.00    -0.059 A 
ATOM     23  C   UNL     1      -3.952  -0.573  -0.126  0.00  0.00    +0.004 A 
ATOM     24  C   UNL     1      -2.892   0.310  -0.195  0.00  0.00    +0.023 A 
BRANCH  19  26
ATOM     25  C   UNL     1      -0.762   2.161  -0.348  0.00  0.00    +0.129 C 
ATOM     26  N   UNL     1      -0.515   0.718  -0.285  0.00  0.00    -0.336 N 
ATOM     27  C   UNL     1       0.858   0.209  -0.302  0.00  0.00    +0.129 C 
ENDBRANCH  19  26
ENDBRANCH  18  22
BRANCH  18  28
ATOM     28  N   UNL     1      -5.906  -2.345   0.909  0.00  0.00    +0.385 N 
ATOM     29  C   UNL     1      -7.021  -3.314   1.061  0.00  0.00    -0.078 C 
ATOM     30  C   UNL     1      -7.691  -2.879   2.389  0.00  0.00    -0.020 C 
ATOM     31  C   UNL     1      -6.485  -2.465   3.264  0.00  0.00    -0.020 C 
ATOM     32  C   UNL     1      -5.354  -2.149   2.267  0.00  0.00    -0.078 C 
ATOM     33  H   UNL     1      -6.251  -1.470   0.544  0.00  0.00    -0.081 HD
ENDBRANCH  18  28
ENDBRANCH   1  18
TORSDOF 8
