REMARK  Name = ZINC06559314
REMARK  7 active torsions:
REMARK  status: ('A' for Active; 'I' for Inactive)
REMARK    1  A    between atoms: C_1  and  C_2
REMARK    2  A    between atoms: C_6  and  C_29
REMARK    3  A    between atoms: C_7  and  N_8
REMARK    4  A    between atoms: C_21  and  S_22
REMARK    5  A    between atoms: S_22  and  C_23
REMARK    6  A    between atoms: C_23  and  C_25
REMARK    7  A    between atoms: C_23  and  C_26
REMARK                            x       y       z     vdW  Elec       q    Type
REMARK                         _______ _______ _______ _____ _____    ______ ____
ROOT
ATOM      1  N   UNL     1       0.025  -0.015   2.418  0.00  0.00    -0.244 N 
ATOM      2  C   UNL     1       1.200   0.335   2.982  0.00  0.00    +0.268 A 
ATOM      3  O   UNL     1       2.253   0.053   2.442  0.00  0.00    -0.267 OA
ATOM      4  C   UNL     1       1.188   1.062   4.264  0.00  0.00    +0.064 A 
ATOM      5  C   UNL     1       2.373   1.447   4.889  0.00  0.00    +0.015 A 
ATOM      6  C   UNL     1       2.321   2.127   6.088  0.00  0.00    +0.001 A 
ATOM      7  C   UNL     1       1.100   2.428   6.671  0.00  0.00    +0.002 A 
ATOM      8  C   UNL     1      -0.080   2.053   6.061  0.00  0.00    +0.027 A 
ATOM      9  C   UNL     1      -0.049   1.368   4.856  0.00  0.00    +0.064 A 
ATOM     10  N   UNL     1      -1.219   0.978   4.218  0.00  0.00    -0.255 N 
ATOM     11  C   UNL     1      -1.180   0.306   3.024  0.00  0.00    +0.245 A 
ATOM     12  N   UNL     1      -2.424   0.083   2.672  0.00  0.00    -0.109 NA
ATOM     13  N   UNL     1      -3.226   0.567   3.552  0.00  0.00    -0.120 NA
ATOM     14  C   UNL     1      -2.545   1.121   4.526  0.00  0.00    +0.198 A 
ENDROOT
BRANCH   1  21
ATOM     15  C   UNL     1      -0.018   1.503   0.010  0.00  0.00    +0.046 C 
ATOM     16  C   UNL     1       0.002  -0.004   0.002  0.00  0.00    -0.026 A 
ATOM     17  C   UNL     1       0.006  -0.689  -1.197  0.00  0.00    +0.005 A 
ATOM     18  C   UNL     1       0.024  -2.071  -1.206  0.00  0.00    +0.001 A 
ATOM     19  C   UNL     1       0.039  -2.773  -0.014  0.00  0.00    +0.005 A 
ATOM     20  C   UNL     1       0.035  -2.094   1.188  0.00  0.00    -0.026 A 
ATOM     21  C   UNL     1       0.023  -0.706   1.200  0.00  0.00    +0.059 A 
ATOM     22  C   UNL     1       0.051  -2.860   2.487  0.00  0.00    +0.046 C 
ENDBRANCH   1  21
BRANCH  14  23
ATOM     23  S   UNL     1      -3.211   1.914   5.952  0.00  0.00    -0.073 S 
BRANCH  23  24
ATOM     24  C   UNL     1      -5.006   1.753   5.745  0.00  0.00    +0.137 C 
ATOM     25  C   UNL     1      -5.451   2.549   4.516  0.00  0.00    +0.029 C 
BRANCH  24  26
ATOM     26  C   UNL     1      -5.702   2.289   6.970  0.00  0.00    +0.224 C 
ATOM     27  O   UNL     1      -5.153   3.117   7.666  0.00  0.00    -0.275 OA
ATOM     28  N   UNL     1      -6.934   1.848   7.291  0.00  0.00    -0.328 N 
ATOM     29  H   UNL     1      -7.373   1.186   6.734  0.00  0.00    +0.145 HD
ATOM     30  H   UNL     1      -7.383   2.193   8.079  0.00  0.00    +0.145 HD
ENDBRANCH  24  26
ENDBRANCH  23  24
ENDBRANCH  14  23
TORSDOF 4
