REMARK  Name = ZINC38745281
REMARK  8 active torsions:
REMARK  status: ('A' for Active; 'I' for Inactive)
REMARK    1  A    between atoms: C_1  and  C_2
REMARK    2  A    between atoms: C_2  and  C_4
REMARK    3  A    between atoms: C_2  and  N_23
REMARK    4  A    between atoms: N_6  and  C_7
REMARK    5  A    between atoms: C_9  and  C_21
REMARK    6  A    between atoms: C_10  and  S_13
REMARK    7  A    between atoms: S_13  and  C_14
REMARK    8  A    between atoms: C_14  and  C_15
REMARK                            x       y       z     vdW  Elec       q    Type
REMARK                         _______ _______ _______ _____ _____    ______ ____
ROOT
ATOM      1  C   UNL     1       0.731  -0.503   1.223  0.00  0.00    +0.236 C 
ATOM      2  O   UNL     1       1.725  -1.187   1.099  0.00  0.00    -0.274 OA
ATOM      3  N   UNL     1       0.278  -0.191   2.453  0.00  0.00    -0.286 N 
ATOM      4  H   UNL     1      -0.517   0.356   2.553  0.00  0.00    +0.151 HD
ENDROOT
BRANCH   3   5
ATOM      5  C   UNL     1       0.986  -0.676   3.640  0.00  0.00    +0.258 C 
ATOM      6  C   UNL     1       1.094   0.420   4.685  0.00  0.00    +0.106 C 
ATOM      7  C   UNL     1       0.412  -0.088   5.756  0.00  0.00    +0.136 C 
ATOM      8  N   UNL     1      -0.067  -1.322   5.459  0.00  0.00    -0.144 NA
ATOM      9  N   UNL     1       0.204  -1.720   4.321  0.00  0.00    -0.158 NA
BRANCH   6  10
ATOM     10  C   UNL     1       1.754   1.686   4.576  0.00  0.00    +0.101 C 
ATOM     11  N   UNL     1       2.278   2.691   4.489  0.00  0.00    -0.191 NA
ENDBRANCH   6  10
BRANCH   7  12
ATOM     12  S   UNL     1       0.188   0.738   7.296  0.00  0.00    -0.098 S 
BRANCH  12  13
ATOM     13  C   UNL     1      -0.783  -0.432   8.285  0.00  0.00    +0.111 C 
BRANCH  13  14
ATOM     14  C   UNL     1      -1.049   0.159   9.646  0.00  0.00    -0.037 A 
ATOM     15  C   UNL     1      -0.156  -0.057  10.679  0.00  0.00    +0.004 A 
ATOM     16  C   UNL     1      -0.400   0.485  11.927  0.00  0.00    +0.000 A 
ATOM     17  C   UNL     1      -1.535   1.244  12.142  0.00  0.00    +0.000 A 
ATOM     18  C   UNL     1      -2.427   1.461  11.108  0.00  0.00    +0.000 A 
ATOM     19  C   UNL     1      -2.181   0.922   9.859  0.00  0.00    +0.004 A 
ENDBRANCH  13  14
ENDBRANCH  12  13
ENDBRANCH   7  12
ENDBRANCH   3   5
BRANCH   1  21
ATOM     20  C   UNL     1      -0.019   1.526   0.010  0.00  0.00    +0.038 C 
ATOM     21  C   UNL     1       0.002  -0.004   0.002  0.00  0.00    +0.167 C 
BRANCH  21  22
ATOM     22  N   UNL     1       0.688  -0.476  -1.203  0.00  0.00    -0.222 N 
ATOM     23  C   UNL     1       1.966  -0.193  -1.512  0.00  0.00    +0.254 C 
ATOM     24  O   UNL     1       2.723   0.484  -0.846  0.00  0.00    -0.270 OA
ATOM     25  C   UNL     1       2.296  -0.844  -2.797  0.00  0.00    +0.049 A 
ATOM     26  C   UNL     1       3.432  -0.902  -3.589  0.00  0.00    +0.015 A 
ATOM     27  C   UNL     1       3.408  -1.622  -4.773  0.00  0.00    +0.016 A 
ATOM     28  C   UNL     1       2.258  -2.282  -5.170  0.00  0.00    +0.019 A 
ATOM     29  C   UNL     1       1.114  -2.232  -4.387  0.00  0.00    +0.029 A 
ATOM     30  C   UNL     1       1.124  -1.516  -3.201  0.00  0.00    +0.050 A 
ATOM     31  C   UNL     1       0.124  -1.256  -2.144  0.00  0.00    +0.255 C 
ATOM     32  O   UNL     1      -1.017  -1.673  -2.129  0.00  0.00    -0.270 OA
ATOM     33 BR   UNL     1       2.247  -3.258  -6.789  0.00  0.00    -0.050 Br
ENDBRANCH  21  22
ENDBRANCH   1  21
TORSDOF 7
