REMARK  Name = ZINC09663431
REMARK  8 active torsions:
REMARK  status: ('A' for Active; 'I' for Inactive)
REMARK    1  A    between atoms: C_4  and  C_7
REMARK    2  A    between atoms: C_16  and  C_17
REMARK    3  A    between atoms: C_16  and  N_56
REMARK    4  A    between atoms: N_19  and  C_20
REMARK    5  A    between atoms: C_20  and  C_21
REMARK    6  A    between atoms: C_21  and  C_22
REMARK    7  A    between atoms: C_25  and  S_28
REMARK    8  A    between atoms: S_28  and  N_31
REMARK                            x       y       z     vdW  Elec       q    Type
REMARK                         _______ _______ _______ _____ _____    ______ ____
ROOT
ATOM      1  C   UNL     1       0.002   1.206  -0.190  0.00  0.00    +0.197 C 
ATOM      2  O   UNL     1       0.037   0.002  -0.334  0.00  0.00    -0.278 OA
ATOM      3  N   UNL     1      -1.181   1.851  -0.205  0.00  0.00    -0.317 N 
ATOM      4  H   UNL     1      -1.210   2.814  -0.090  0.00  0.00    +0.149 HD
ENDROOT
BRANCH   1   5
ATOM      5  C   UNL     1       1.280   1.980   0.001  0.00  0.00    +0.020 C 
BRANCH   5  14
ATOM      6  C   UNL     1       2.632   0.345  -1.166  0.00  0.00    -0.005 C 
ATOM      7  C   UNL     1       3.795  -0.626  -0.990  0.00  0.00    -0.047 A 
ATOM      8  C   UNL     1       4.517  -1.173  -2.048  0.00  0.00    +0.010 A 
ATOM      9  C   UNL     1       5.538  -2.027  -1.801  0.00  0.00    +0.045 A 
ATOM     10  S   UNL     1       5.531  -2.104  -0.016  0.00  0.00    -0.101 S 
ATOM     11  C   UNL     1       4.176  -0.999   0.264  0.00  0.00    -0.010 A 
ATOM     12  C   UNL     1       3.562  -0.556   1.551  0.00  0.00    +0.024 C 
ATOM     13  C   UNL     1       2.215   0.110   1.223  0.00  0.00    -0.072 C 
ATOM     14  N   UNL     1       2.435   1.067   0.113  0.00  0.00    +0.393 N 
ATOM     15  H   UNL     1       3.277   1.619   0.314  0.00  0.00    -0.080 HD
BRANCH   6  19
ATOM     16  C   UNL     1       3.579   3.182  -4.216  0.00  0.00    +0.000 A 
ATOM     17  C   UNL     1       2.754   2.110  -4.501  0.00  0.00    +0.000 A 
ATOM     18  C   UNL     1       2.447   1.192  -3.514  0.00  0.00    +0.002 A 
ATOM     19  C   UNL     1       2.966   1.345  -2.242  0.00  0.00    -0.057 A 
ATOM     20  C   UNL     1       3.787   2.420  -1.956  0.00  0.00    +0.002 A 
ATOM     21  C   UNL     1       4.097   3.336  -2.944  0.00  0.00    +0.000 A 
ENDBRANCH   6  19
ENDBRANCH   5  14
ENDBRANCH   1   5
BRANCH   3  22
ATOM     22  C   UNL     1      -2.424   1.099  -0.396  0.00  0.00    +0.109 C 
BRANCH  22  23
ATOM     23  C   UNL     1      -3.612   2.063  -0.374  0.00  0.00    +0.054 C 
BRANCH  23  24
ATOM     24  C   UNL     1      -4.890   1.290  -0.570  0.00  0.00    -0.046 A 
ATOM     25  C   UNL     1      -5.385   1.084  -1.845  0.00  0.00    +0.005 A 
ATOM     26  C   UNL     1      -6.555   0.371  -2.025  0.00  0.00    +0.029 A 
ATOM     27  C   UNL     1      -7.236  -0.129  -0.930  0.00  0.00    +0.105 A 
ATOM     28  C   UNL     1      -6.744   0.081   0.344  0.00  0.00    +0.029 A 
ATOM     29  C   UNL     1      -5.571   0.790   0.524  0.00  0.00    +0.005 A 
BRANCH  27  30
ATOM     30  S   UNL     1      -8.730  -1.034  -1.160  0.00  0.00    +0.056 S 
ATOM     31  O   UNL     1      -8.687  -1.560  -2.480  0.00  0.00    -0.153 OA
ATOM     32  O   UNL     1      -8.883  -1.862  -0.015  0.00  0.00    -0.153 OA
BRANCH  30  33
ATOM     33  N   UNL     1      -9.974   0.057  -1.125  0.00  0.00    -0.204 NA
ATOM     34  H   UNL     1      -9.789   1.000  -0.995  0.00  0.00    +0.144 HD
ATOM     35  H   UNL     1     -10.889  -0.246  -1.235  0.00  0.00    +0.144 HD
ENDBRANCH  30  33
ENDBRANCH  27  30
ENDBRANCH  23  24
ENDBRANCH  22  23
ENDBRANCH   3  22
TORSDOF 8
