REMARK  Name = ZINC36610167
REMARK  9 active torsions:
REMARK  status: ('A' for Active; 'I' for Inactive)
REMARK    1  A    between atoms: C_4  and  N_7
REMARK    2  A    between atoms: N_7  and  C_8
REMARK    3  A    between atoms: C_8  and  C_10
REMARK    4  A    between atoms: C_8  and  C_19
REMARK    5  A    between atoms: C_13  and  N_16
REMARK    6  A    between atoms: N_21  and  C_22
REMARK    7  A    between atoms: C_28  and  C_30
REMARK    8  A    between atoms: C_31  and  O_37
REMARK    9  A    between atoms: C_35  and  O_36
REMARK                            x       y       z     vdW  Elec       q    Type
REMARK                         _______ _______ _______ _____ _____    ______ ____
ROOT
ATOM      1  C   UNL     1       3.538  -2.090  -0.061  0.00  0.00    +0.197 C 
ENDROOT
BRANCH   1   2
ATOM      2  C   UNL     1       2.857  -2.564  -1.319  0.00  0.00    -0.018 A 
ATOM      3  C   UNL     1       1.718  -1.925  -1.772  0.00  0.00    +0.008 A 
ATOM      4  C   UNL     1       1.094  -2.359  -2.926  0.00  0.00    +0.033 A 
ATOM      5  C   UNL     1       1.609  -3.433  -3.628  0.00  0.00    +0.126 A 
ATOM      6  C   UNL     1       2.748  -4.072  -3.176  0.00  0.00    +0.033 A 
ATOM      7  C   UNL     1       3.375  -3.634  -2.024  0.00  0.00    +0.008 A 
BRANCH   5   8
ATOM      8  N   UNL     1       0.940  -3.899  -4.863  0.00  0.00    +0.056 N 
ATOM      9  O   UNL     1      -0.057  -3.340  -5.258  0.00  0.00    -0.126 OA
ATOM     10  O   UNL     1       1.390  -4.838  -5.478  0.00  0.00    -0.126 OA
ENDBRANCH   5   8
ENDBRANCH   1   2
BRANCH   1  11
ATOM     11  C   UNL     1       2.596  -2.239   1.106  0.00  0.00    +0.239 C 
ATOM     12  O   UNL     1       2.270  -1.264   1.750  0.00  0.00    -0.273 OA
ATOM     13  N   UNL     1       2.115  -3.454   1.434  0.00  0.00    -0.311 N 
ATOM     14  H   UNL     1       2.376  -4.234   0.918  0.00  0.00    +0.149 HD
BRANCH  13  15
ATOM     15  C   UNL     1       1.200  -3.599   2.568  0.00  0.00    +0.073 C 
ATOM     16  C   UNL     1       2.007  -3.731   3.861  0.00  0.00    +0.022 C 
ATOM     17  C   UNL     1       1.050  -3.882   5.046  0.00  0.00    +0.002 C 
ATOM     18  C   UNL     1       0.191  -5.132   4.851  0.00  0.00    +0.000 C 
ATOM     19  C   UNL     1      -0.617  -5.000   3.558  0.00  0.00    +0.002 C 
ATOM     20  C   UNL     1       0.340  -4.849   2.373  0.00  0.00    +0.022 C 
ENDBRANCH  13  15
ENDBRANCH   1  11
BRANCH   1  21
ATOM     21  N   UNL     1       3.913  -0.682  -0.209  0.00  0.00    -0.251 N 
ATOM     22  C   UNL     1       4.637  -0.072   0.750  0.00  0.00    +0.259 C 
ATOM     23  O   UNL     1       5.056  -0.713   1.695  0.00  0.00    -0.269 OA
BRANCH  21  27
ATOM     24  C   UNL     1       2.743   1.440  -3.598  0.00  0.00    +0.000 A 
ATOM     25  C   UNL     1       2.174   1.730  -2.372  0.00  0.00    +0.002 A 
ATOM     26  C   UNL     1       2.559   1.028  -1.246  0.00  0.00    +0.023 A 
ATOM     27  C   UNL     1       3.520   0.031  -1.347  0.00  0.00    +0.038 A 
ATOM     28  C   UNL     1       4.090  -0.258  -2.580  0.00  0.00    +0.023 A 
ATOM     29  C   UNL     1       3.700   0.447  -3.702  0.00  0.00    +0.002 A 
ENDBRANCH  21  27
BRANCH  22  30
ATOM     30  C   UNL     1       4.921   1.369   0.655  0.00  0.00    +0.120 A 
ATOM     31  C   UNL     1       4.105   2.295   1.322  0.00  0.00    +0.133 A 
ATOM     32  C   UNL     1       4.382   3.649   1.226  0.00  0.00    +0.046 A 
ATOM     33  C   UNL     1       5.456   4.089   0.475  0.00  0.00    +0.007 A 
ATOM     34  C   UNL     1       6.266   3.185  -0.186  0.00  0.00    +0.046 A 
ATOM     35  C   UNL     1       6.012   1.826  -0.099  0.00  0.00    +0.133 A 
BRANCH  35  36
ATOM     36  O   UNL     1       6.811   0.940  -0.745  0.00  0.00    -0.506 OA
ATOM     37  H   UNL     1       6.527   0.738  -1.647  0.00  0.00    +0.292 HD
ENDBRANCH  35  36
BRANCH  31  38
ATOM     38  O   UNL     1       3.050   1.866   2.058  0.00  0.00    -0.506 OA
ATOM     39  H   UNL     1       3.263   1.686   2.984  0.00  0.00    +0.292 HD
ENDBRANCH  31  38
ENDBRANCH  22  30
ENDBRANCH   1  21
TORSDOF 9
