REMARK  Name = ZINC09828940
REMARK  14 active torsions:
REMARK  status: ('A' for Active; 'I' for Inactive)
REMARK    1  A    between atoms: C_1  and  C_2
REMARK    2  A    between atoms: C_2  and  O_3
REMARK    3  A    between atoms: O_3  and  C_4
REMARK    4  A    between atoms: C_4  and  C_5
REMARK    5  A    between atoms: C_4  and  O_32
REMARK    6  A    between atoms: C_5  and  N_6
REMARK    7  A    between atoms: C_7  and  C_9
REMARK    8  A    between atoms: N_11  and  C_12
REMARK    9  A    between atoms: C_12  and  C_13
REMARK   10  A    between atoms: C_13  and  C_15
REMARK   11  A    between atoms: C_13  and  N_67
REMARK   12  A    between atoms: N_22  and  C_25
REMARK   13  A    between atoms: O_32  and  C_33
REMARK   14  A    between atoms: C_33  and  C_34
REMARK                            x       y       z     vdW  Elec       q    Type
REMARK                         _______ _______ _______ _____ _____    ______ ____
ROOT
ATOM      1  C   UNL     1      -1.515   1.441  -0.637  0.00  0.00    +0.017 C 
ENDROOT
BRANCH   1   7
ATOM      2  C   UNL     1      -0.169   3.281   0.181  0.00  0.00    -0.059 C 
ATOM      3  C   UNL     1      -0.036   4.308   1.308  0.00  0.00    +0.086 C 
ATOM      4  N   UNL     1       0.148   3.607   2.587  0.00  0.00    -0.331 N 
ATOM      5  C   UNL     1      -0.990   2.721   2.867  0.00  0.00    +0.086 C 
ATOM      6  C   UNL     1      -1.123   1.694   1.740  0.00  0.00    -0.059 C 
ATOM      7  N   UNL     1      -1.330   2.411   0.464  0.00  0.00    +0.389 N 
ATOM      8  H   UNL     1      -2.172   2.993   0.541  0.00  0.00    -0.081 HD
BRANCH   4   9
ATOM      9  C   UNL     1       0.345   4.515   3.632  0.00  0.00    +0.065 A 
ATOM     10  C   UNL     1       0.613   4.053   4.913  0.00  0.00    +0.026 A 
ATOM     11  C   UNL     1       0.811   4.953   5.943  0.00  0.00    +0.002 A 
ATOM     12  C   UNL     1       0.735   6.312   5.701  0.00  0.00    +0.003 A 
ATOM     13  C   UNL     1       0.465   6.777   4.427  0.00  0.00    +0.040 A 
ATOM     14  C   UNL     1       0.269   5.883   3.391  0.00  0.00    +0.144 A 
ATOM     15  F   UNL     1       0.004   6.337   2.147  0.00  0.00    -0.204 F 
ENDBRANCH   4   9
ENDBRANCH   1   7
BRANCH   1  16
ATOM     16  C   UNL     1      -0.320   0.529  -0.742  0.00  0.00    +0.093 A 
ATOM     17  C   UNL     1      -0.361  -0.809  -0.870  0.00  0.00    +0.043 A 
ATOM     18  C   UNL     1       0.979  -1.256  -0.939  0.00  0.00    +0.041 A 
ATOM     19  C   UNL     1       1.758  -0.163  -0.849  0.00  0.00    +0.195 A 
ATOM     20  O   UNL     1       0.966   0.915  -0.730  0.00  0.00    -0.469 OA
ENDBRANCH   1  16
BRANCH   1  21
ATOM     21  C   UNL     1      -1.690   2.206  -1.950  0.00  0.00    +0.097 C 
BRANCH  21  24
ATOM     22  C   UNL     1      -3.113   3.970  -2.845  0.00  0.00    +0.299 C 
ATOM     23  O   UNL     1      -2.515   3.878  -3.897  0.00  0.00    -0.265 OA
ATOM     24  N   UNL     1      -2.777   3.178  -1.808  0.00  0.00    -0.309 N 
ATOM     25  H   UNL     1      -3.255   3.252  -0.967  0.00  0.00    +0.149 HD
BRANCH  22  27
ATOM     26  N   UNL     1      -4.557   5.754  -3.737  0.00  0.00    -0.303 N 
ATOM     27  C   UNL     1      -4.221   4.962  -2.700  0.00  0.00    +0.299 C 
ATOM     28  O   UNL     1      -4.819   5.054  -1.648  0.00  0.00    -0.265 OA
ATOM     29  H   UNL     1      -4.079   5.681  -4.578  0.00  0.00    +0.149 HD
BRANCH  26  30
ATOM     30  C   UNL     1      -5.643   6.726  -3.595  0.00  0.00    +0.166 C 
BRANCH  30  31
ATOM     31  C   UNL     1      -5.819   7.491  -4.909  0.00  0.00    +0.267 C 
BRANCH  31  32
ATOM     32  O   UNL     1      -4.606   8.176  -5.227  0.00  0.00    -0.350 OA
BRANCH  32  34
ATOM     33  C   UNL     1      -3.428   9.926  -6.407  0.00  0.00    +0.034 C 
ATOM     34  C   UNL     1      -4.792   9.351  -6.019  0.00  0.00    +0.159 C 
ENDBRANCH  32  34
ENDBRANCH  31  32
BRANCH  31  35
ATOM     35  O   UNL     1      -6.136   6.572  -5.956  0.00  0.00    -0.350 OA
BRANCH  35  36
ATOM     36  C   UNL     1      -6.552   7.198  -7.172  0.00  0.00    +0.159 C 
ATOM     37  C   UNL     1      -7.022   6.129  -8.160  0.00  0.00    +0.034 C 
ENDBRANCH  35  36
ENDBRANCH  31  35
ENDBRANCH  30  31
ENDBRANCH  26  30
ENDBRANCH  22  27
ENDBRANCH  21  24
ENDBRANCH   1  21
TORSDOF 12
