REMARK  Name = ZINC06830483
REMARK  5 active torsions:
REMARK  status: ('A' for Active; 'I' for Inactive)
REMARK    1  A    between atoms: C_4  and  C_7
REMARK    2  A    between atoms: C_18  and  C_20
REMARK    3  A    between atoms: C_20  and  S_21
REMARK    4  A    between atoms: S_21  and  C_22
REMARK    5  A    between atoms: C_26  and  N_28
REMARK                            x       y       z     vdW  Elec       q    Type
REMARK                         _______ _______ _______ _____ _____    ______ ____
ROOT
ATOM      1  C   UNL     1       2.222   2.079  -0.264  0.00  0.00    +0.122 C 
ATOM      2  C   UNL     1       2.088   1.800  -1.769  0.00  0.00    +0.102 C 
ATOM      3  S   UNL     1       0.825   0.509  -1.980  0.00  0.00    -0.121 S 
ATOM      4  C   UNL     1      -0.486   1.050  -0.930  0.00  0.00    +0.029 A 
ATOM      5  C   UNL     1      -1.746   0.482  -1.075  0.00  0.00    +0.016 A 
ATOM      6  C   UNL     1      -2.788   0.883  -0.263  0.00  0.00    +0.001 A 
ATOM      7  C   UNL     1      -2.577   1.853   0.700  0.00  0.00    +0.002 A 
ATOM      8  C   UNL     1      -1.330   2.425   0.849  0.00  0.00    +0.024 A 
ATOM      9  C   UNL     1      -0.271   2.030   0.034  0.00  0.00    +0.050 A 
ATOM     10  N   UNL     1       0.968   2.647   0.221  0.00  0.00    -0.261 N 
ATOM     11  C   UNL     1       1.008   3.822   0.881  0.00  0.00    +0.231 C 
ATOM     12  O   UNL     1       2.075   4.298   1.208  0.00  0.00    -0.274 OA
ENDROOT
BRANCH   1  16
ATOM     13  C   UNL     1       5.405   4.849   0.401  0.00  0.00    +0.000 A 
ATOM     14  C   UNL     1       5.353   3.670   1.121  0.00  0.00    +0.000 A 
ATOM     15  C   UNL     1       4.323   2.774   0.906  0.00  0.00    +0.005 A 
ATOM     16  C   UNL     1       3.345   3.056  -0.029  0.00  0.00    -0.026 A 
ATOM     17  C   UNL     1       3.400   4.233  -0.753  0.00  0.00    +0.005 A 
ATOM     18  C   UNL     1       4.427   5.131  -0.534  0.00  0.00    +0.000 A 
ENDBRANCH   1  16
BRANCH  11  19
ATOM     19  C   UNL     1      -0.272   4.544   1.212  0.00  0.00    +0.173 C 
BRANCH  19  20
ATOM     20  S   UNL     1       0.008   6.331   1.146  0.00  0.00    -0.077 S 
BRANCH  20  21
ATOM     21  C   UNL     1      -1.603   6.909   1.563  0.00  0.00    +0.192 A 
ATOM     22  N   UNL     1      -2.564   6.028   1.801  0.00  0.00    -0.207 NA
ATOM     23  C   UNL     1      -3.791   6.428   2.124  0.00  0.00    +0.122 A 
ATOM     24  C   UNL     1      -4.062   7.791   2.198  0.00  0.00    +0.086 A 
ATOM     25  C   UNL     1      -3.030   8.687   1.935  0.00  0.00    +0.122 A 
ATOM     26  N   UNL     1      -1.825   8.214   1.624  0.00  0.00    -0.207 NA
ATOM     27  N   UNL     1      -4.789   5.499   2.378  0.00  0.00    -0.343 N 
ATOM     28  H   UNL     1      -5.682   5.798   2.609  0.00  0.00    +0.144 HD
ATOM     29  H   UNL     1      -4.593   4.551   2.324  0.00  0.00    +0.144 HD
BRANCH  25  30
ATOM     30  N   UNL     1      -3.253  10.054   1.998  0.00  0.00    -0.343 N 
ATOM     31  H   UNL     1      -2.529  10.672   1.814  0.00  0.00    +0.144 HD
ATOM     32  H   UNL     1      -4.133  10.391   2.225  0.00  0.00    +0.144 HD
ENDBRANCH  25  30
ENDBRANCH  20  21
ENDBRANCH  19  20
ENDBRANCH  11  19
TORSDOF 5
