REMARK  Name = ZINC66468887
REMARK  7 active torsions:
REMARK  status: ('A' for Active; 'I' for Inactive)
REMARK    1  A    between atoms: C_1  and  C_2
REMARK    2  A    between atoms: C_2  and  O_3
REMARK    3  A    between atoms: O_3  and  C_4
REMARK    4  A    between atoms: C_4  and  C_6
REMARK    5  A    between atoms: C_12  and  C_14
REMARK    6  A    between atoms: C_14  and  N_15
REMARK    7  A    between atoms: C_19  and  C_21
REMARK                            x       y       z     vdW  Elec       q    Type
REMARK                         _______ _______ _______ _____ _____    ______ ____
ROOT
ATOM      1  N   UNL     1       5.633  -6.820   3.859  0.00  0.00    +0.390 N 
ATOM      2  C   UNL     1       6.243  -6.343   5.118  0.00  0.00    -0.077 C 
ATOM      3  C   UNL     1       6.059  -7.513   6.116  0.00  0.00    -0.020 C 
ATOM      4  C   UNL     1       6.273  -8.745   5.197  0.00  0.00    -0.013 C 
ATOM      5  C   UNL     1       5.646  -8.295   3.861  0.00  0.00    -0.036 C 
ATOM      6  H   UNL     1       6.166  -6.477   3.074  0.00  0.00    -0.080 HD
ENDROOT
BRANCH   5   7
ATOM      7  C   UNL     1       6.475  -8.802   2.709  0.00  0.00    -0.053 A 
ATOM      8  C   UNL     1       7.497  -8.048   2.218  0.00  0.00    +0.002 A 
ATOM      9  C   UNL     1       8.274  -8.500   1.153  0.00  0.00    +0.001 A 
ATOM     10  C   UNL     1       8.034  -9.709   0.574  0.00  0.00    +0.008 A 
ATOM     11  C   UNL     1       6.988 -10.514   1.054  0.00  0.00    -0.018 A 
ATOM     12  C   UNL     1       6.201 -10.057   2.140  0.00  0.00    -0.016 A 
ATOM     13  C   UNL     1       5.159 -10.866   2.624  0.00  0.00    +0.009 A 
ATOM     14  C   UNL     1       4.923 -12.076   2.049  0.00  0.00    +0.001 A 
ATOM     15  C   UNL     1       5.700 -12.528   0.984  0.00  0.00    +0.001 A 
ATOM     16  C   UNL     1       6.710 -11.767   0.481  0.00  0.00    +0.008 A 
ENDBRANCH   5   7
BRANCH   1  17
ATOM     17  C   UNL     1       4.248  -6.338   3.766  0.00  0.00    +0.020 C 
BRANCH  17  24
ATOM     18  C   UNL     1       0.854  -2.964   2.280  0.00  0.00    +0.101 C 
ATOM     19  C   UNL     1       2.241  -2.324   2.183  0.00  0.00    +0.033 C 
ATOM     20  C   UNL     1       3.062  -2.705   3.418  0.00  0.00    +0.108 C 
ATOM     21  N   UNL     1       3.080  -4.170   3.541  0.00  0.00    -0.303 N 
ATOM     22  C   UNL     1       1.801  -4.893   3.553  0.00  0.00    +0.108 C 
ATOM     23  C   UNL     1       0.994  -4.487   2.316  0.00  0.00    +0.033 C 
ATOM     24  C   UNL     1       4.247  -4.836   3.641  0.00  0.00    +0.199 C 
ATOM     25  O   UNL     1       5.296  -4.228   3.630  0.00  0.00    -0.278 OA
BRANCH  18  26
ATOM     26  C   UNL     1       0.031  -2.563   1.083  0.00  0.00    +0.310 C 
ATOM     27  O   UNL     1      -0.399  -3.409   0.335  0.00  0.00    -0.251 OA
BRANCH  26  28
ATOM     28  O   UNL     1      -0.224  -1.266   0.847  0.00  0.00    -0.465 OA
BRANCH  28  30
ATOM     29  C   UNL     1      -1.194   0.557  -0.409  0.00  0.00    +0.048 C 
ATOM     30  C   UNL     1      -1.010  -0.959  -0.306  0.00  0.00    +0.229 C 
ENDBRANCH  28  30
ENDBRANCH  26  28
ENDBRANCH  18  26
ENDBRANCH  17  24
ENDBRANCH   1  17
TORSDOF 6
