REMARK  Name = ZINC23635080
REMARK  9 active torsions:
REMARK  status: ('A' for Active; 'I' for Inactive)
REMARK    1  A    between atoms: C_1  and  C_2
REMARK    2  A    between atoms: C_5  and  N_8
REMARK    3  A    between atoms: C_9  and  C_29
REMARK    4  A    between atoms: C_12  and  S_13
REMARK    5  A    between atoms: S_13  and  C_14
REMARK    6  A    between atoms: C_14  and  C_16
REMARK    7  A    between atoms: C_14  and  C_17
REMARK    8  A    between atoms: C_34  and  O_35
REMARK    9  A    between atoms: O_35  and  C_36
REMARK                            x       y       z     vdW  Elec       q    Type
REMARK                         _______ _______ _______ _____ _____    ______ ____
ROOT
ATOM      1  N   UNL     1       2.210  -7.438  -1.540  0.00  0.00    -0.270 N 
ATOM      2  C   UNL     1       1.685  -8.657  -1.171  0.00  0.00    +0.173 A 
ATOM      3  N   UNL     1       0.568  -8.415  -0.524  0.00  0.00    -0.128 NA
ATOM      4  N   UNL     1       0.363  -7.149  -0.459  0.00  0.00    -0.122 NA
ATOM      5  C   UNL     1       1.331  -6.501  -1.067  0.00  0.00    +0.197 A 
ENDROOT
BRANCH   1  10
ATOM      6  C   UNL     1       7.012  -6.498  -4.415  0.00  0.00    +0.044 C 
ATOM      7  C   UNL     1       5.737  -6.748  -3.651  0.00  0.00    -0.050 A 
ATOM      8  C   UNL     1       5.635  -6.351  -2.330  0.00  0.00    +0.005 A 
ATOM      9  C   UNL     1       4.467  -6.579  -1.628  0.00  0.00    +0.026 A 
ATOM     10  C   UNL     1       3.396  -7.206  -2.250  0.00  0.00    +0.051 A 
ATOM     11  C   UNL     1       3.503  -7.607  -3.574  0.00  0.00    +0.026 A 
ATOM     12  C   UNL     1       4.671  -7.372  -4.273  0.00  0.00    +0.005 A 
ENDBRANCH   1  10
BRANCH   2  13
ATOM     13  C   UNL     1       2.268  -9.986  -1.451  0.00  0.00    +0.061 A 
ATOM     14  C   UNL     1       3.622 -10.222  -1.212  0.00  0.00    +0.015 A 
ATOM     15  C   UNL     1       4.160 -11.465  -1.475  0.00  0.00    +0.001 A 
ATOM     16  C   UNL     1       3.362 -12.479  -1.974  0.00  0.00    +0.004 A 
ATOM     17  C   UNL     1       2.019 -12.257  -2.216  0.00  0.00    +0.046 A 
ATOM     18  C   UNL     1       1.462 -11.016  -1.952  0.00  0.00    +0.131 A 
BRANCH  18  19
ATOM     19  O   UNL     1       0.142 -10.798  -2.183  0.00  0.00    -0.494 OA
ATOM     20  C   UNL     1      -0.617 -11.896  -2.695  0.00  0.00    +0.277 C 
ENDBRANCH  18  19
ENDBRANCH   2  13
BRANCH   5  21
ATOM     21  S   UNL     1       1.475  -4.753  -1.236  0.00  0.00    -0.075 S 
BRANCH  21  22
ATOM     22  C   UNL     1      -0.029  -4.229  -0.375  0.00  0.00    +0.117 C 
ATOM     23  C   UNL     1       0.071  -4.611   1.103  0.00  0.00    +0.027 C 
BRANCH  22  24
ATOM     24  C   UNL     1      -0.184  -2.736  -0.499  0.00  0.00    +0.124 A 
ATOM     25  N   UNL     1      -1.438  -2.225  -0.607  0.00  0.00    -0.309 N 
ATOM     26  H   UNL     1      -2.308  -2.897  -0.602  0.00  0.00    +0.170 HD
ATOM     27  C   UNL     1      -1.631  -0.890  -0.722  0.00  0.00    +0.259 A 
ATOM     28  O   UNL     1      -2.749  -0.419  -0.820  0.00  0.00    -0.267 OA
ATOM     29  C   UNL     1      -0.437  -0.031  -0.724  0.00  0.00    +0.065 A 
ATOM     30  C   UNL     1      -0.526   1.355  -0.835  0.00  0.00    +0.015 A 
ATOM     31  C   UNL     1       0.625   2.112  -0.831  0.00  0.00    +0.001 A 
ATOM     32  C   UNL     1       1.869   1.504  -0.717  0.00  0.00    +0.002 A 
ATOM     33  C   UNL     1       1.978   0.137  -0.605  0.00  0.00    +0.028 A 
ATOM     34  C   UNL     1       0.826  -0.652  -0.607  0.00  0.00    +0.078 A 
ATOM     35  N   UNL     1       0.888  -2.003  -0.498  0.00  0.00    -0.233 NA
ENDBRANCH  22  24
ENDBRANCH  21  22
ENDBRANCH   5  21
TORSDOF 6
