REMARK  Name = ZINC17299868
REMARK  8 active torsions:
REMARK  status: ('A' for Active; 'I' for Inactive)
REMARK    1  A    between atoms: C_1  and  C_2
REMARK    2  A    between atoms: C_5  and  C_8
REMARK    3  A    between atoms: C_10  and  N_26
REMARK    4  A    between atoms: C_16  and  C_17
REMARK    5  A    between atoms: C_20  and  N_23
REMARK    6  A    between atoms: N_23  and  C_24
REMARK    7  A    between atoms: N_23  and  C_25
REMARK    8  A    between atoms: C_27  and  C_29
REMARK                            x       y       z     vdW  Elec       q    Type
REMARK                         _______ _______ _______ _____ _____    ______ ____
ROOT
ATOM      1  C   UNL     1       3.619   1.110  -1.700  0.00  0.00    +0.162 C 
ATOM      2  C   UNL     1       4.046   2.409  -2.409  0.00  0.00    +0.190 C 
ATOM      3  C   UNL     1       5.161   2.956  -1.547  0.00  0.00    +0.253 C 
ATOM      4  O   UNL     1       5.778   3.979  -1.757  0.00  0.00    -0.272 OA
ATOM      5  N   UNL     1       5.356   2.125  -0.514  0.00  0.00    -0.225 N 
ATOM      6  N   UNL     1       4.500   1.026  -0.528  0.00  0.00    -0.288 N 
ATOM      7  C   UNL     1       4.483   0.076   0.357  0.00  0.00    +0.111 C 
ATOM      8  H   UNL     1       6.025   2.273   0.173  0.00  0.00    +0.175 HD
ENDROOT
BRANCH   1  13
ATOM      9  C   UNL     1      -1.910   1.433  -0.050  0.00  0.00    +0.044 C 
ATOM     10  C   UNL     1      -0.468   1.349  -0.481  0.00  0.00    -0.050 A 
ATOM     11  C   UNL     1      -0.129   0.665  -1.633  0.00  0.00    +0.004 A 
ATOM     12  C   UNL     1       1.193   0.588  -2.028  0.00  0.00    +0.006 A 
ATOM     13  C   UNL     1       2.177   1.195  -1.270  0.00  0.00    -0.021 A 
ATOM     14  C   UNL     1       1.839   1.875  -0.115  0.00  0.00    +0.006 A 
ATOM     15  C   UNL     1       0.516   1.957   0.277  0.00  0.00    +0.004 A 
ENDBRANCH   1  13
BRANCH   7  16
ATOM     16  C   UNL     1       5.441   0.095   1.477  0.00  0.00    -0.007 A 
ATOM     17  C   UNL     1       6.690  -0.519   1.341  0.00  0.00    +0.011 A 
ATOM     18  C   UNL     1       7.585  -0.494   2.388  0.00  0.00    +0.024 A 
ATOM     19  C   UNL     1       7.243   0.130   3.583  0.00  0.00    +0.029 A 
ATOM     20  C   UNL     1       6.000   0.737   3.723  0.00  0.00    +0.024 A 
ATOM     21  C   UNL     1       5.102   0.721   2.679  0.00  0.00    +0.011 A 
BRANCH  19  22
ATOM     22  N   UNL     1       8.150   0.148   4.642  0.00  0.00    -0.336 N 
ATOM     23  C   UNL     1       7.792   0.805   5.902  0.00  0.00    +0.129 C 
ATOM     24  C   UNL     1       9.460  -0.491   4.496  0.00  0.00    +0.129 C 
ENDBRANCH  19  22
ENDBRANCH   7  16
BRANCH   2  25
ATOM     25  N   UNL     1       2.928   3.355  -2.461  0.00  0.00    -0.298 N 
ATOM     26  C   UNL     1       2.885   4.294  -3.427  0.00  0.00    +0.245 C 
ATOM     27  O   UNL     1       3.776   4.359  -4.252  0.00  0.00    -0.270 OA
ATOM     28  H   UNL     1       2.218   3.303  -1.803  0.00  0.00    +0.150 HD
BRANCH  26  29
ATOM     29  C   UNL     1       1.755   5.244  -3.483  0.00  0.00    +0.037 A 
ATOM     30  C   UNL     1       0.728   5.168  -2.540  0.00  0.00    +0.016 A 
ATOM     31  C   UNL     1      -0.321   6.061  -2.594  0.00  0.00    +0.039 A 
ATOM     32  C   UNL     1      -0.364   7.025  -3.589  0.00  0.00    +0.123 A 
ATOM     33  C   UNL     1       0.651   7.102  -4.531  0.00  0.00    +0.039 A 
ATOM     34  C   UNL     1       1.707   6.218  -4.483  0.00  0.00    +0.016 A 
ATOM     35  F   UNL     1      -1.397   7.894  -3.640  0.00  0.00    -0.205 F 
ENDBRANCH  26  29
ENDBRANCH   2  25
TORSDOF 5
