REMARK  Name = ZINC51130812
REMARK  10 active torsions:
REMARK  status: ('A' for Active; 'I' for Inactive)
REMARK    1  A    between atoms: C_1  and  C_2
REMARK    2  A    between atoms: C_7  and  O_8
REMARK    3  A    between atoms: O_8  and  C_9
REMARK    4  A    between atoms: C_9  and  C_10
REMARK    5  A    between atoms: C_16  and  C_17
REMARK    6  A    between atoms: C_20  and  O_25
REMARK    7  A    between atoms: C_21  and  O_23
REMARK    8  A    between atoms: O_23  and  C_24
REMARK    9  A    between atoms: O_25  and  C_26
REMARK   10  A    between atoms: C_26  and  C_27
REMARK                            x       y       z     vdW  Elec       q    Type
REMARK                         _______ _______ _______ _____ _____    ______ ____
ROOT
ATOM      1  C   UNL     1       0.396  -0.170   5.189  0.00  0.00    +0.137 C 
ATOM      2  N   UNL     1       0.438   1.127   5.082  0.00  0.00    -0.166 NA
ATOM      3  N   UNL     1       0.214   1.941   6.172  0.00  0.00    -0.154 N 
ATOM      4  C   UNL     1       0.147   3.351   6.149  0.00  0.00    +0.132 C 
ATOM      5  N   UNL     1      -0.126   4.039   5.072  0.00  0.00    -0.385 N 
ATOM      6  C   UNL     1       0.419   3.977   7.473  0.00  0.00    +0.079 C 
ATOM      7  C   UNL     1       1.046   5.199   7.584  0.00  0.00    +0.024 C 
ATOM      8  C   UNL     1      -0.021   3.214   8.668  0.00  0.00    +0.273 C 
ATOM      9  O   UNL     1      -0.268   3.781   9.719  0.00  0.00    -0.268 OA
ATOM     10  N   UNL     1      -0.139   1.877   8.556  0.00  0.00    -0.152 NA
ATOM     11  C   UNL     1       0.009   1.315   7.383  0.00  0.00    +0.181 C 
ATOM     12  S   UNL     1       0.019  -0.397   6.921  0.00  0.00    -0.035 S 
ATOM     13  H   UNL     1      -0.295   3.581   4.234  0.00  0.00    +0.157 HD
ATOM     14  H   UNL     1      -0.159   5.008   5.111  0.00  0.00    +0.157 HD
ENDROOT
BRANCH   7  15
ATOM     15  C   UNL     1       1.464   5.691   8.898  0.00  0.00    -0.021 A 
ATOM     16  C   UNL     1       1.959   4.799   9.859  0.00  0.00    +0.012 A 
ATOM     17  C   UNL     1       2.351   5.266  11.093  0.00  0.00    +0.050 A 
ATOM     18  C   UNL     1       2.257   6.620  11.390  0.00  0.00    +0.162 A 
ATOM     19  C   UNL     1       1.765   7.515  10.440  0.00  0.00    +0.162 A 
ATOM     20  C   UNL     1       1.375   7.058   9.198  0.00  0.00    +0.057 A 
BRANCH  19  21
ATOM     21  O   UNL     1       1.674   8.839  10.736  0.00  0.00    -0.491 OA
ATOM     22  C   UNL     1       1.162   9.699   9.716  0.00  0.00    +0.277 C 
ENDBRANCH  19  21
BRANCH  18  23
ATOM     23  O   UNL     1       2.644   7.073  12.610  0.00  0.00    -0.484 OA
BRANCH  23  24
ATOM     24  C   UNL     1       3.138   6.103  13.536  0.00  0.00    +0.256 C 
BRANCH  24  25
ATOM     25  C   UNL     1       3.516   6.786  14.825  0.00  0.00    +0.006 C 
ATOM     26  C   UNL     1       3.159   6.264  15.972  0.00  0.00    +0.007 C 
ENDBRANCH  24  25
ENDBRANCH  23  24
ENDBRANCH  18  23
ENDBRANCH   7  15
BRANCH   1  27
ATOM     27  C   UNL     1       0.606  -1.214   4.122  0.00  0.00    +0.293 C 
BRANCH  27  28
ATOM     28  O   UNL     1       0.886  -0.572   2.876  0.00  0.00    -0.485 OA
BRANCH  28  35
ATOM     29  C   UNL     1       1.441   0.677   0.404  0.00  0.00    +0.047 C 
ATOM     30  C   UNL     1       1.379  -0.820   0.562  0.00  0.00    -0.009 A 
ATOM     31  C   UNL     1       1.604  -1.640  -0.527  0.00  0.00    +0.007 A 
ATOM     32  C   UNL     1       1.547  -3.014  -0.383  0.00  0.00    +0.000 A 
ATOM     33  C   UNL     1       1.265  -3.571   0.852  0.00  0.00    +0.004 A 
ATOM     34  C   UNL     1       1.040  -2.755   1.943  0.00  0.00    +0.046 A 
ATOM     35  C   UNL     1       1.102  -1.376   1.802  0.00  0.00    +0.124 A 
ENDBRANCH  28  35
ENDBRANCH  27  28
ENDBRANCH   1  27
TORSDOF 8
