REMARK  Name = ZINC17142381
REMARK  15 active torsions:
REMARK  status: ('A' for Active; 'I' for Inactive)
REMARK    1  A    between atoms: C_1  and  C_2
REMARK    2  A    between atoms: C_3  and  C_10
REMARK    3  A    between atoms: C_4  and  C_8
REMARK    4  A    between atoms: C_4  and  C_9
REMARK    5  A    between atoms: C_11  and  C_12
REMARK    6  A    between atoms: C_12  and  C_35
REMARK    7  A    between atoms: C_13  and  C_14
REMARK    8  A    between atoms: C_15  and  C_16
REMARK    9  A    between atoms: C_16  and  C_34
REMARK   10  A    between atoms: C_17  and  C_18
REMARK   11  A    between atoms: C_18  and  O_20
REMARK   12  A    between atoms: O_20  and  C_21
REMARK   13  A    between atoms: C_27  and  C_33
REMARK   14  A    between atoms: C_29  and  C_31
REMARK   15  A    between atoms: C_29  and  C_32
REMARK                            x       y       z     vdW  Elec       q    Type
REMARK                         _______ _______ _______ _____ _____    ______ ____
ROOT
ATOM      1  C   UNL     1       5.233   2.866   8.405  0.00  0.00    -0.044 C 
ATOM      2  C   UNL     1       5.371   4.123   8.917  0.00  0.00    +0.095 C 
ATOM      3  C   UNL     1       4.501   1.809   9.191  0.00  0.00    +0.044 C 
ENDROOT
BRANCH   1   5
ATOM      4  C   UNL     1       4.944   2.266   6.103  0.00  0.00    +0.001 C 
ATOM      5  C   UNL     1       5.772   2.558   7.148  0.00  0.00    +0.003 C 
BRANCH   4   7
ATOM      6  C   UNL     1       2.721   2.011   5.243  0.00  0.00    -0.050 C 
ATOM      7  C   UNL     1       3.555   2.403   6.249  0.00  0.00    +0.003 C 
ATOM      8  C   UNL     1       1.234   2.214   5.375  0.00  0.00    +0.044 C 
BRANCH   6  10
ATOM      9  C   UNL     1       2.993   1.963   2.864  0.00  0.00    +0.004 C 
ATOM     10  C   UNL     1       3.250   1.419   4.082  0.00  0.00    +0.003 C 
BRANCH   9  13
ATOM     11  C   UNL     1       3.749   4.258   4.076  0.00  0.00    +0.039 C 
ATOM     12  C   UNL     1       2.437   4.198   3.336  0.00  0.00    -0.069 C 
ATOM     13  C   UNL     1       2.102   3.060   2.751  0.00  0.00    -0.043 C 
ATOM     14  C   UNL     1       0.832   2.865   1.976  0.00  0.00    -0.010 C 
ATOM     15  C   UNL     1      -0.168   3.973   2.315  0.00  0.00    +0.011 C 
ATOM     16  C   UNL     1       0.543   5.325   2.189  0.00  0.00    +0.005 C 
ATOM     17  C   UNL     1       1.582   5.432   3.309  0.00  0.00    +0.031 C 
ATOM     18  C   UNL     1       1.141   2.901   0.478  0.00  0.00    +0.016 C 
ATOM     19  C   UNL     1       0.224   1.507   2.333  0.00  0.00    +0.016 C 
ENDBRANCH   9  13
ENDBRANCH   6  10
ENDBRANCH   4   7
ENDBRANCH   1   5
BRANCH   2  20
ATOM     20  C   UNL     1       5.940   5.146   8.131  0.00  0.00    +0.337 C 
ATOM     21  O   UNL     1       6.399   4.886   7.034  0.00  0.00    -0.245 OA
BRANCH  20  22
ATOM     22  O   UNL     1       5.976   6.413   8.595  0.00  0.00    -0.423 OA
BRANCH  22  23
ATOM     23  C   UNL     1       6.437   7.385   7.763  0.00  0.00    +0.133 A 
ATOM     24  C   UNL     1       5.687   7.759   6.656  0.00  0.00    +0.048 A 
ATOM     25  C   UNL     1       6.143   8.747   5.802  0.00  0.00    +0.027 A 
ATOM     26  C   UNL     1       7.354   9.365   6.053  0.00  0.00    +0.035 A 
ATOM     27  C   UNL     1       8.118   8.990   7.170  0.00  0.00    +0.002 A 
ATOM     28  C   UNL     1       7.650   8.001   8.028  0.00  0.00    +0.056 A 
ATOM     29  C   UNL     1       9.410   9.666   7.404  0.00  0.00    -0.043 C 
ATOM     30  C   UNL     1       9.685  10.797   6.767  0.00  0.00    +0.002 C 
ATOM     31  C   UNL     1       8.695  11.416   5.817  0.00  0.00    +0.045 C 
ATOM     32  N   UNL     1       7.852  10.372   5.220  0.00  0.00    -0.335 N 
ATOM     33  C   UNL     1       9.448  12.156   4.709  0.00  0.00    +0.036 C 
ATOM     34  C   UNL     1       7.812  12.406   6.580  0.00  0.00    +0.036 C 
ATOM     35  C   UNL     1      10.411   9.073   8.362  0.00  0.00    +0.044 C 
ATOM     36  H   UNL     1       7.646  10.380   4.273  0.00  0.00    +0.147 HD
ENDBRANCH  22  23
ENDBRANCH  20  22
ENDBRANCH   2  20
TORSDOF 7
