REMARK  Name = ZINC36246123
REMARK  17 active torsions:
REMARK  status: ('A' for Active; 'I' for Inactive)
REMARK    1  A    between atoms: C_1  and  C_2
REMARK    2  A    between atoms: C_2  and  C_3
REMARK    3  A    between atoms: C_2  and  O_4
REMARK    4  A    between atoms: O_4  and  C_5
REMARK    5  A    between atoms: C_5  and  C_6
REMARK    6  A    between atoms: C_6  and  C_8
REMARK    7  A    between atoms: C_6  and  O_37
REMARK    8  A    between atoms: C_8  and  N_9
REMARK    9  A    between atoms: N_9  and  C_10
REMARK   10  A    between atoms: N_9  and  C_15
REMARK   11  A    between atoms: C_10  and  C_11
REMARK   12  A    between atoms: C_11  and  C_12
REMARK   13  A    between atoms: C_12  and  O_13
REMARK   14  A    between atoms: O_13  and  C_14
REMARK   15  A    between atoms: C_15  and  C_16
REMARK   16  A    between atoms: C_17  and  C_31
REMARK   17  A    between atoms: C_20  and  N_21
REMARK                            x       y       z     vdW  Elec       q    Type
REMARK                         _______ _______ _______ _____ _____    ______ ____
ROOT
ATOM      1  C   UNL     1       6.762  -1.700  -4.981  0.00  0.00    +0.025 A 
ATOM      2  C   UNL     1       7.196  -2.932  -5.513  0.00  0.00    +0.117 A 
ATOM      3  N   UNL     1       7.998  -2.677  -6.521  0.00  0.00    -0.076 NA
ATOM      4  O   UNL     1       8.096  -1.272  -6.657  0.00  0.00    -0.339 OA
ATOM      5  C   UNL     1       7.329  -0.706  -5.710  0.00  0.00    +0.223 A 
ENDROOT
BRANCH   5   6
ATOM      6  N   UNL     1       7.151   0.651  -5.511  0.00  0.00    -0.295 N 
ATOM      7  C   UNL     1       8.098   1.437  -4.702  0.00  0.00    +0.113 C 
ATOM      8  C   UNL     1       8.765   2.458  -5.622  0.00  0.00    +0.054 C 
ATOM      9  C   UNL     1       7.741   3.172  -6.463  0.00  0.00    -0.041 A 
ATOM     10  C   UNL     1       8.102   4.392  -7.022  0.00  0.00    +0.004 A 
ATOM     11  C   UNL     1       7.215   5.093  -7.811  0.00  0.00    +0.000 A 
ATOM     12  C   UNL     1       5.954   4.580  -8.051  0.00  0.00    +0.000 A 
ATOM     13  C   UNL     1       5.591   3.371  -7.495  0.00  0.00    +0.005 A 
ATOM     14  C   UNL     1       6.481   2.667  -6.696  0.00  0.00    -0.027 A 
ATOM     15  C   UNL     1       6.015   1.366  -6.102  0.00  0.00    +0.143 C 
ENDBRANCH   5   6
BRANCH   2  16
ATOM     16  C   UNL     1       6.814  -4.279  -5.020  0.00  0.00    +0.004 A 
ATOM     17  C   UNL     1       6.802  -4.546  -3.653  0.00  0.00    +0.010 A 
ATOM     18  C   UNL     1       6.445  -5.801  -3.200  0.00  0.00    +0.001 A 
ATOM     19  C   UNL     1       6.100  -6.792  -4.101  0.00  0.00    +0.000 A 
ATOM     20  C   UNL     1       6.110  -6.532  -5.460  0.00  0.00    +0.001 A 
ATOM     21  C   UNL     1       6.460  -5.280  -5.923  0.00  0.00    +0.010 A 
ENDBRANCH   2  16
BRANCH   1  22
ATOM     22  C   UNL     1       5.827  -1.520  -3.812  0.00  0.00    -0.035 C 
BRANCH  22  23
ATOM     23  N   UNL     1       4.460  -1.307  -4.307  0.00  0.00    +0.384 N 
ATOM     24  H   UNL     1       4.459  -0.555  -4.980  0.00  0.00    -0.081 HD
BRANCH  23  25
ATOM     25  C   UNL     1       3.581  -0.960  -3.182  0.00  0.00    -0.044 C 
BRANCH  25  26
ATOM     26  C   UNL     1       3.575  -2.105  -2.167  0.00  0.00    +0.124 C 
BRANCH  26  27
ATOM     27  O   UNL     1       4.865  -2.212  -1.562  0.00  0.00    -0.391 OA
ATOM     28  H   UNL     1       5.113  -1.446  -1.026  0.00  0.00    +0.210 HD
ENDBRANCH  26  27
BRANCH  26  29
ATOM     29  C   UNL     1       2.527  -1.824  -1.089  0.00  0.00    +0.189 C 
BRANCH  29  30
ATOM     30  O   UNL     1       2.439  -2.945  -0.207  0.00  0.00    -0.375 OA
BRANCH  30  32
ATOM     31  C   UNL     1       0.123  -3.308   0.379  0.00  0.00    +0.037 C 
ATOM     32  C   UNL     1       1.484  -2.785   0.844  0.00  0.00    +0.112 C 
ATOM     33  C   UNL     1       1.940  -3.573   2.073  0.00  0.00    +0.037 C 
ENDBRANCH  30  32
ENDBRANCH  29  30
ENDBRANCH  26  29
ENDBRANCH  25  26
ENDBRANCH  23  25
BRANCH  23  34
ATOM     34  C   UNL     1       3.975  -2.537  -4.947  0.00  0.00    -0.076 C 
BRANCH  34  35
ATOM     35  C   UNL     1       2.613  -2.273  -5.593  0.00  0.00    +0.009 C 
BRANCH  35  36
ATOM     36  C   UNL     1       2.081  -3.568  -6.209  0.00  0.00    +0.157 C 
BRANCH  36  37
ATOM     37  O   UNL     1       0.809  -3.321  -6.812  0.00  0.00    -0.383 OA
ATOM     38  C   UNL     1       0.221  -4.472  -7.421  0.00  0.00    +0.193 C 
ENDBRANCH  36  37
ENDBRANCH  35  36
ENDBRANCH  34  35
ENDBRANCH  23  34
ENDBRANCH  22  23
ENDBRANCH   1  22
TORSDOF 14
