REMARK  Name = ZINC15730981
REMARK  6 active torsions:
REMARK  status: ('A' for Active; 'I' for Inactive)
REMARK    1  A    between atoms: C_1  and  C_2
REMARK    2  A    between atoms: C_10  and  S_15
REMARK    3  A    between atoms: S_15  and  N_18
REMARK    4  A    between atoms: N_18  and  C_19
REMARK    5  A    between atoms: C_22  and  N_25
REMARK    6  A    between atoms: C_28  and  C_31
REMARK                            x       y       z     vdW  Elec       q    Type
REMARK                         _______ _______ _______ _____ _____    ______ ____
ROOT
ATOM      1  S   UNL     1      -1.169  -6.732   1.985  0.00  0.00    +0.072 S 
ATOM      2  O   UNL     1      -2.321  -6.771   2.815  0.00  0.00    -0.150 OA
ATOM      3  O   UNL     1      -0.268  -5.633   1.983  0.00  0.00    -0.150 OA
ENDROOT
BRANCH   1  12
ATOM      4  C   UNL     1       3.694 -13.573   1.842  0.00  0.00    +0.020 C 
ATOM      5  C   UNL     1       2.501 -12.618   1.770  0.00  0.00    +0.057 C 
ATOM      6  C   UNL     1       2.790 -11.495   0.758  0.00  0.00    +0.110 C 
ATOM      7  C   UNL     1       3.708 -10.473   1.358  0.00  0.00    +0.218 C 
ATOM      8  O   UNL     1       4.908 -10.612   1.246  0.00  0.00    -0.275 OA
ATOM      9  N   UNL     1       3.230  -9.408   2.015  0.00  0.00    -0.284 N 
ATOM     10  C   UNL     1       1.869  -9.336   2.350  0.00  0.00    +0.049 A 
ATOM     11  C   UNL     1       1.123  -8.211   2.040  0.00  0.00    +0.053 A 
ATOM     12  C   UNL     1      -0.218  -8.163   2.377  0.00  0.00    +0.110 A 
ATOM     13  C   UNL     1      -0.815  -9.231   3.021  0.00  0.00    +0.030 A 
ATOM     14  C   UNL     1      -0.077 -10.358   3.335  0.00  0.00    +0.018 A 
ATOM     15  C   UNL     1       1.267 -10.411   3.001  0.00  0.00    +0.029 A 
ATOM     16  S   UNL     1       2.234 -11.833   3.395  0.00  0.00    -0.120 S 
ATOM     17  H   UNL     1       3.826  -8.684   2.260  0.00  0.00    +0.155 HD
ENDBRANCH   1  12
BRANCH   1  18
ATOM     18  N   UNL     1      -1.701  -6.910   0.427  0.00  0.00    -0.216 N 
ATOM     19  H   UNL     1      -2.652  -6.945   0.241  0.00  0.00    +0.174 HD
BRANCH  18  20
ATOM     20  C   UNL     1      -0.778  -7.010  -0.621  0.00  0.00    +0.048 A 
ATOM     21  C   UNL     1       0.295  -6.132  -0.687  0.00  0.00    +0.026 A 
ATOM     22  C   UNL     1       1.205  -6.230  -1.721  0.00  0.00    +0.025 A 
ATOM     23  C   UNL     1       1.047  -7.208  -2.694  0.00  0.00    +0.030 A 
ATOM     24  C   UNL     1      -0.026  -8.086  -2.628  0.00  0.00    +0.025 A 
ATOM     25  C   UNL     1      -0.933  -7.991  -1.591  0.00  0.00    +0.026 A 
BRANCH  23  26
ATOM     26  N   UNL     1       1.969  -7.307  -3.743  0.00  0.00    -0.330 N 
ATOM     27  C   UNL     1       1.887  -8.411  -4.710  0.00  0.00    +0.105 C 
ATOM     28  C   UNL     1       1.847  -7.824  -6.125  0.00  0.00    +0.022 C 
ATOM     29  C   UNL     1       3.052  -6.902  -6.324  0.00  0.00    -0.011 C 
ATOM     30  C   UNL     1       2.985  -5.748  -5.321  0.00  0.00    +0.022 C 
ATOM     31  C   UNL     1       3.034  -6.307  -3.901  0.00  0.00    +0.105 C 
ATOM     32  C   UNL     1       3.034  -6.341  -7.748  0.00  0.00    +0.007 C 
ENDBRANCH  23  26
ENDBRANCH  18  20
ENDBRANCH   1  18
TORSDOF 4
