REMARK  Name = ZINC13271092
REMARK  9 active torsions:
REMARK  status: ('A' for Active; 'I' for Inactive)
REMARK    1  A    between atoms: C_1  and  C_2
REMARK    2  A    between atoms: C_4  and  C_32
REMARK    3  A    between atoms: C_6  and  S_10
REMARK    4  A    between atoms: C_7  and  C_8
REMARK    5  A    between atoms: S_10  and  C_11
REMARK    6  A    between atoms: C_11  and  C_12
REMARK    7  A    between atoms: C_15  and  C_27
REMARK    8  A    between atoms: C_18  and  C_20
REMARK    9  A    between atoms: C_21  and  C_22
REMARK                            x       y       z     vdW  Elec       q    Type
REMARK                         _______ _______ _______ _____ _____    ______ ____
ROOT
ATOM      1  C   UNL     1      -4.098  -0.071   0.042  0.00  0.00    +0.246 C 
ATOM      2  O   UNL     1      -4.285  -1.270   0.038  0.00  0.00    -0.273 OA
ATOM      3  N   UNL     1      -5.147   0.774   0.057  0.00  0.00    -0.181 N 
ATOM      4  C   UNL     1      -6.564   0.378   0.063  0.00  0.00    +0.172 C 
ATOM      5  C   UNL     1      -7.318   1.723   0.083  0.00  0.00    +0.089 C 
ATOM      6  C   UNL     1      -6.217   2.759   0.078  0.00  0.00    +0.062 C 
ATOM      7  N   UNL     1      -5.067   2.165   0.064  0.00  0.00    -0.181 NA
ENDROOT
BRANCH   4   8
ATOM      8  C   UNL     1      -6.885  -0.424   1.298  0.00  0.00    +0.128 A 
ATOM      9  C   UNL     1      -7.704  -1.490   1.352  0.00  0.00    +0.046 A 
ATOM     10  C   UNL     1      -7.714  -1.931   2.696  0.00  0.00    +0.041 A 
ATOM     11  C   UNL     1      -6.901  -1.107   3.382  0.00  0.00    +0.195 A 
ATOM     12  O   UNL     1      -6.397  -0.201   2.529  0.00  0.00    -0.466 OA
ENDBRANCH   4   8
BRANCH   6  13
ATOM     13  C   UNL     1      -6.413   4.160   0.087  0.00  0.00    +0.028 C 
ATOM     14  C   UNL     1      -5.346   4.993   0.081  0.00  0.00    +0.048 C 
BRANCH  14  15
ATOM     15  C   UNL     1      -5.549   6.441   0.090  0.00  0.00    +0.128 A 
ATOM     16  C   UNL     1      -4.565   7.391   0.091  0.00  0.00    +0.049 A 
ATOM     17  C   UNL     1      -5.209   8.640   0.098  0.00  0.00    +0.042 A 
ATOM     18  C   UNL     1      -6.537   8.402   0.110  0.00  0.00    +0.195 A 
ATOM     19  O   UNL     1      -6.739   7.075   0.105  0.00  0.00    -0.464 OA
ENDBRANCH  14  15
ENDBRANCH   6  13
BRANCH   1  20
ATOM     20  C   UNL     1      -2.692   0.472   0.031  0.00  0.00    +0.173 C 
BRANCH  20  21
ATOM     21  S   UNL     1      -1.514  -0.901   0.012  0.00  0.00    -0.096 S 
BRANCH  21  27
ATOM     22  C   UNL     1       3.754  -0.658  -0.038  0.00  0.00    +0.045 C 
ATOM     23  C   UNL     1       2.417   0.038  -0.021  0.00  0.00    -0.032 A 
ATOM     24  C   UNL     1       2.337   1.419  -0.013  0.00  0.00    +0.027 A 
ATOM     25  C   UNL     1       1.095   2.030   0.003  0.00  0.00    +0.040 A 
ATOM     26  N   UNL     1      -0.016   1.321   0.009  0.00  0.00    -0.245 NA
ATOM     27  C   UNL     1       0.002  -0.004   0.002  0.00  0.00    +0.112 A 
ATOM     28  C   UNL     1       1.226  -0.698  -0.013  0.00  0.00    +0.098 A 
ATOM     29  C   UNL     1       1.012   3.535   0.011  0.00  0.00    +0.065 C 
BRANCH  28  30
ATOM     30  C   UNL     1       1.254  -2.170  -0.021  0.00  0.00    +0.389 C 
ATOM     31  O   UNL     1       1.255  -2.772  -1.077  0.00  0.00    -0.240 OA
ATOM     32  O   UNL     1       1.278  -2.849   1.143  0.00  0.00    -0.240 OA
ENDBRANCH  28  30
ENDBRANCH  21  27
ENDBRANCH  20  21
ENDBRANCH   1  20
TORSDOF 7
