REMARK  Name = ZINC10233204
REMARK  10 active torsions:
REMARK  status: ('A' for Active; 'I' for Inactive)
REMARK    1  A    between atoms: C_1  and  C_2
REMARK    2  A    between atoms: C_2  and  N_56
REMARK    3  A    between atoms: C_3  and  C_4
REMARK    4  A    between atoms: C_3  and  N_56
REMARK    5  A    between atoms: C_5  and  C_6
REMARK    6  A    between atoms: C_5  and  N_56
REMARK    7  A    between atoms: C_6  and  N_7
REMARK    8  A    between atoms: C_8  and  C_25
REMARK    9  A    between atoms: C_16  and  O_23
REMARK   10  A    between atoms: O_23  and  C_24
REMARK                            x       y       z     vdW  Elec       q    Type
REMARK                         _______ _______ _______ _____ _____    ______ ____
ROOT
ATOM      1  N   UNL     1      -3.867   8.778   4.879  0.00  0.00    -0.285 N 
ATOM      2  C   UNL     1      -3.359   8.950   3.512  0.00  0.00    +0.144 C 
ATOM      3  C   UNL     1      -3.385   7.580   2.885  0.00  0.00    +0.072 A 
ATOM      4  C   UNL     1      -3.009   7.089   1.556  0.00  0.00    +0.199 A 
ATOM      5  O   UNL     1      -2.575   7.837   0.697  0.00  0.00    -0.287 OA
ATOM      6  C   UNL     1      -3.181   5.646   1.310  0.00  0.00    +0.065 A 
ATOM      7  C   UNL     1      -2.854   5.074   0.079  0.00  0.00    +0.019 A 
ATOM      8  C   UNL     1      -3.027   3.733  -0.111  0.00  0.00    +0.046 A 
ATOM      9  C   UNL     1      -3.529   2.936   0.917  0.00  0.00    +0.124 A 
ATOM     10  C   UNL     1      -3.863   3.490   2.141  0.00  0.00    +0.092 A 
ATOM     11  C   UNL     1      -3.687   4.851   2.354  0.00  0.00    +0.143 A 
ATOM     12  O   UNL     1      -4.003   5.404   3.540  0.00  0.00    -0.449 OA
ATOM     13  C   UNL     1      -3.863   6.716   3.813  0.00  0.00    +0.199 A 
ATOM     14  C   UNL     1      -4.160   7.478   5.052  0.00  0.00    +0.283 C 
ATOM     15  O   UNL     1      -4.604   6.996   6.075  0.00  0.00    -0.267 OA
ENDROOT
BRANCH   2  16
ATOM     16  C   UNL     1      -4.250   9.890   2.741  0.00  0.00    -0.022 A 
ATOM     17  C   UNL     1      -5.620   9.845   2.919  0.00  0.00    +0.008 A 
ATOM     18  C   UNL     1      -6.437  10.710   2.217  0.00  0.00    +0.038 A 
ATOM     19  C   UNL     1      -5.883  11.615   1.327  0.00  0.00    +0.123 A 
ATOM     20  C   UNL     1      -4.511  11.656   1.146  0.00  0.00    +0.038 A 
ATOM     21  C   UNL     1      -3.696  10.793   1.853  0.00  0.00    +0.008 A 
ATOM     22  F   UNL     1      -6.682  12.457   0.635  0.00  0.00    -0.205 F 
ENDBRANCH   2  16
BRANCH   9  23
ATOM     23  O   UNL     1      -3.697   1.605   0.714  0.00  0.00    -0.495 OA
ATOM     24  C   UNL     1      -3.339   1.095  -0.572  0.00  0.00    +0.277 C 
ENDBRANCH   9  23
BRANCH   1  25
ATOM     25  C   UNL     1      -4.026   9.838   5.878  0.00  0.00    +0.090 C 
BRANCH  25  26
ATOM     26  C   UNL     1      -2.739   9.966   6.695  0.00  0.00    -0.060 C 
BRANCH  26  27
ATOM     27  N   UNL     1      -2.923  11.024   7.711  0.00  0.00    +0.380 N 
ATOM     28  H   UNL     1      -3.785  10.836   8.235  0.00  0.00    -0.082 HD
BRANCH  27  30
ATOM     29  C   UNL     1      -1.955   9.866   9.634  0.00  0.00    -0.017 C 
ATOM     30  C   UNL     1      -1.781  11.025   8.650  0.00  0.00    -0.082 C 
ENDBRANCH  27  30
BRANCH  27  31
ATOM     31  C   UNL     1      -3.037  12.342   7.054  0.00  0.00    -0.082 C 
ATOM     32  C   UNL     1      -3.590  13.349   8.064  0.00  0.00    -0.017 C 
ENDBRANCH  27  31
ENDBRANCH  26  27
ENDBRANCH  25  26
ENDBRANCH   1  25
TORSDOF 7
