REMARK  Name = ZINC12616728
REMARK  12 active torsions:
REMARK  status: ('A' for Active; 'I' for Inactive)
REMARK    1  A    between atoms: C_1  and  C_2
REMARK    2  A    between atoms: C_2  and  C_3
REMARK    3  A    between atoms: C_3  and  C_4
REMARK    4  A    between atoms: C_4  and  N_5
REMARK    5  A    between atoms: C_9  and  S_30
REMARK    6  A    between atoms: C_13  and  C_14
REMARK    7  A    between atoms: C_14  and  S_15
REMARK    8  A    between atoms: S_15  and  C_16
REMARK    9  A    between atoms: C_20  and  C_22
REMARK   10  A    between atoms: C_25  and  C_28
REMARK   11  A    between atoms: C_28  and  C_29
REMARK   12  A    between atoms: S_30  and  N_33
REMARK                            x       y       z     vdW  Elec       q    Type
REMARK                         _______ _______ _______ _____ _____    ______ ____
ROOT
ATOM      1  N   UNL     1      -1.752   4.872  -4.971  0.00  0.00    -0.327 N 
ATOM      2  C   UNL     1      -1.575   4.359  -3.702  0.00  0.00    +0.069 A 
ATOM      3  C   UNL     1      -1.045   4.861  -2.521  0.00  0.00    +0.030 A 
ATOM      4  C   UNL     1      -1.019   4.070  -1.393  0.00  0.00    +0.030 A 
ATOM      5  C   UNL     1      -1.507   2.771  -1.433  0.00  0.00    +0.107 A 
ATOM      6  C   UNL     1      -2.031   2.260  -2.587  0.00  0.00    +0.058 A 
ATOM      7  C   UNL     1      -2.074   3.046  -3.741  0.00  0.00    +0.091 A 
ATOM      8  N   UNL     1      -2.520   2.830  -5.005  0.00  0.00    -0.231 NA
ATOM      9  C   UNL     1      -2.332   3.898  -5.724  0.00  0.00    +0.121 A 
ENDROOT
BRANCH   5  10
ATOM     10  S   UNL     1      -1.456   1.774   0.019  0.00  0.00    +0.056 S 
ATOM     11  O   UNL     1      -2.472   0.792  -0.128  0.00  0.00    -0.153 OA
ATOM     12  O   UNL     1      -1.413   2.667   1.123  0.00  0.00    -0.153 OA
BRANCH  10  13
ATOM     13  N   UNL     1      -0.011   0.966   0.007  0.00  0.00    -0.204 NA
ATOM     14  H   UNL     1       0.002  -0.004   0.002  0.00  0.00    +0.144 HD
ATOM     15  H   UNL     1       0.822   1.462   0.002  0.00  0.00    +0.144 HD
ENDBRANCH  10  13
ENDBRANCH   5  10
BRANCH   1  16
ATOM     16  C   UNL     1      -1.384   6.216  -5.423  0.00  0.00    +0.123 C 
BRANCH  16  17
ATOM     17  C   UNL     1      -2.561   7.168  -5.203  0.00  0.00    +0.021 C 
BRANCH  17  19
ATOM     18  C   UNL     1      -3.354   9.524  -5.455  0.00  0.00    +0.004 C 
ATOM     19  C   UNL     1      -2.177   8.572  -5.676  0.00  0.00    -0.002 C 
ENDBRANCH  17  19
ENDBRANCH  16  17
ENDBRANCH   1  16
BRANCH   9  20
ATOM     20  C   UNL     1      -2.701   4.037  -7.178  0.00  0.00    +0.151 C 
BRANCH  20  21
ATOM     21  S   UNL     1      -4.393   4.666  -7.313  0.00  0.00    -0.079 S 
BRANCH  21  22
ATOM     22  C   UNL     1      -4.557   4.728  -9.067  0.00  0.00    +0.185 A 
ATOM     23  N   UNL     1      -5.653   5.130  -9.748  0.00  0.00    -0.253 N 
ATOM     24  H   UNL     1      -6.492   5.437  -9.369  0.00  0.00    +0.191 HD
ATOM     25  N   UNL     1      -5.338   5.019 -11.112  0.00  0.00    -0.152 NA
ATOM     26  C   UNL     1      -4.108   4.562 -11.184  0.00  0.00    +0.182 A 
ATOM     27  N   UNL     1      -3.637   4.386  -9.941  0.00  0.00    -0.201 NA
BRANCH  26  28
ATOM     28  C   UNL     1      -3.363   4.284 -12.437  0.00  0.00    +0.021 A 
ATOM     29  C   UNL     1      -2.056   3.804 -12.382  0.00  0.00    +0.012 A 
ATOM     30  C   UNL     1      -1.370   3.543 -13.550  0.00  0.00    +0.004 A 
ATOM     31  C   UNL     1      -1.973   3.768 -14.775  0.00  0.00    -0.048 A 
ATOM     32  C   UNL     1      -3.268   4.250 -14.835  0.00  0.00    +0.004 A 
ATOM     33  C   UNL     1      -3.966   4.509 -13.673  0.00  0.00    +0.012 A 
BRANCH  31  34
ATOM     34  C   UNL     1      -1.216   3.486 -16.047  0.00  0.00    +0.032 C 
ATOM     35  C   UNL     1      -0.457   4.743 -16.478  0.00  0.00    +0.009 C 
ENDBRANCH  31  34
ENDBRANCH  26  28
ENDBRANCH  21  22
ENDBRANCH  20  21
ENDBRANCH   9  20
TORSDOF 10
