REMARK  Name = ZINC36541505
REMARK  14 active torsions:
REMARK  status: ('A' for Active; 'I' for Inactive)
REMARK    1  A    between atoms: C_1  and  C_2
REMARK    2  A    between atoms: C_2  and  C_3
REMARK    3  A    between atoms: C_3  and  C_4
REMARK    4  A    between atoms: C_4  and  N_5
REMARK    5  A    between atoms: C_6  and  C_8
REMARK    6  A    between atoms: C_8  and  C_10
REMARK    7  A    between atoms: C_8  and  N_19
REMARK    8  A    between atoms: C_11  and  O_18
REMARK    9  A    between atoms: C_13  and  O_17
REMARK   10  A    between atoms: C_15  and  O_16
REMARK   11  A    between atoms: N_19  and  C_20
REMARK   12  A    between atoms: C_27  and  C_29
REMARK   13  A    between atoms: C_29  and  C_30
REMARK   14  A    between atoms: C_35  and  C_36
REMARK                            x       y       z     vdW  Elec       q    Type
REMARK                         _______ _______ _______ _____ _____    ______ ____
ROOT
ATOM      1  C   UNL     1       2.587  -4.648  -4.044  0.00  0.00    +0.204 C 
ENDROOT
BRANCH   1   2
ATOM      2  C   UNL     1       2.079  -3.975  -5.294  0.00  0.00    +0.065 A 
ATOM      3  C   UNL     1       0.845  -4.329  -5.819  0.00  0.00    +0.129 A 
ATOM      4  C   UNL     1       0.378  -3.710  -6.969  0.00  0.00    +0.091 A 
ATOM      5  C   UNL     1       1.144  -2.737  -7.593  0.00  0.00    +0.124 A 
ATOM      6  C   UNL     1       2.378  -2.383  -7.067  0.00  0.00    +0.091 A 
ATOM      7  C   UNL     1       2.843  -2.999  -5.915  0.00  0.00    +0.129 A 
BRANCH   7   8
ATOM      8  O   UNL     1       4.050  -2.648  -5.397  0.00  0.00    -0.506 OA
ATOM      9  H   UNL     1       4.790  -3.167  -5.740  0.00  0.00    +0.292 HD
ENDBRANCH   7   8
BRANCH   5  10
ATOM     10  O   UNL     1       0.687  -2.131  -8.720  0.00  0.00    -0.507 OA
ATOM     11  H   UNL     1       0.166  -1.334  -8.554  0.00  0.00    +0.292 HD
ENDBRANCH   5  10
BRANCH   3  12
ATOM     12  O   UNL     1       0.094  -5.282  -5.207  0.00  0.00    -0.506 OA
ATOM     13  H   UNL     1      -0.569  -4.929  -4.599  0.00  0.00    +0.292 HD
ENDBRANCH   3  12
ENDBRANCH   1   2
BRANCH   1  15
ATOM     14  N   UNL     1       2.316  -3.166  -2.082  0.00  0.00    -0.313 N 
ATOM     15  C   UNL     1       1.810  -4.148  -2.854  0.00  0.00    +0.239 C 
ATOM     16  O   UNL     1       0.728  -4.630  -2.590  0.00  0.00    -0.273 OA
ATOM     17  H   UNL     1       3.181  -2.781  -2.293  0.00  0.00    +0.149 HD
BRANCH  14  18
ATOM     18  C   UNL     1       1.560  -2.681  -0.924  0.00  0.00    +0.104 C 
BRANCH  18  19
ATOM     19  C   UNL     1       2.353  -1.574  -0.226  0.00  0.00    +0.018 C 
BRANCH  19  21
ATOM     20  C   UNL     1       2.356   0.039   1.682  0.00  0.00    +0.004 C 
ATOM     21  C   UNL     1       1.564  -1.067   0.983  0.00  0.00    -0.002 C 
ENDBRANCH  19  21
ENDBRANCH  18  19
ENDBRANCH  14  18
ENDBRANCH   1  15
BRANCH   1  22
ATOM     22  N   UNL     1       2.416  -6.098  -4.166  0.00  0.00    -0.253 N 
ATOM     23  C   UNL     1       2.795  -6.728  -5.295  0.00  0.00    +0.225 C 
ATOM     24  O   UNL     1       3.277  -6.096  -6.211  0.00  0.00    -0.275 OA
BRANCH  22  25
ATOM     25  C   UNL     1       1.859  -6.828  -3.110  0.00  0.00    +0.056 A 
ATOM     26  C   UNL     1       0.533  -7.236  -3.169  0.00  0.00    +0.025 A 
ATOM     27  C   UNL     1      -0.014  -7.956  -2.125  0.00  0.00    +0.002 A 
ATOM     28  C   UNL     1       0.757  -8.271  -1.021  0.00  0.00    +0.002 A 
ATOM     29  C   UNL     1       2.077  -7.866  -0.958  0.00  0.00    +0.022 A 
ATOM     30  C   UNL     1       2.633  -7.150  -2.002  0.00  0.00    +0.062 A 
ATOM     31 CL   UNL     1       4.293  -6.649  -1.926  0.00  0.00    -0.082 Cl
ENDBRANCH  22  25
BRANCH  23  32
ATOM     32  C   UNL     1       2.619  -8.220  -5.421  0.00  0.00    +0.131 C 
BRANCH  32  33
ATOM     33  C   UNL     1       3.117  -8.673  -6.769  0.00  0.00    -0.036 A 
ATOM     34  C   UNL     1       2.233  -8.807  -7.823  0.00  0.00    +0.004 A 
ATOM     35  C   UNL     1       2.690  -9.222  -9.060  0.00  0.00    +0.000 A 
ATOM     36  C   UNL     1       4.031  -9.504  -9.242  0.00  0.00    +0.000 A 
ATOM     37  C   UNL     1       4.915  -9.369  -8.188  0.00  0.00    +0.003 A 
ATOM     38  C   UNL     1       4.459  -8.949  -6.952  0.00  0.00    -0.047 A 
ATOM     39  C   UNL     1       5.423  -8.797  -5.804  0.00  0.00    +0.044 C 
ENDBRANCH  32  33
ENDBRANCH  23  32
ENDBRANCH   1  22
TORSDOF 12
