REMARK  Name = ZINC25995238
REMARK  6 active torsions:
REMARK  status: ('A' for Active; 'I' for Inactive)
REMARK    1  A    between atoms: C_9  and  N_11
REMARK    2  A    between atoms: N_18  and  C1*_21
REMARK    3  A    between atoms: C2*_23  and  O2*_33
REMARK    4  A    between atoms: C3*_25  and  O3*_32
REMARK    5  A    between atoms: C4*_27  and  C5*_30
REMARK    6  A    between atoms: C5*_30  and  O5*_31
REMARK                            x       y       z     vdW  Elec       q    Type
REMARK                         _______ _______ _______ _____ _____    ______ ____
ROOT
ATOM      1  N   UNL     1      -2.328  -0.677   0.021  0.00  0.00    -0.320 N 
ATOM      2  C   UNL     1      -0.984  -1.006   0.006  0.00  0.00    +0.150 A 
ATOM      3  C   UNL     1       0.002  -0.004   0.002  0.00  0.00    +0.147 A 
ATOM      4  C   UNL     1       1.350  -0.400  -0.013  0.00  0.00    +0.167 A 
ATOM      5  N   UNL     1       1.643  -1.696  -0.023  0.00  0.00    -0.216 NA
ATOM      6  C   UNL     1       0.686  -2.600  -0.019  0.00  0.00    +0.225 A 
ATOM      7  N   UNL     1      -0.595  -2.277  -0.005  0.00  0.00    -0.219 NA
ATOM      8  N   UNL     1       2.084   0.759  -0.014  0.00  0.00    -0.286 N 
ATOM      9  C   UNL     1       1.205   1.800   0.000  0.00  0.00    +0.203 A 
ATOM     10  N   UNL     1      -0.016   1.351   0.009  0.00  0.00    -0.231 NA
ATOM     11  H   UNL     1      -2.635   0.379   0.030  0.00  0.00    +0.148 HD
ENDROOT
BRANCH   1  20
ATOM     12  C   UNL     1      -4.759  -2.857   3.888  0.00  0.00    +0.000 A 
ATOM     13  C   UNL     1      -3.389  -2.727   3.751  0.00  0.00    +0.000 A 
ATOM     14  C   UNL     1      -2.850  -2.367   2.531  0.00  0.00    +0.006 A 
ATOM     15  C   UNL     1      -3.677  -2.135   1.445  0.00  0.00    -0.024 A 
ATOM     16  C   UNL     1      -5.046  -2.266   1.582  0.00  0.00    -0.042 A 
ATOM     17  C   UNL     1      -5.585  -2.628   2.805  0.00  0.00    +0.004 A 
ATOM     18  C   UNL     1      -5.724  -1.962   0.263  0.00  0.00    +0.037 C 
ATOM     19  C   UNL     1      -4.665  -1.211  -0.572  0.00  0.00    +0.032 C 
ATOM     20  C   UNL     1      -3.341  -1.735   0.024  0.00  0.00    +0.103 C 
ENDBRANCH   1  20
BRANCH   8  21
ATOM     21  C1* UNL     1       3.546   0.859  -0.028  0.00  0.00    +0.253 C 
ATOM     22  C2* UNL     1       4.081   0.833  -1.482  0.00  0.00    +0.195 C 
ATOM     23  C3* UNL     1       5.439   1.562  -1.341  0.00  0.00    +0.178 C 
ATOM     24  C4* UNL     1       5.301   2.370  -0.036  0.00  0.00    +0.177 C 
ATOM     25  O4* UNL     1       3.972   2.146   0.469  0.00  0.00    -0.346 OA
BRANCH  23  26
ATOM     26  O3* UNL     1       6.506   0.616  -1.237  0.00  0.00    -0.386 OA
ATOM     27  H3* UNL     1       7.543   0.967  -1.130  0.00  0.00    +0.210 HD
ENDBRANCH  23  26
BRANCH  22  28
ATOM     28  O2* UNL     1       3.207   1.547  -2.360  0.00  0.00    -0.385 OA
ATOM     29  H2* UNL     1       3.445   1.623  -3.431  0.00  0.00    +0.210 HD
ENDBRANCH  22  28
BRANCH  24  30
ATOM     30  C5* UNL     1       5.510   3.858  -0.322  0.00  0.00    +0.190 C 
BRANCH  30  31
ATOM     31  O5* UNL     1       5.496   4.586   0.909  0.00  0.00    -0.392 OA
ATOM     32  H5* UNL     1       5.632   5.677   0.904  0.00  0.00    +0.210 HD
ENDBRANCH  30  31
ENDBRANCH  24  30
ENDBRANCH   8  21
TORSDOF 6
