REMARK  Name = ZINC63384468
REMARK  5 active torsions:
REMARK  status: ('A' for Active; 'I' for Inactive)
REMARK    1  A    between atoms: C_1  and  O_2
REMARK    2  A    between atoms: O_2  and  C_3
REMARK    3  A    between atoms: C_7  and  N_9
REMARK    4  A    between atoms: C_14  and  C_31
REMARK    5  A    between atoms: C_31  and  C_32
REMARK                            x       y       z     vdW  Elec       q    Type
REMARK                         _______ _______ _______ _____ _____    ______ ____
ROOT
ATOM      1  N   UNL     1      -2.542  -4.067   0.016  0.00  0.00    -0.210 N 
ATOM      2  C   UNL     1      -1.453  -4.837  -0.086  0.00  0.00    +0.232 C 
ATOM      3  O   UNL     1      -0.315  -4.430  -0.190  0.00  0.00    -0.274 OA
ATOM      4  C   UNL     1      -1.861  -6.292  -0.049  0.00  0.00    +0.107 C 
ATOM      5  C   UNL     1      -1.586  -6.934  -1.425  0.00  0.00    +0.072 C 
ATOM      6  N   UNL     1      -2.809  -6.661  -2.225  0.00  0.00    -0.295 NA
ATOM      7  C   UNL     1      -3.914  -6.821  -1.262  0.00  0.00    +0.136 C 
ATOM      8  C   UNL     1      -3.408  -6.228   0.077  0.00  0.00    +0.123 C 
ATOM      9  C   UNL     1      -3.692  -4.743   0.121  0.00  0.00    +0.233 C 
ATOM     10  O   UNL     1      -4.791  -4.243   0.232  0.00  0.00    -0.274 OA
ATOM     11  C   UNL     1      -4.307  -8.262  -1.107  0.00  0.00    +0.003 A 
ATOM     12  C   UNL     1      -3.627  -9.393  -0.712  0.00  0.00    +0.008 A 
ATOM     13  C   UNL     1      -4.278 -10.613  -0.669  0.00  0.00    +0.000 A 
ATOM     14  C   UNL     1      -5.613 -10.693  -1.023  0.00  0.00    +0.002 A 
ATOM     15  C   UNL     1      -6.298  -9.563  -1.419  0.00  0.00    +0.023 A 
ATOM     16  C   UNL     1      -5.650  -8.331  -1.465  0.00  0.00    +0.039 A 
ATOM     17  N   UNL     1      -6.119  -7.067  -1.827  0.00  0.00    -0.283 N 
ATOM     18  C   UNL     1      -5.161  -6.124  -1.735  0.00  0.00    +0.243 C 
ATOM     19  O   UNL     1      -5.280  -4.943  -1.986  0.00  0.00    -0.273 OA
ATOM     20  H   UNL     1      -2.792  -5.726  -2.605  0.00  0.00    +0.124 HD
ATOM     21  H   UNL     1      -7.029  -6.888  -2.111  0.00  0.00    +0.155 HD
ENDROOT
BRANCH   1  26
ATOM     22  C   UNL     1      -2.753  -0.573   1.161  0.00  0.00    +0.122 A 
ATOM     23  C   UNL     1      -2.366   0.102   0.012  0.00  0.00    +0.046 A 
ATOM     24  C   UNL     1      -2.040  -0.605  -1.129  0.00  0.00    +0.005 A 
ATOM     25  C   UNL     1      -2.097  -1.986  -1.130  0.00  0.00    +0.024 A 
ATOM     26  C   UNL     1      -2.484  -2.666   0.017  0.00  0.00    +0.047 A 
ATOM     27  C   UNL     1      -2.807  -1.958   1.166  0.00  0.00    +0.069 A 
BRANCH  22  29
ATOM     28  C   UNL     1      -2.996   1.548   2.207  0.00  0.00    +0.277 C 
ATOM     29  O   UNL     1      -3.073   0.123   2.284  0.00  0.00    -0.495 OA
ENDBRANCH  22  29
ENDBRANCH   1  26
BRANCH   5  30
ATOM     30  C   UNL     1      -0.364  -6.287  -2.080  0.00  0.00    +0.052 C 
BRANCH  30  31
ATOM     31  C   UNL     1      -0.040  -7.009  -3.363  0.00  0.00    -0.040 C 
ATOM     32  C   UNL     1      -0.433  -6.666  -4.611  0.00  0.00    -0.001 A 
ATOM     33  C   UNL     1      -1.250  -5.561  -5.127  0.00  0.00    +0.010 A 
ATOM     34  C   UNL     1      -1.477  -5.480  -6.458  0.00  0.00    +0.001 A 
ATOM     35  C   UNL     1      -0.953  -6.422  -7.354  0.00  0.00    +0.002 A 
ATOM     36  C   UNL     1      -0.194  -7.465  -6.955  0.00  0.00    +0.026 A 
ATOM     37  C   UNL     1       0.108  -7.647  -5.577  0.00  0.00    +0.043 A 
ATOM     38  N   UNL     1       0.809  -8.562  -4.952  0.00  0.00    -0.380 N 
ATOM     39  C   UNL     1       0.796  -8.260  -3.516  0.00  0.00    +0.144 C 
ATOM     40  H   UNL     1       1.263  -9.311  -5.368  0.00  0.00    +0.160 HD
ENDBRANCH  30  31
ENDBRANCH   5  30
TORSDOF 4
