REMARK  Name = ZINC44785697
REMARK  5 active torsions:
REMARK  status: ('A' for Active; 'I' for Inactive)
REMARK    1  A    between atoms: C_5  and  C_8
REMARK    2  A    between atoms: C_5  and  C_12
REMARK    3  A    between atoms: N_9  and  O_10
REMARK    4  A    between atoms: C_18  and  C_20
REMARK    5  A    between atoms: C_20  and  O_21
REMARK                            x       y       z     vdW  Elec       q    Type
REMARK                         _______ _______ _______ _____ _____    ______ ____
ROOT
ATOM      1  C   UNL     1      -0.256   1.319  -0.017  0.00  0.00    +0.000 C 
ATOM      2  C   UNL     1       1.125   1.926  -0.340  0.00  0.00    +0.000 C 
ATOM      3  C   UNL     1       1.854   2.170   0.954  0.00  0.00    +0.001 C 
ATOM      4  C   UNL     1       2.777   0.999   1.340  0.00  0.00    +0.024 C 
ATOM      5  C   UNL     1       2.132  -0.378   1.091  0.00  0.00    +0.105 C 
ATOM      6  C   UNL     1       0.685  -0.419   1.501  0.00  0.00    +0.024 C 
ATOM      7  C   UNL     1      -0.184  -0.107   0.265  0.00  0.00    +0.001 C 
ENDROOT
BRANCH   5   8
ATOM      8  C   UNL     1       2.232  -0.704  -0.377  0.00  0.00    +0.229 C 
ATOM      9  O   UNL     1       2.842   0.034  -1.122  0.00  0.00    -0.275 OA
ATOM     10  N   UNL     1       1.645  -1.816  -0.862  0.00  0.00    -0.295 N 
ATOM     11  C   UNL     1       0.797  -2.744  -0.093  0.00  0.00    +0.108 C 
ATOM     12  C   UNL     1      -0.096  -3.436  -1.153  0.00  0.00    +0.021 C 
ATOM     13  C   UNL     1       0.890  -3.585  -2.342  0.00  0.00    +0.026 C 
ATOM     14  C   UNL     1       1.739  -2.300  -2.247  0.00  0.00    +0.101 C 
BRANCH  14  15
ATOM     15  C   UNL     1       3.196  -2.615  -2.591  0.00  0.00    +0.178 C 
BRANCH  15  16
ATOM     16  O   UNL     1       3.651  -3.703  -1.783  0.00  0.00    -0.393 OA
ATOM     17  H   UNL     1       4.569  -3.958  -1.948  0.00  0.00    +0.209 HD
ENDBRANCH  15  16
ENDBRANCH  14  15
ENDBRANCH   5   8
BRANCH   5  18
ATOM     18  C   UNL     1       2.890  -1.420   1.872  0.00  0.00    +0.147 C 
ATOM     19  N   UNL     1       2.878  -1.395   3.163  0.00  0.00    -0.076 NA
ATOM     20  N   UNL     1       3.595  -2.400   1.209  0.00  0.00    -0.343 N 
ATOM     21  H   UNL     1       3.557  -2.454   0.241  0.00  0.00    +0.144 HD
ATOM     22  H   UNL     1       4.130  -3.035   1.710  0.00  0.00    +0.144 HD
BRANCH  19  23
ATOM     23  O   UNL     1       2.071  -0.452   3.845  0.00  0.00    -0.408 OA
ATOM     24  H   UNL     1       2.128  -0.510   4.809  0.00  0.00    +0.328 HD
ENDBRANCH  19  23
ENDBRANCH   5  18
TORSDOF 5
