REMARK  Name = ZINC29842631
REMARK  12 active torsions:
REMARK  status: ('A' for Active; 'I' for Inactive)
REMARK    1  A    between atoms: C_1  and  C_2
REMARK    2  A    between atoms: C_4  and  S_27
REMARK    3  A    between atoms: C_6  and  N_9
REMARK    4  A    between atoms: C_7  and  C_8
REMARK    5  A    between atoms: C_10  and  C_12
REMARK    6  A    between atoms: C_12  and  N_13
REMARK    7  A    between atoms: N_13  and  C_14
REMARK    8  A    between atoms: N_13  and  C_21
REMARK    9  A    between atoms: C_14  and  C_15
REMARK   10  A    between atoms: C_21  and  C_23
REMARK   11  A    between atoms: C_21  and  C_24
REMARK   12  A    between atoms: S_27  and  N_30
REMARK                            x       y       z     vdW  Elec       q    Type
REMARK                         _______ _______ _______ _____ _____    ______ ____
ROOT
ATOM      1  N   UNL     1      -3.039   0.537   3.121  0.00  0.00    -0.287 N 
ATOM      2  C   UNL     1      -3.473  -0.662   2.686  0.00  0.00    +0.201 C 
ATOM      3  O   UNL     1      -2.902  -1.218   1.772  0.00  0.00    -0.278 OA
ATOM      4  H   UNL     1      -3.504   1.004   4.002  0.00  0.00    +0.155 HD
ENDROOT
BRANCH   1  10
ATOM      5  C   UNL     1      -0.923   4.720   1.637  0.00  0.00    +0.044 C 
ATOM      6  C   UNL     1      -0.946   3.215   1.718  0.00  0.00    -0.044 A 
ATOM      7  C   UNL     1       0.068   2.477   1.135  0.00  0.00    +0.032 A 
ATOM      8  C   UNL     1       0.048   1.096   1.202  0.00  0.00    +0.107 A 
ATOM      9  C   UNL     1      -0.980   0.450   1.862  0.00  0.00    +0.052 A 
ATOM     10  C   UNL     1      -1.996   1.189   2.453  0.00  0.00    +0.038 A 
ATOM     11  C   UNL     1      -1.976   2.576   2.378  0.00  0.00    -0.026 A 
ATOM     12  C   UNL     1      -3.077   3.381   3.018  0.00  0.00    +0.046 C 
BRANCH   8  13
ATOM     13  S   UNL     1       1.338   0.159   0.452  0.00  0.00    +0.056 S 
ATOM     14  O   UNL     1       1.380  -1.089   1.128  0.00  0.00    -0.153 OA
ATOM     15  O   UNL     1       2.467   1.018   0.367  0.00  0.00    -0.153 OA
BRANCH  13  16
ATOM     16  N   UNL     1       0.869  -0.161  -1.104  0.00  0.00    -0.204 NA
ATOM     17  H   UNL     1       1.651  -0.747  -1.609  0.00  0.00    +0.144 HD
ATOM     18  H   UNL     1       0.715   0.786  -1.643  0.00  0.00    +0.144 HD
ENDBRANCH  13  16
ENDBRANCH   8  13
ENDBRANCH   1  10
BRANCH   2  19
ATOM     19  C   UNL     1      -4.668  -1.311   3.335  0.00  0.00    +0.020 C 
BRANCH  19  20
ATOM     20  N   UNL     1      -4.938  -2.601   2.685  0.00  0.00    +0.390 N 
ATOM     21  H   UNL     1      -4.002  -3.179   2.679  0.00  0.00    -0.080 HD
BRANCH  20  22
ATOM     22  C   UNL     1      -5.358  -2.409   1.290  0.00  0.00    -0.067 C 
ATOM     23  C   UNL     1      -5.376  -3.761   0.573  0.00  0.00    -0.013 C 
BRANCH  22  24
ATOM     24  C   UNL     1      -6.760  -1.797   1.260  0.00  0.00    -0.025 C 
ATOM     25  C   UNL     1      -7.893  -2.654   0.691  0.00  0.00    +0.002 C 
ATOM     26  C   UNL     1      -7.356  -1.466  -0.110  0.00  0.00    +0.002 C 
ENDBRANCH  22  24
ENDBRANCH  20  22
BRANCH  20  27
ATOM     27  C   UNL     1      -5.939  -3.370   3.436  0.00  0.00    -0.042 C 
BRANCH  27  28
ATOM     28  C   UNL     1      -5.362  -3.783   4.765  0.00  0.00    -0.064 A 
ATOM     29  C   UNL     1      -4.588  -4.925   4.857  0.00  0.00    +0.002 A 
ATOM     30  C   UNL     1      -4.054  -5.301   6.075  0.00  0.00    +0.000 A 
ATOM     31  C   UNL     1      -4.302  -4.542   7.203  0.00  0.00    +0.000 A 
ATOM     32  C   UNL     1      -5.081  -3.404   7.112  0.00  0.00    +0.000 A 
ATOM     33  C   UNL     1      -5.610  -3.024   5.893  0.00  0.00    +0.002 A 
ENDBRANCH  27  28
ENDBRANCH  20  27
ENDBRANCH  19  20
ENDBRANCH   2  19
TORSDOF 9
