REMARK  Name = ZINC39576009
REMARK  9 active torsions:
REMARK  status: ('A' for Active; 'I' for Inactive)
REMARK    1  A    between atoms: C_1  and  C_2
REMARK    2  A    between atoms: C_2  and  C_3
REMARK    3  A    between atoms: C_2  and  C_4
REMARK    4  A    between atoms: C_4  and  C_5
REMARK    5  A    between atoms: C_8  and  C_11
REMARK    6  A    between atoms: C_13  and  C_17
REMARK    7  A    between atoms: N_19  and  N_20
REMARK    8  A    between atoms: C_21  and  C_22
REMARK    9  A    between atoms: C_21  and  C_23
REMARK                            x       y       z     vdW  Elec       q    Type
REMARK                         _______ _______ _______ _____ _____    ______ ____
ROOT
ATOM      1  C   UNL     1      -2.454  -9.230  -2.103  0.00  0.00    +0.092 C 
ATOM      2  C   UNL     1      -2.187  -9.375  -0.790  0.00  0.00    +0.041 C 
ATOM      3  C   UNL     1      -1.891 -10.857  -0.641  0.00  0.00    +0.240 C 
ATOM      4  N   UNL     1      -2.050 -11.370  -2.011  0.00  0.00    -0.170 NA
ATOM      5  N   UNL     1      -2.361 -10.426  -2.740  0.00  0.00    -0.153 NA
ENDROOT
BRANCH   1   9
ATOM      6  C   UNL     1      -3.466  -5.551  -3.980  0.00  0.00    -0.047 A 
ATOM      7  C   UNL     1      -3.399  -6.712  -4.730  0.00  0.00    +0.004 A 
ATOM      8  C   UNL     1      -3.071  -7.909  -4.125  0.00  0.00    +0.010 A 
ATOM      9  C   UNL     1      -2.807  -7.946  -2.758  0.00  0.00    +0.002 A 
ATOM     10  C   UNL     1      -2.875  -6.774  -2.007  0.00  0.00    +0.010 A 
ATOM     11  C   UNL     1      -3.199  -5.582  -2.623  0.00  0.00    +0.004 A 
BRANCH   6  12
ATOM     12  C   UNL     1      -3.824  -4.247  -4.646  0.00  0.00    +0.038 C 
BRANCH  12  14
ATOM     13  C   UNL     1      -2.921  -2.300  -5.923  0.00  0.00    +0.007 C 
ATOM     14  C   UNL     1      -2.549  -3.560  -5.139  0.00  0.00    -0.013 C 
ATOM     15  C   UNL     1      -1.679  -3.177  -3.940  0.00  0.00    +0.007 C 
ENDBRANCH  12  14
ENDBRANCH   6  12
ENDBRANCH   1   9
BRANCH   3  16
ATOM     16  C   UNL     1      -0.483 -11.072  -0.148  0.00  0.00    +0.263 C 
ATOM     17  O   UNL     1       0.395 -11.370  -0.931  0.00  0.00    -0.271 OA
ATOM     18  N   UNL     1      -0.199 -10.932   1.162  0.00  0.00    -0.205 N 
ATOM     19  H   UNL     1      -0.901 -10.694   1.788  0.00  0.00    +0.177 HD
BRANCH  18  20
ATOM     20  N   UNL     1       1.110 -11.132   1.620  0.00  0.00    -0.184 NA
ATOM     21  C   UNL     1       1.362 -11.112   2.893  0.00  0.00    +0.063 C 
ATOM     22  C   UNL     1       2.788 -11.138   3.379  0.00  0.00    +0.068 C 
BRANCH  21  23
ATOM     23  C   UNL     1       0.253 -11.065   3.863  0.00  0.00    +0.000 A 
ATOM     24  C   UNL     1      -0.945 -11.752   3.623  0.00  0.00    +0.029 A 
ATOM     25  C   UNL     1      -1.955 -11.680   4.558  0.00  0.00    +0.111 A 
ATOM     26  N   UNL     1      -1.806 -10.977   5.665  0.00  0.00    -0.263 NA
ATOM     27  C   UNL     1      -0.696 -10.316   5.931  0.00  0.00    +0.111 A 
ATOM     28  C   UNL     1       0.369 -10.338   5.055  0.00  0.00    +0.029 A 
ENDBRANCH  21  23
ENDBRANCH  18  20
ENDBRANCH   3  16
TORSDOF 6
