REMARK  Name = ZINC39336621
REMARK  5 active torsions:
REMARK  status: ('A' for Active; 'I' for Inactive)
REMARK    1  A    between atoms: C_2  and  C_3
REMARK    2  A    between atoms: C_3  and  N_4
REMARK    3  A    between atoms: C_5  and  C_11
REMARK    4  A    between atoms: N_14  and  C_18
REMARK    5  A    between atoms: C_15  and  N_17
REMARK                            x       y       z     vdW  Elec       q    Type
REMARK                         _______ _______ _______ _____ _____    ______ ____
ROOT
ATOM      1  C   UNL     1      -0.991  -0.378  -2.947  0.00  0.00    -0.007 C 
ATOM      2  C   UNL     1       0.157   0.039  -2.457  0.00  0.00    +0.090 C 
ATOM      3  N   UNL     1       0.673   1.096  -3.183  0.00  0.00    -0.272 N 
ATOM      4  N   UNL     1      -0.184   1.423  -4.243  0.00  0.00    -0.264 N 
ATOM      5  C   UNL     1      -1.310   0.478  -4.152  0.00  0.00    +0.066 C 
ATOM      6  H   UNL     1       1.508   1.548  -2.986  0.00  0.00    +0.169 HD
ENDROOT
BRANCH   1   8
ATOM      7  N   UNL     1      -1.911  -2.606  -3.389  0.00  0.00    -0.281 N 
ATOM      8  C   UNL     1      -1.831  -1.507  -2.409  0.00  0.00    +0.240 C 
ATOM      9  N   UNL     1      -3.229  -1.081  -2.243  0.00  0.00    -0.191 NA
ATOM     10  N   UNL     1      -3.934  -1.786  -2.970  0.00  0.00    -0.221 N 
ATOM     11  C   UNL     1      -3.226  -2.705  -3.682  0.00  0.00    +0.154 C 
ATOM     12  S   UNL     1      -3.904  -3.826  -4.785  0.00  0.00    -0.017 S 
ATOM     13  H   UNL     1      -4.898  -1.692  -3.032  0.00  0.00    +0.176 HD
BRANCH   7  14
ATOM     14  C   UNL     1      -0.809  -3.407  -3.930  0.00  0.00    +0.136 C 
BRANCH  14  16
ATOM     15  C   UNL     1       0.904  -2.493  -5.410  0.00  0.00    +0.005 C 
ATOM     16  C   UNL     1      -0.354  -2.816  -5.239  0.00  0.00    -0.016 C 
ENDBRANCH  14  16
ENDBRANCH   7  14
ENDBRANCH   1   8
BRANCH   4  17
ATOM     17  C   UNL     1      -0.004   2.432  -5.192  0.00  0.00    +0.046 A 
ATOM     18  C   UNL     1      -0.957   2.633  -6.183  0.00  0.00    +0.024 A 
ATOM     19  C   UNL     1      -0.776   3.632  -7.120  0.00  0.00    +0.002 A 
ATOM     20  C   UNL     1       0.352   4.431  -7.071  0.00  0.00    +0.000 A 
ATOM     21  C   UNL     1       1.302   4.234  -6.086  0.00  0.00    +0.002 A 
ATOM     22  C   UNL     1       1.124   3.240  -5.143  0.00  0.00    +0.024 A 
ENDBRANCH   4  17
BRANCH   5  23
ATOM     23  N   UNL     1      -2.570   1.206  -3.946  0.00  0.00    +0.394 N 
ATOM     24  H   UNL     1      -2.486   1.799  -3.134  0.00  0.00    -0.087 HD
ATOM     25  H   UNL     1      -2.769   1.771  -4.757  0.00  0.00    -0.087 HD
ATOM     26  H   UNL     1      -3.320   0.545  -3.804  0.00  0.00    -0.087 HD
ENDBRANCH   5  23
TORSDOF 5
