REMARK  Name = ZINC39445129
REMARK  4 active torsions:
REMARK  status: ('A' for Active; 'I' for Inactive)
REMARK    1  A    between atoms: C_10  and  C_11
REMARK    2  A    between atoms: C_11  and  C_13
REMARK    3  A    between atoms: C_13  and  N_14
REMARK    4  A    between atoms: C_16  and  C_22
REMARK                            x       y       z     vdW  Elec       q    Type
REMARK                         _______ _______ _______ _____ _____    ______ ____
ROOT
ATOM      1  C   UNL     1      -1.267  -0.746   0.010  0.00  0.00    +0.183 C 
ATOM      2  O   UNL     1      -1.261  -1.959   0.004  0.00  0.00    -0.290 OA
ENDROOT
BRANCH   1  12
ATOM      3  C   UNL     1      -0.018   1.463   0.010  0.00  0.00    +0.013 A 
ATOM      4  C   UNL     1       1.118   2.194   0.003  0.00  0.00    +0.026 A 
ATOM      5  C   UNL     1       2.378   1.561  -0.012  0.00  0.00    +0.056 A 
ATOM      6  N   UNL     1       3.623   1.990  -0.022  0.00  0.00    -0.268 N 
ATOM      7  C   UNL     1       4.453   0.907  -0.036  0.00  0.00    +0.308 C 
ATOM      8  O   UNL     1       5.665   0.957  -0.047  0.00  0.00    -0.252 OA
ATOM      9  N   UNL     1       3.706  -0.256  -0.035  0.00  0.00    -0.268 N 
ATOM     10  C   UNL     1       2.442   0.067  -0.021  0.00  0.00    +0.057 A 
ATOM     11  C   UNL     1       1.184  -0.691  -0.013  0.00  0.00    +0.036 A 
ATOM     12  C   UNL     1       0.002  -0.004   0.002  0.00  0.00    +0.021 A 
ATOM     13  H   UNL     1       4.061  -1.159  -0.044  0.00  0.00    +0.156 HD
ATOM     14  H   UNL     1       3.903   2.919  -0.020  0.00  0.00    +0.156 HD
ENDBRANCH   1  12
BRANCH   1  15
ATOM     15  C   UNL     1      -2.576  -0.000   0.027  0.00  0.00    +0.204 C 
BRANCH  15  16
ATOM     16  N   UNL     1      -3.685  -0.958   0.032  0.00  0.00    -0.306 N 
ATOM     17  C   UNL     1      -4.200  -1.395  -1.146  0.00  0.00    +0.102 A 
ATOM     18  C   UNL     1      -5.224  -2.280  -1.167  0.00  0.00    +0.073 A 
ATOM     19  C   UNL     1      -5.763  -2.755   0.037  0.00  0.00    +0.039 A 
ATOM     20  C   UNL     1      -5.245  -2.316   1.220  0.00  0.00    +0.106 A 
ATOM     21  C   UNL     1      -4.177  -1.400   1.205  0.00  0.00    +0.270 A 
ATOM     22  O   UNL     1      -3.700  -1.002   2.256  0.00  0.00    -0.266 OA
ATOM     23 CL   UNL     1      -5.891  -2.886   2.727  0.00  0.00    -0.078 Cl
BRANCH  18  24
ATOM     24  C   UNL     1      -5.784  -2.754  -2.483  0.00  0.00    +0.419 C 
ATOM     25  F   UNL     1      -5.174  -3.961  -2.842  0.00  0.00    -0.166 F 
ATOM     26  F   UNL     1      -7.164  -2.948  -2.360  0.00  0.00    -0.166 F 
ATOM     27  F   UNL     1      -5.534  -1.793  -3.469  0.00  0.00    -0.166 F 
ENDBRANCH  18  24
ENDBRANCH  15  16
ENDBRANCH   1  15
TORSDOF 4
