REMARK  Name = ZINC32624592
REMARK  8 active torsions:
REMARK  status: ('A' for Active; 'I' for Inactive)
REMARK    1  A    between atoms: C_1  and  C_2
REMARK    2  A    between atoms: C_2  and  C_3
REMARK    3  A    between atoms: C_2  and  C_4
REMARK    4  A    between atoms: C_2  and  C_5
REMARK    5  A    between atoms: C_8  and  C_11
REMARK    6  A    between atoms: C_11  and  C_13
REMARK    7  A    between atoms: C_11  and  N_29
REMARK    8  A    between atoms: C_13  and  N_14
REMARK                            x       y       z     vdW  Elec       q    Type
REMARK                         _______ _______ _______ _____ _____    ______ ____
ROOT
ATOM      1  C   UNL     1      -1.340   2.066   0.018  0.00  0.00    -0.017 C 
ENDROOT
BRANCH   1   5
ATOM      2  C   UNL     1       2.582   0.402   0.320  0.00  0.00    -0.042 A 
ATOM      3  C   UNL     1       1.489  -0.429   0.157  0.00  0.00    +0.004 A 
ATOM      4  C   UNL     1       0.220   0.109   0.061  0.00  0.00    +0.002 A 
ATOM      5  C   UNL     1       0.043   1.479   0.129  0.00  0.00    -0.059 A 
ATOM      6  C   UNL     1       1.136   2.309   0.293  0.00  0.00    +0.002 A 
ATOM      7  C   UNL     1       2.405   1.771   0.388  0.00  0.00    +0.004 A 
BRANCH   2   9
ATOM      8  C   UNL     1       4.285  -0.969  -0.851  0.00  0.00    +0.015 C 
ATOM      9  C   UNL     1       3.966  -0.185   0.424  0.00  0.00    -0.013 C 
ATOM     10  C   UNL     1       4.986   0.941   0.598  0.00  0.00    +0.015 C 
ATOM     11  C   UNL     1       4.033  -1.125   1.630  0.00  0.00    +0.015 C 
ENDBRANCH   2   9
ENDBRANCH   1   5
BRANCH   1  12
ATOM     12  N   UNL     1      -1.317   3.201  -0.914  0.00  0.00    +0.385 N 
ATOM     13  C   UNL     1      -0.481   2.897  -2.103  0.00  0.00    -0.078 C 
ATOM     14  C   UNL     1      -0.982   3.914  -3.159  0.00  0.00    -0.020 C 
ATOM     15  C   UNL     1      -2.503   3.974  -2.887  0.00  0.00    -0.020 C 
ATOM     16  C   UNL     1      -2.671   3.487  -1.435  0.00  0.00    -0.078 C 
ATOM     17  H   UNL     1      -0.918   4.051  -0.341  0.00  0.00    -0.081 HD
ENDBRANCH   1  12
BRANCH   1  18
ATOM     18  C   UNL     1      -1.803   2.546   1.395  0.00  0.00    +0.115 C 
BRANCH  18  19
ATOM     19  N   UNL     1      -3.089   3.236   1.266  0.00  0.00    -0.300 N 
ATOM     20  C   UNL     1      -3.135   4.592   1.184  0.00  0.00    +0.202 A 
ATOM     21  N   UNL     1      -4.239   5.257   1.061  0.00  0.00    -0.235 NA
ATOM     22  C   UNL     1      -5.462   4.631   1.017  0.00  0.00    +0.107 A 
ATOM     23  C   UNL     1      -6.730   5.236   0.891  0.00  0.00    +0.081 A 
ATOM     24  C   UNL     1      -7.820   4.396   0.874  0.00  0.00    +0.070 A 
ATOM     25  S   UNL     1      -7.152   2.770   1.022  0.00  0.00    -0.073 S 
ATOM     26  C   UNL     1      -5.438   3.226   1.107  0.00  0.00    +0.105 A 
ATOM     27  C   UNL     1      -4.243   2.528   1.232  0.00  0.00    +0.268 A 
ATOM     28  O   UNL     1      -4.234   1.310   1.308  0.00  0.00    -0.266 OA
ATOM     29  S   UNL     1      -9.486   4.924   0.734  0.00  0.00    -0.107 S 
ATOM     30  C   UNL     1      -9.380   6.621   1.395  0.00  0.00    +0.171 C 
ATOM     31  C   UNL     1      -8.098   7.250   0.930  0.00  0.00    +0.227 C 
ATOM     32  O   UNL     1      -8.136   8.434   0.667  0.00  0.00    -0.275 OA
ATOM     33  N   UNL     1      -6.925   6.641   0.778  0.00  0.00    -0.282 N 
ATOM     34  H   UNL     1      -6.072   7.298   0.552  0.00  0.00    +0.155 HD
ENDBRANCH  18  19
ENDBRANCH   1  18
TORSDOF 5
