REMARK  Name = ZINC42028855
REMARK  4 active torsions:
REMARK  status: ('A' for Active; 'I' for Inactive)
REMARK    1  A    between atoms: C_4  and  N_8
REMARK    2  A    between atoms: C_9  and  C_13
REMARK    3  A    between atoms: C_15  and  N_20
REMARK    4  A    between atoms: C_17  and  N_19
REMARK                            x       y       z     vdW  Elec       q    Type
REMARK                         _______ _______ _______ _____ _____    ______ ____
ROOT
ATOM      1  N   UNL     1       3.626  -0.678  -0.215  0.00  0.00    -0.190 N 
ATOM      2  C   UNL     1       3.823  -2.002   0.044  0.00  0.00    +0.187 A 
ATOM      3  N   UNL     1       5.122  -2.179   0.167  0.00  0.00    -0.108 NA
ATOM      4  N   UNL     1       5.745  -1.069   0.003  0.00  0.00    -0.022 NA
ATOM      5  N   UNL     1       4.914  -0.114  -0.237  0.00  0.00    -0.039 NA
ENDROOT
BRANCH   1   9
ATOM      6  C   UNL     1      -0.008   1.274  -0.829  0.00  0.00    +0.018 A 
ATOM      7  C   UNL     1       0.845   1.705   0.171  0.00  0.00    +0.041 A 
ATOM      8  C   UNL     1       2.050   1.060   0.377  0.00  0.00    +0.149 A 
ATOM      9  C   UNL     1       2.404  -0.022  -0.421  0.00  0.00    +0.106 A 
ATOM     10  C   UNL     1       1.545  -0.451  -1.423  0.00  0.00    +0.046 A 
ATOM     11  C   UNL     1       0.341   0.198  -1.625  0.00  0.00    +0.020 A 
ATOM     12 BR   UNL     1      -0.830  -0.387  -2.990  0.00  0.00    -0.050 Br
ATOM     13  F   UNL     1       2.884   1.481   1.354  0.00  0.00    -0.203 F 
ENDBRANCH   1   9
BRANCH   2  14
ATOM     14  C   UNL     1       2.777  -3.042   0.166  0.00  0.00    +0.025 A 
ATOM     15  C   UNL     1       1.454  -2.676   0.413  0.00  0.00    +0.034 A 
ATOM     16  C   UNL     1       0.475  -3.653   0.526  0.00  0.00    +0.027 A 
ATOM     17  C   UNL     1       0.812  -4.994   0.394  0.00  0.00    +0.045 A 
ATOM     18  C   UNL     1       2.128  -5.361   0.147  0.00  0.00    +0.027 A 
ATOM     19  C   UNL     1       3.111  -4.389   0.028  0.00  0.00    +0.034 A 
BRANCH  18  20
ATOM     20  N   UNL     1       2.463  -6.711   0.015  0.00  0.00    -0.358 N 
ATOM     21  H   UNL     1       1.776  -7.391   0.095  0.00  0.00    +0.142 HD
ATOM     22  H   UNL     1       3.382  -6.968  -0.157  0.00  0.00    +0.142 HD
ENDBRANCH  18  20
BRANCH  16  23
ATOM     23  N   UNL     1      -0.850  -3.288   0.774  0.00  0.00    -0.358 N 
ATOM     24  H   UNL     1      -1.099  -2.350   0.794  0.00  0.00    +0.142 HD
ATOM     25  H   UNL     1      -1.521  -3.971   0.926  0.00  0.00    +0.142 HD
ENDBRANCH  16  23
ENDBRANCH   2  14
TORSDOF 4
