REMARK  Name = ZINC12812702
REMARK  9 active torsions:
REMARK  status: ('A' for Active; 'I' for Inactive)
REMARK    1  A    between atoms: C_1  and  C_2
REMARK    2  A    between atoms: C_5  and  C_8
REMARK    3  A    between atoms: C_11  and  C_13
REMARK    4  A    between atoms: C_13  and  C_15
REMARK    5  A    between atoms: C_13  and  N_16
REMARK    6  A    between atoms: N_16  and  C_17
REMARK    7  A    between atoms: C_20  and  N_23
REMARK    8  A    between atoms: N_23  and  S_24
REMARK    9  A    between atoms: S_24  and  C_27
REMARK                            x       y       z     vdW  Elec       q    Type
REMARK                         _______ _______ _______ _____ _____    ______ ____
ROOT
ATOM      1  C   UNL     1       4.926   1.959  -4.277  0.00  0.00    +0.028 A 
ATOM      2  C   UNL     1       5.659   0.783  -4.369  0.00  0.00    +0.025 A 
ATOM      3  C   UNL     1       5.431  -0.244  -3.475  0.00  0.00    +0.026 A 
ATOM      4  C   UNL     1       4.468  -0.102  -2.485  0.00  0.00    +0.048 A 
ATOM      5  C   UNL     1       3.732   1.072  -2.396  0.00  0.00    +0.026 A 
ATOM      6  C   UNL     1       3.963   2.102  -3.287  0.00  0.00    +0.025 A 
ENDROOT
BRANCH   1   7
ATOM      7  N   UNL     1       5.157   3.001  -5.184  0.00  0.00    -0.333 N 
ATOM      8  H   UNL     1       5.830   2.901  -5.876  0.00  0.00    +0.147 HD
BRANCH   7   9
ATOM      9  C   UNL     1       4.384   4.241  -5.087  0.00  0.00    +0.155 C 
ATOM     10  C   UNL     1       3.061   4.078  -5.838  0.00  0.00    +0.038 C 
BRANCH   9  14
ATOM     11  C   UNL     1       6.103   7.286  -6.039  0.00  0.00    +0.248 A 
ATOM     12  N   UNL     1       6.377   6.479  -7.037  0.00  0.00    -0.107 NA
ATOM     13  N   UNL     1       5.823   5.337  -6.825  0.00  0.00    -0.110 NA
ATOM     14  C   UNL     1       5.171   5.373  -5.696  0.00  0.00    +0.237 A 
ATOM     15  O   UNL     1       5.333   6.600  -5.171  0.00  0.00    -0.418 OA
BRANCH  11  20
ATOM     16  C   UNL     1       7.856  12.738  -5.477  0.00  0.00    +0.044 C 
ATOM     17  C   UNL     1       7.397  11.310  -5.624  0.00  0.00    -0.050 A 
ATOM     18  C   UNL     1       7.769  10.578  -6.738  0.00  0.00    +0.004 A 
ATOM     19  C   UNL     1       7.352   9.271  -6.879  0.00  0.00    +0.013 A 
ATOM     20  C   UNL     1       6.553   8.686  -5.895  0.00  0.00    +0.038 A 
ATOM     21  C   UNL     1       6.178   9.432  -4.777  0.00  0.00    +0.013 A 
ATOM     22  C   UNL     1       6.606  10.736  -4.645  0.00  0.00    +0.004 A 
ENDBRANCH  11  20
ENDBRANCH   9  14
ENDBRANCH   7   9
ENDBRANCH   1   7
BRANCH   4  23
ATOM     23  N   UNL     1       4.236  -1.143  -1.579  0.00  0.00    -0.216 N 
ATOM     24  H   UNL     1       3.437  -1.687  -1.659  0.00  0.00    +0.174 HD
BRANCH  23  25
ATOM     25  S   UNL     1       5.327  -1.448  -0.370  0.00  0.00    +0.072 S 
ATOM     26  O   UNL     1       6.604  -1.532  -0.988  0.00  0.00    -0.150 OA
ATOM     27  O   UNL     1       4.786  -2.506   0.408  0.00  0.00    -0.150 OA
BRANCH  25  28
ATOM     28  C   UNL     1       5.363  -0.026   0.669  0.00  0.00    +0.112 A 
ATOM     29  C   UNL     1       4.431   0.114   1.680  0.00  0.00    +0.032 A 
ATOM     30  C   UNL     1       4.455   1.229   2.497  0.00  0.00    +0.051 A 
ATOM     31  C   UNL     1       5.415   2.211   2.303  0.00  0.00    +0.162 A 
ATOM     32  C   UNL     1       6.354   2.069   1.288  0.00  0.00    +0.164 A 
ATOM     33  C   UNL     1       6.324   0.948   0.472  0.00  0.00    +0.078 A 
ATOM     34  O   UNL     1       7.310   3.017   1.087  0.00  0.00    -0.485 OA
ATOM     35  C   UNL     1       7.080   4.299   1.680  0.00  0.00    +0.270 C 
ATOM     36  C   UNL     1       6.625   4.083   3.130  0.00  0.00    +0.270 C 
ATOM     37  O   UNL     1       5.422   3.307   3.110  0.00  0.00    -0.485 OA
ENDBRANCH  25  28
ENDBRANCH  23  25
ENDBRANCH   4  23
TORSDOF 7
