REMARK  Name = ZINC67535319
REMARK  11 active torsions:
REMARK  status: ('A' for Active; 'I' for Inactive)
REMARK    1  A    between atoms: C_1  and  C_2
REMARK    2  A    between atoms: C_2  and  C_3
REMARK    3  A    between atoms: C_3  and  C_5
REMARK    4  A    between atoms: C_3  and  N_21
REMARK    5  A    between atoms: C_5  and  N_6
REMARK    6  A    between atoms: N_9  and  C_10
REMARK    7  A    between atoms: C_10  and  C_12
REMARK    8  A    between atoms: C_10  and  C_13
REMARK    9  A    between atoms: C_14  and  C_20
REMARK   10  A    between atoms: N_16  and  C_19
REMARK   11  A    between atoms: C_17  and  C_18
REMARK                            x       y       z     vdW  Elec       q    Type
REMARK                         _______ _______ _______ _____ _____    ______ ____
ROOT
ATOM      1  N   UNL     1      -2.814  -2.656  -0.036  0.00  0.00    -0.301 N 
ATOM      2  C   UNL     1      -2.952  -3.997  -0.005  0.00  0.00    +0.300 C 
ATOM      3  O   UNL     1      -1.966  -4.709  -0.001  0.00  0.00    -0.253 OA
ATOM      4  N   UNL     1      -4.181  -4.547   0.020  0.00  0.00    -0.293 N 
ATOM      5  H   UNL     1      -3.600  -2.088  -0.040  0.00  0.00    +0.150 HD
ATOM      6  H   UNL     1      -4.968  -3.979   0.017  0.00  0.00    +0.151 HD
ENDROOT
BRANCH   4   7
ATOM      7  C   UNL     1      -4.331  -6.004   0.054  0.00  0.00    +0.105 C 
ATOM      8  C   UNL     1      -4.123  -6.571  -1.352  0.00  0.00    +0.033 C 
BRANCH   7   9
ATOM      9  C   UNL     1      -5.714  -6.356   0.538  0.00  0.00    +0.016 A 
ATOM     10  C   UNL     1      -6.914  -5.822   0.060  0.00  0.00    +0.065 A 
ATOM     11  N   UNL     1      -7.899  -6.371   0.723  0.00  0.00    -0.176 NA
ATOM     12  N   UNL     1      -7.356  -7.274   1.646  0.00  0.00    -0.271 N 
ATOM     13  C   UNL     1      -6.014  -7.250   1.509  0.00  0.00    +0.041 A 
ATOM     14  C   UNL     1      -5.026  -8.070   2.299  0.00  0.00    +0.065 C 
ATOM     15  C   UNL     1      -8.112  -8.101   2.590  0.00  0.00    +0.172 C 
ATOM     16  C   UNL     1      -7.050  -4.791  -1.031  0.00  0.00    +0.068 C 
ENDBRANCH   7   9
ENDBRANCH   4   7
BRANCH   1  17
ATOM     17  C   UNL     1      -1.478  -2.057  -0.064  0.00  0.00    +0.090 C 
BRANCH  17  18
ATOM     18  C   UNL     1      -1.598  -0.536   0.051  0.00  0.00    -0.051 C 
BRANCH  18  19
ATOM     19  N   UNL     1      -1.942  -0.176   1.433  0.00  0.00    +0.385 N 
ATOM     20  C   UNL     1      -0.977  -0.791   2.357  0.00  0.00    -0.073 C 
ATOM     21  C   UNL     1      -1.160  -0.165   3.741  0.00  0.00    +0.017 C 
ATOM     22  C   UNL     1      -2.614  -0.216   4.135  0.00  0.00    -0.048 A 
ATOM     23  C   UNL     1      -2.948  -0.026   5.467  0.00  0.00    +0.004 A 
ATOM     24  C   UNL     1      -4.270  -0.062   5.865  0.00  0.00    +0.000 A 
ATOM     25  C   UNL     1      -5.263  -0.290   4.931  0.00  0.00    +0.000 A 
ATOM     26  C   UNL     1      -4.931  -0.482   3.605  0.00  0.00    +0.002 A 
ATOM     27  C   UNL     1      -3.603  -0.447   3.204  0.00  0.00    -0.061 A 
ATOM     28  C   UNL     1      -3.285  -0.669   1.748  0.00  0.00    -0.042 C 
ATOM     29  H   UNL     1      -1.918   0.828   1.536  0.00  0.00    -0.081 HD
ENDBRANCH  18  19
BRANCH  18  31
ATOM     30  C   UNL     1      -0.405   1.633  -0.283  0.00  0.00    +0.002 C 
ATOM     31  C   UNL     1      -0.264   0.111  -0.328  0.00  0.00    -0.017 C 
ENDBRANCH  18  31
ENDBRANCH  17  18
ENDBRANCH   1  17
TORSDOF 6
