REMARK  Name = ZINC09344132
REMARK  13 active torsions:
REMARK  status: ('A' for Active; 'I' for Inactive)
REMARK    1  A    between atoms: C_1  and  C_2
REMARK    2  A    between atoms: C_2  and  N_59
REMARK    3  A    between atoms: C_3  and  C_4
REMARK    4  A    between atoms: C_3  and  N_59
REMARK    5  A    between atoms: C_5  and  C_6
REMARK    6  A    between atoms: C_5  and  N_59
REMARK    7  A    between atoms: C_6  and  N_7
REMARK    8  A    between atoms: C_11  and  O_18
REMARK    9  A    between atoms: C_14  and  C_17
REMARK   10  A    between atoms: O_18  and  C_19
REMARK   11  A    between atoms: C_20  and  C_22
REMARK   12  A    between atoms: C_22  and  S_23
REMARK   13  A    between atoms: S_23  and  C_24
REMARK                            x       y       z     vdW  Elec       q    Type
REMARK                         _______ _______ _______ _____ _____    ______ ____
ROOT
ATOM      1  N   UNL     1       4.388   4.522  -0.019  0.00  0.00    -0.252 N 
ATOM      2  C   UNL     1       3.395   3.555   0.004  0.00  0.00    +0.168 A 
ATOM      3  N   UNL     1       3.517   2.249   0.016  0.00  0.00    -0.221 NA
ATOM      4  C   UNL     1       2.451   1.420   0.038  0.00  0.00    +0.122 A 
ATOM      5  C   UNL     1       2.444   0.002   0.053  0.00  0.00    +0.147 A 
ATOM      6  C   UNL     1       1.258  -0.694   0.076  0.00  0.00    +0.048 A 
ATOM      7  C   UNL     1       0.035  -0.038   0.084  0.00  0.00    +0.008 A 
ATOM      8  C   UNL     1       0.007   1.344   0.070  0.00  0.00    -0.034 A 
ATOM      9  C   UNL     1       1.186   2.048   0.048  0.00  0.00    +0.047 A 
ATOM     10  S   UNL     1       1.621   3.771   0.024  0.00  0.00    -0.051 S 
ATOM     11  C   UNL     1      -1.311   2.074   0.072  0.00  0.00    +0.045 C 
ATOM     12  C   UNL     1       4.057   5.828  -0.029  0.00  0.00    +0.231 C 
ATOM     13  O   UNL     1       2.890   6.158  -0.018  0.00  0.00    -0.274 OA
ENDROOT
BRANCH   5  14
ATOM     14  O   UNL     1       3.622  -0.677   0.045  0.00  0.00    -0.493 OA
ATOM     15  C   UNL     1       3.549  -2.104   0.061  0.00  0.00    +0.277 C 
ENDBRANCH   5  14
BRANCH   1  16
ATOM     16  C   UNL     1       5.798   4.123  -0.032  0.00  0.00    +0.097 C 
BRANCH  16  17
ATOM     17  C   UNL     1       6.271   3.969  -1.479  0.00  0.00    -0.059 C 
BRANCH  17  18
ATOM     18  N   UNL     1       7.725   3.708  -1.476  0.00  0.00    +0.380 N 
ATOM     19  H   UNL     1       8.173   4.322  -0.786  0.00  0.00    -0.082 HD
BRANCH  18  21
ATOM     20  C   UNL     1       9.489   2.116  -0.894  0.00  0.00    -0.017 C 
ATOM     21  C   UNL     1       7.985   2.301  -1.107  0.00  0.00    -0.082 C 
ENDBRANCH  18  21
BRANCH  18  22
ATOM     22  C   UNL     1       8.292   3.993  -2.812  0.00  0.00    -0.082 C 
ATOM     23  C   UNL     1       8.428   5.508  -2.973  0.00  0.00    -0.017 C 
ENDBRANCH  18  22
ENDBRANCH  17  18
ENDBRANCH  16  17
ENDBRANCH   1  16
BRANCH  12  24
ATOM     24  C   UNL     1       5.137   6.879  -0.053  0.00  0.00    +0.170 C 
BRANCH  24  25
ATOM     25  S   UNL     1       4.378   8.526  -0.061  0.00  0.00    -0.116 S 
BRANCH  25  26
ATOM     26  C   UNL     1       5.752   9.629  -0.090  0.00  0.00    +0.009 A 
ATOM     27  C   UNL     1       7.047   9.127  -0.095  0.00  0.00    +0.017 A 
ATOM     28  C   UNL     1       8.123   9.993  -0.122  0.00  0.00    +0.039 A 
ATOM     29  C   UNL     1       7.911  11.361  -0.134  0.00  0.00    +0.123 A 
ATOM     30  C   UNL     1       6.621  11.864  -0.124  0.00  0.00    +0.039 A 
ATOM     31  C   UNL     1       5.542  11.002  -0.102  0.00  0.00    +0.017 A 
ATOM     32  F   UNL     1       8.964  12.206  -0.157  0.00  0.00    -0.205 F 
ENDBRANCH  25  26
ENDBRANCH  24  25
ENDBRANCH  12  24
TORSDOF 9
