REMARK  Name = ZINC35671972
REMARK  8 active torsions:
REMARK  status: ('A' for Active; 'I' for Inactive)
REMARK    1  A    between atoms: C_1  and  C_2
REMARK    2  A    between atoms: C_11  and  C_32
REMARK    3  A    between atoms: C_13  and  S_15
REMARK    4  A    between atoms: S_15  and  C_16
REMARK    5  A    between atoms: C_16  and  C_17
REMARK    6  A    between atoms: C_20  and  C_23
REMARK    7  A    between atoms: N_25  and  C_26
REMARK    8  A    between atoms: C_26  and  C_27
REMARK                            x       y       z     vdW  Elec       q    Type
REMARK                         _______ _______ _______ _____ _____    ______ ____
ROOT
ATOM      1  S   UNL     1       3.645  -0.152   5.324  0.00  0.00    -0.081 S 
ENDROOT
BRANCH   1  13
ATOM      2  C   UNL     1       2.803   0.135   0.082  0.00  0.00    +0.028 C 
ATOM      3  C   UNL     1       1.496  -0.653  -0.039  0.00  0.00    +0.072 C 
ATOM      4  C   UNL     1       1.808  -2.117  -0.364  0.00  0.00    +0.022 C 
ATOM      5  C   UNL     1       0.509  -2.927  -0.346  0.00  0.00    +0.003 C 
ATOM      6  C   UNL     1      -0.113  -2.865   1.050  0.00  0.00    +0.019 C 
ATOM      7  C   UNL     1      -0.447  -1.409   1.392  0.00  0.00    +0.107 C 
ATOM      8  N   UNL     1       0.766  -0.594   1.235  0.00  0.00    -0.312 N 
ATOM      9  C   UNL     1       1.214   0.212   2.269  0.00  0.00    +0.126 A 
ATOM     10  C   UNL     1       0.769   1.531   2.384  0.00  0.00    +0.076 A 
ATOM     11  C   UNL     1       1.242   2.298   3.430  0.00  0.00    +0.150 A 
ATOM     12  N   UNL     1       2.098   1.765   4.289  0.00  0.00    -0.218 NA
ATOM     13  C   UNL     1       2.505   0.510   4.156  0.00  0.00    +0.191 A 
ATOM     14  N   UNL     1       2.071  -0.260   3.169  0.00  0.00    -0.207 NA
BRANCH  11  15
ATOM     15  C   UNL     1       0.789   3.726   3.594  0.00  0.00    +0.434 C 
ATOM     16  F   UNL     1      -0.357   3.763   4.395  0.00  0.00    -0.164 F 
ATOM     17  F   UNL     1       1.806   4.471   4.199  0.00  0.00    -0.164 F 
ATOM     18  F   UNL     1       0.497   4.269   2.338  0.00  0.00    -0.164 F 
ENDBRANCH  11  15
ENDBRANCH   1  13
BRANCH   1  19
ATOM     19  C   UNL     1       3.948   1.222   6.470  0.00  0.00    +0.112 C 
BRANCH  19  20
ATOM     20  C   UNL     1       4.920   0.784   7.534  0.00  0.00    -0.037 A 
ATOM     21  C   UNL     1       4.451   0.210   8.702  0.00  0.00    +0.005 A 
ATOM     22  C   UNL     1       5.336  -0.194   9.680  0.00  0.00    +0.013 A 
ATOM     23  C   UNL     1       6.708  -0.021   9.490  0.00  0.00    +0.037 A 
ATOM     24  C   UNL     1       7.175   0.559   8.309  0.00  0.00    +0.013 A 
ATOM     25  C   UNL     1       6.279   0.952   7.337  0.00  0.00    +0.005 A 
BRANCH  23  26
ATOM     26  C   UNL     1       7.662  -0.451  10.534  0.00  0.00    +0.244 C 
ATOM     27  O   UNL     1       7.252  -0.955  11.562  0.00  0.00    -0.270 OA
ATOM     28  N   UNL     1       8.986  -0.283  10.348  0.00  0.00    -0.304 N 
ATOM     29  H   UNL     1       9.313   0.120   9.528  0.00  0.00    +0.149 HD
BRANCH  28  30
ATOM     30  C   UNL     1       9.932  -0.708  11.382  0.00  0.00    +0.179 C 
BRANCH  30  31
ATOM     31  C   UNL     1      11.338  -0.412  10.930  0.00  0.00    +0.122 A 
ATOM     32  C   UNL     1      12.015   0.729  11.159  0.00  0.00    +0.046 A 
ATOM     33  C   UNL     1      13.287   0.577  10.562  0.00  0.00    +0.041 A 
ATOM     34  C   UNL     1      13.313  -0.646  10.004  0.00  0.00    +0.195 A 
ATOM     35  O   UNL     1      12.132  -1.243  10.235  0.00  0.00    -0.466 OA
ENDBRANCH  30  31
ENDBRANCH  28  30
ENDBRANCH  23  26
ENDBRANCH  19  20
ENDBRANCH   1  19
TORSDOF 7
