REMARK  Name = ZINC21537769
REMARK  8 active torsions:
REMARK  status: ('A' for Active; 'I' for Inactive)
REMARK    1  A    between atoms: C_1  and  C_2
REMARK    2  A    between atoms: C_14  and  C_19
REMARK    3  A    between atoms: N_21  and  C_22
REMARK    4  A    between atoms: C_22  and  C_23
REMARK    5  A    between atoms: C_26  and  O_29
REMARK    6  A    between atoms: O_29  and  C_30
REMARK    7  A    between atoms: C_30  and  C_31
REMARK    8  A    between atoms: C_30  and  C_32
REMARK                            x       y       z     vdW  Elec       q    Type
REMARK                         _______ _______ _______ _____ _____    ______ ____
ROOT
ATOM      1  C   UNL     1      -0.317  -6.869 -10.634  0.00  0.00    +0.009 C 
ATOM      2  C   UNL     1       0.787  -6.132  -9.873  0.00  0.00    +0.003 C 
ATOM      3  C   UNL     1       0.778  -4.652 -10.265  0.00  0.00    +0.006 C 
ATOM      4  C   UNL     1       1.845  -3.911  -9.455  0.00  0.00    +0.019 C 
ATOM      5  C   UNL     1       1.569  -4.101  -7.962  0.00  0.00    +0.107 C 
ATOM      6  N   UNL     1       1.590  -5.533  -7.638  0.00  0.00    -0.308 N 
ATOM      7  C   UNL     1       0.542  -6.258  -8.368  0.00  0.00    +0.110 C 
ATOM      8  C   UNL     1       1.473  -5.734  -6.273  0.00  0.00    +0.184 A 
ATOM      9  N   UNL     1       1.370  -4.849  -5.318  0.00  0.00    -0.139 NA
ATOM     10  N   UNL     1       1.260  -5.230  -3.984  0.00  0.00    -0.169 N 
ATOM     11  C   UNL     1       1.141  -4.404  -2.902  0.00  0.00    +0.287 A 
ATOM     12  O   UNL     1       1.123  -3.195  -3.055  0.00  0.00    -0.265 OA
ATOM     13  C   UNL     1       1.042  -4.957  -1.608  0.00  0.00    +0.121 A 
ATOM     14  C   UNL     1       1.058  -6.348  -1.455  0.00  0.00    +0.132 A 
ATOM     15  N   UNL     1       1.171  -7.103  -2.536  0.00  0.00    -0.229 NA
ATOM     16  C   UNL     1       1.266  -6.572  -3.734  0.00  0.00    +0.200 A 
ATOM     17  S   UNL     1       1.425  -7.269  -5.364  0.00  0.00    -0.013 S 
ENDROOT
BRANCH  13  18
ATOM     18  C   UNL     1       0.919  -4.083  -0.435  0.00  0.00    +0.251 C 
ATOM     19  O   UNL     1       0.722  -4.565   0.665  0.00  0.00    -0.270 OA
ATOM     20  N   UNL     1       1.025  -2.747  -0.576  0.00  0.00    -0.307 N 
ATOM     21  H   UNL     1       1.121  -2.306  -1.579  0.00  0.00    +0.149 HD
BRANCH  20  22
ATOM     22  C   UNL     1       1.011  -1.882   0.606  0.00  0.00    +0.139 C 
BRANCH  22  23
ATOM     23  C   UNL     1       1.143  -0.443   0.177  0.00  0.00    -0.030 A 
ATOM     24  C   UNL     1       0.011   0.302  -0.096  0.00  0.00    +0.009 A 
ATOM     25  C   UNL     1       0.129   1.621  -0.489  0.00  0.00    +0.046 A 
ATOM     26  C   UNL     1       1.385   2.198  -0.609  0.00  0.00    +0.121 A 
ATOM     27  C   UNL     1       2.519   1.449  -0.334  0.00  0.00    +0.046 A 
ATOM     28  C   UNL     1       2.396   0.130   0.058  0.00  0.00    +0.009 A 
BRANCH  26  29
ATOM     29  O   UNL     1       1.503   3.496  -0.995  0.00  0.00    -0.489 OA
BRANCH  29  30
ATOM     30  C   UNL     1       0.303   4.173  -1.373  0.00  0.00    +0.167 C 
ATOM     31  C   UNL     1      -0.381   4.733  -0.125  0.00  0.00    +0.051 C 
ATOM     32  C   UNL     1       0.643   5.320  -2.327  0.00  0.00    +0.051 C 
ENDBRANCH  29  30
ENDBRANCH  26  29
ENDBRANCH  22  23
ENDBRANCH  20  22
ENDBRANCH  13  18
TORSDOF 5
