REMARK  Name = ZINC50398189
REMARK  2 active torsions:
REMARK  status: ('A' for Active; 'I' for Inactive)
REMARK    1  A    between atoms: C_3  and  N_9
REMARK    2  A    between atoms: C_16  and  C_19
REMARK                            x       y       z     vdW  Elec       q    Type
REMARK                         _______ _______ _______ _____ _____    ______ ____
ROOT
ATOM      1  N   UNL     1       3.524   1.903   1.250  0.00  0.00    -0.288 N 
ATOM      2  C   UNL     1       4.234   2.143   2.371  0.00  0.00    +0.303 C 
ATOM      3  O   UNL     1       3.663   2.254   3.439  0.00  0.00    -0.253 OA
ATOM      4  N   UNL     1       5.574   2.262   2.307  0.00  0.00    -0.285 N 
ATOM      5  C   UNL     1       6.267   2.247   1.011  0.00  0.00    +0.109 C 
ATOM      6  C   UNL     1       7.360   1.175   1.048  0.00  0.00    +0.020 C 
ATOM      7  C   UNL     1       8.277   1.427   2.248  0.00  0.00    +0.018 C 
ATOM      8  C   UNL     1       7.464   1.334   3.541  0.00  0.00    +0.119 C 
ATOM      9  C   UNL     1       6.372   2.414   3.532  0.00  0.00    +0.124 C 
ATOM     10  H   UNL     1       3.969   1.888   0.388  0.00  0.00    +0.151 HD
ENDROOT
BRANCH   1  13
ATOM     11  C   UNL     1      -0.018   1.519   0.011  0.00  0.00    +0.021 C 
ATOM     12  C   UNL     1       1.427   2.032   0.000  0.00  0.00    +0.033 C 
ATOM     13  C   UNL     1       2.082   1.663   1.334  0.00  0.00    +0.160 C 
ATOM     14  C   UNL     1       1.835   0.214   1.641  0.00  0.00    +0.233 C 
ATOM     15  O   UNL     1       2.536  -0.324   2.471  0.00  0.00    -0.274 OA
ATOM     16  N   UNL     1       0.886  -0.513   1.049  0.00  0.00    -0.314 N 
ATOM     17  C   UNL     1       0.005  -0.010   0.003  0.00  0.00    +0.104 C 
ATOM     18  H   UNL     1       0.776  -1.434   1.333  0.00  0.00    +0.149 HD
ENDBRANCH   1  13
BRANCH   8  19
ATOM     19  C   UNL     1       8.374   1.550   4.723  0.00  0.00    +0.361 C 
ATOM     20  O   UNL     1       7.937   2.051   5.745  0.00  0.00    -0.246 OA
ATOM     21  O   UNL     1       9.547   1.225   4.657  0.00  0.00    -0.246 OA
ENDBRANCH   8  19
TORSDOF 2
