REMARK  Name = ZINC20835548
REMARK  7 active torsions:
REMARK  status: ('A' for Active; 'I' for Inactive)
REMARK    1  A    between atoms: C_1  and  C_2
REMARK    2  A    between atoms: C_2  and  C_26
REMARK    3  A    between atoms: N_3  and  N_4
REMARK    4  A    between atoms: C_7  and  S_10
REMARK    5  A    between atoms: S_10  and  C_11
REMARK    6  A    between atoms: C_11  and  C_12
REMARK    7  A    between atoms: N_14  and  C_15
REMARK                            x       y       z     vdW  Elec       q    Type
REMARK                         _______ _______ _______ _____ _____    ______ ____
ROOT
ATOM      1  N   UNL     1      -0.058  13.273  -2.955  0.00  0.00    -0.205 N 
ATOM      2  C   UNL     1      -0.467  11.968  -2.718  0.00  0.00    +0.232 A 
ATOM      3  N   UNL     1      -0.321  11.281  -1.544  0.00  0.00    -0.186 NA
ATOM      4  C   UNL     1      -0.848  10.033  -1.718  0.00  0.00    +0.211 A 
ATOM      5  N   UNL     1      -1.296   9.949  -2.948  0.00  0.00    -0.144 NA
ATOM      6  N   UNL     1      -1.059  11.177  -3.580  0.00  0.00    -0.245 N 
ATOM      7  H   UNL     1       0.432  13.849  -2.156  0.00  0.00    +0.177 HD
ATOM      8  H   UNL     1      -1.278  11.537  -4.596  0.00  0.00    +0.192 HD
ENDROOT
BRANCH   1  11
ATOM      9  C   UNL     1       0.783  15.867  -3.339  0.00  0.00    +0.068 C 
ATOM     10  C   UNL     1       0.111  15.077  -4.433  0.00  0.00    +0.063 C 
ATOM     11  N   UNL     1      -0.271  13.856  -4.211  0.00  0.00    -0.184 NA
BRANCH  10  12
ATOM     12  C   UNL     1      -0.113  15.691  -5.753  0.00  0.00    -0.002 A 
ATOM     13  C   UNL     1       0.304  17.015  -5.989  0.00  0.00    +0.010 A 
ATOM     14  C   UNL     1       0.109  17.601  -7.197  0.00  0.00    +0.009 A 
ATOM     15  C   UNL     1      -0.517  16.885  -8.235  0.00  0.00    -0.018 A 
ATOM     16  C   UNL     1      -0.729  17.472  -9.493  0.00  0.00    +0.008 A 
ATOM     17  C   UNL     1      -1.336  16.755 -10.479  0.00  0.00    +0.001 A 
ATOM     18  C   UNL     1      -1.753  15.443 -10.259  0.00  0.00    +0.001 A 
ATOM     19  C   UNL     1      -1.564  14.841  -9.053  0.00  0.00    +0.008 A 
ATOM     20  C   UNL     1      -0.941  15.551  -8.011  0.00  0.00    -0.017 A 
ATOM     21  C   UNL     1      -0.726  14.958  -6.758  0.00  0.00    +0.018 A 
ENDBRANCH  10  12
ENDBRANCH   1  11
BRANCH   4  22
ATOM     22  S   UNL     1      -0.910   8.757  -0.504  0.00  0.00    -0.075 S 
BRANCH  22  23
ATOM     23  C   UNL     1      -1.720   7.377  -1.359  0.00  0.00    +0.173 C 
BRANCH  23  24
ATOM     24  C   UNL     1      -1.837   6.204  -0.420  0.00  0.00    +0.224 C 
ATOM     25  O   UNL     1      -1.416   6.290   0.714  0.00  0.00    -0.275 OA
ATOM     26  N   UNL     1      -2.411   5.059  -0.841  0.00  0.00    -0.308 N 
ATOM     27  H   UNL     1      -2.793   4.981  -1.869  0.00  0.00    +0.149 HD
BRANCH  26  28
ATOM     28  C   UNL     1      -2.525   3.919   0.072  0.00  0.00    +0.103 C 
ATOM     29  C   UNL     1      -3.706   3.051  -0.372  0.00  0.00    +0.027 C 
ATOM     30  C   UNL     1      -3.683   1.759   0.454  0.00  0.00    +0.007 C 
ATOM     31  C   UNL     1      -2.487   0.921   0.005  0.00  0.00    +0.035 C 
ATOM     32  C   UNL     1      -1.228   1.748   0.017  0.00  0.00    -0.042 A 
ATOM     33  C   UNL     1      -1.245   3.125   0.037  0.00  0.00    -0.024 A 
ATOM     34  C   UNL     1      -0.048   3.828   0.025  0.00  0.00    +0.006 A 
ATOM     35  C   UNL     1       1.158   3.158   0.008  0.00  0.00    +0.000 A 
ATOM     36  C   UNL     1       1.176   1.776   0.000  0.00  0.00    +0.000 A 
ATOM     37  C   UNL     1      -0.013   1.076   0.008  0.00  0.00    +0.004 A 
ENDBRANCH  26  28
ENDBRANCH  23  24
ENDBRANCH  22  23
ENDBRANCH   4  22
TORSDOF 6
