REMARK  Name = ZINC09308605
REMARK  11 active torsions:
REMARK  status: ('A' for Active; 'I' for Inactive)
REMARK    1  A    between atoms: C_1  and  C_2
REMARK    2  A    between atoms: C_2  and  O_3
REMARK    3  A    between atoms: O_3  and  C_4
REMARK    4  A    between atoms: C_7  and  C_12
REMARK    5  A    between atoms: C_9  and  O_10
REMARK    6  A    between atoms: O_10  and  C_11
REMARK    7  A    between atoms: C_19  and  N_33
REMARK    8  A    between atoms: C_20  and  C_31
REMARK    9  A    between atoms: C_21  and  C_23
REMARK   10  A    between atoms: C_26  and  S_29
REMARK   11  A    between atoms: S_29  and  C_30
REMARK                            x       y       z     vdW  Elec       q    Type
REMARK                         _______ _______ _______ _____ _____    ______ ____
ROOT
ATOM      1  C   UNL     1      -1.940  -6.433   0.107  0.00  0.00    +0.074 A 
ATOM      2  C   UNL     1      -1.326  -7.152  -0.863  0.00  0.00    +0.054 A 
ATOM      3  C   UNL     1      -1.677  -8.506  -0.693  0.00  0.00    +0.245 A 
ATOM      4  N   UNL     1      -2.468  -8.597   0.338  0.00  0.00    -0.135 NA
ATOM      5  N   UNL     1      -2.654  -7.313   0.872  0.00  0.00    -0.273 N 
ATOM      6  H   UNL     1      -3.194  -7.089   1.645  0.00  0.00    +0.189 HD
ATOM      7  O   UNL     1      -1.214  -9.480  -1.522  0.00  0.00    -0.421 OA
ATOM      8  C   UNL     1      -0.630  -9.090  -2.673  0.00  0.00    +0.201 C 
ATOM      9  C   UNL     1      -0.241  -7.827  -2.944  0.00  0.00    +0.098 C 
ATOM     10  C   UNL     1      -0.414  -6.688  -1.970  0.00  0.00    +0.102 C 
ENDROOT
BRANCH   1  14
ATOM     11  C   UNL     1      -1.684  -2.225   0.672  0.00  0.00    +0.162 A 
ATOM     12  C   UNL     1      -1.931  -2.742  -0.591  0.00  0.00    +0.050 A 
ATOM     13  C   UNL     1      -2.015  -4.106  -0.778  0.00  0.00    +0.014 A 
ATOM     14  C   UNL     1      -1.850  -4.970   0.306  0.00  0.00    +0.004 A 
ATOM     15  C   UNL     1      -1.601  -4.451   1.577  0.00  0.00    +0.059 A 
ATOM     16  C   UNL     1      -1.513  -3.082   1.756  0.00  0.00    +0.162 A 
BRANCH  16  17
ATOM     17  O   UNL     1      -1.265  -2.574   2.993  0.00  0.00    -0.491 OA
ATOM     18  C   UNL     1      -1.101  -3.511   4.059  0.00  0.00    +0.277 C 
ENDBRANCH  16  17
BRANCH  11  19
ATOM     19  O   UNL     1      -1.602  -0.880   0.851  0.00  0.00    -0.489 OA
BRANCH  19  21
ATOM     20  C   UNL     1      -1.661   1.413   0.091  0.00  0.00    +0.048 C 
ATOM     21  C   UNL     1      -1.788  -0.059  -0.304  0.00  0.00    +0.226 C 
ENDBRANCH  19  21
ENDBRANCH  11  19
ENDBRANCH   1  14
BRANCH  10  22
ATOM     22  C   UNL     1       0.925  -6.301  -1.397  0.00  0.00    -0.034 A 
ATOM     23  C   UNL     1       1.649  -7.217  -0.657  0.00  0.00    +0.005 A 
ATOM     24  C   UNL     1       2.877  -6.866  -0.130  0.00  0.00    +0.015 A 
ATOM     25  C   UNL     1       3.384  -5.590  -0.346  0.00  0.00    +0.008 A 
ATOM     26  C   UNL     1       2.653  -4.672  -1.091  0.00  0.00    +0.015 A 
ATOM     27  C   UNL     1       1.429  -5.032  -1.619  0.00  0.00    +0.005 A 
BRANCH  25  28
ATOM     28  S   UNL     1       4.949  -5.137   0.325  0.00  0.00    -0.129 S 
ATOM     29  C   UNL     1       5.176  -3.419  -0.212  0.00  0.00    +0.090 C 
ENDBRANCH  25  28
ENDBRANCH  10  22
BRANCH   8  30
ATOM     30  N   UNL     1      -0.416 -10.045  -3.636  0.00  0.00    -0.328 N 
ATOM     31  H   UNL     1      -0.683 -10.963  -3.476  0.00  0.00    +0.145 HD
ATOM     32  H   UNL     1       0.001  -9.800  -4.477  0.00  0.00    +0.145 HD
ENDBRANCH   8  30
BRANCH   9  33
ATOM     33  C   UNL     1       0.363  -7.555  -4.213  0.00  0.00    +0.101 C 
ATOM     34  N   UNL     1       0.843  -7.339  -5.220  0.00  0.00    -0.191 NA
ENDBRANCH   9  33
TORSDOF 8
