REMARK  Name = ZINC40805640
REMARK  7 active torsions:
REMARK  status: ('A' for Active; 'I' for Inactive)
REMARK    1  A    between atoms: C_1  and  N_2
REMARK    2  A    between atoms: N_2  and  C_3
REMARK    3  A    between atoms: N_2  and  C_4
REMARK    4  A    between atoms: C_4  and  C_6
REMARK    5  A    between atoms: C_4  and  C_17
REMARK    6  A    between atoms: C_6  and  N_7
REMARK    7  A    between atoms: C_8  and  C_10
REMARK                            x       y       z     vdW  Elec       q    Type
REMARK                         _______ _______ _______ _____ _____    ______ ____
ROOT
ATOM      1  N   UNL     1      -0.915  -2.532   0.564  0.00  0.00    -0.318 N 
ATOM      2  C   UNL     1      -0.977  -3.878   0.530  0.00  0.00    +0.199 C 
ATOM      3  O   UNL     1      -1.633  -4.434  -0.326  0.00  0.00    -0.278 OA
ATOM      4  H   UNL     1      -0.390  -2.088   1.248  0.00  0.00    +0.149 HD
ENDROOT
BRANCH   2   5
ATOM      5  C   UNL     1      -0.232  -4.693   1.555  0.00  0.00    +0.016 C 
ATOM      6  C   UNL     1      -0.734  -4.333   2.955  0.00  0.00    -0.007 C 
ATOM      7  C   UNL     1       0.027  -5.163   3.994  0.00  0.00    -0.003 C 
ATOM      8  C   UNL     1      -0.155  -6.650   3.676  0.00  0.00    -0.019 C 
ATOM      9  C   UNL     1       0.325  -6.924   2.250  0.00  0.00    -0.082 C 
ATOM     10  N   UNL     1      -0.458  -6.121   1.303  0.00  0.00    +0.387 N 
ATOM     11  H   UNL     1      -1.439  -6.330   1.417  0.00  0.00    -0.085 HD
ATOM     12  H   UNL     1      -0.176  -6.344   0.361  0.00  0.00    -0.085 HD
ENDBRANCH   2   5
BRANCH   1  13
ATOM     13  C   UNL     1      -1.639  -1.740  -0.433  0.00  0.00    +0.096 C 
BRANCH  13  14
ATOM     14  C   UNL     1      -1.508  -0.254  -0.097  0.00  0.00    +0.016 C 
BRANCH  14  15
ATOM     15  C   UNL     1      -0.068   0.168  -0.237  0.00  0.00    +0.093 A 
ATOM     16  C   UNL     1       0.462   0.818  -1.289  0.00  0.00    +0.043 A 
ATOM     17  C   UNL     1       1.833   1.012  -1.002  0.00  0.00    +0.041 A 
ATOM     18  C   UNL     1       2.058   0.468   0.208  0.00  0.00    +0.195 A 
ATOM     19  O   UNL     1       0.902  -0.036   0.669  0.00  0.00    -0.469 OA
ENDBRANCH  14  15
BRANCH  14  21
ATOM     20  C   UNL     1      -1.819   1.403   1.610  0.00  0.00    -0.096 C 
ATOM     21  N   UNL     1      -1.954  -0.023   1.284  0.00  0.00    +0.384 N 
ATOM     22  C   UNL     1      -3.360  -0.425   1.419  0.00  0.00    -0.096 C 
ATOM     23  H   UNL     1      -1.386  -0.567   1.916  0.00  0.00    -0.082 HD
ENDBRANCH  14  21
ENDBRANCH  13  14
ENDBRANCH   1  13
TORSDOF 5
