REMARK  Name = ZINC35304172
REMARK  16 active torsions:
REMARK  status: ('A' for Active; 'I' for Inactive)
REMARK    1  A    between atoms: C_1  and  C_2
REMARK    2  A    between atoms: C_2  and  N_3
REMARK    3  A    between atoms: C_4  and  C_37
REMARK    4  A    between atoms: C_5  and  C_30
REMARK    5  A    between atoms: C_6  and  C_11
REMARK    6  A    between atoms: C_14  and  N_17
REMARK    7  A    between atoms: N_17  and  S_18
REMARK    8  A    between atoms: S_18  and  C_21
REMARK    9  A    between atoms: C_22  and  C_29
REMARK   10  A    between atoms: C_24  and  C_28
REMARK   11  A    between atoms: C_26  and  C_27
REMARK   12  A    between atoms: C_30  and  O_32
REMARK   13  A    between atoms: O_32  and  C_33
REMARK   14  A    between atoms: C_33  and  C_34
REMARK   15  A    between atoms: C_34  and  C_35
REMARK   16  A    between atoms: C_34  and  C_36
REMARK                            x       y       z     vdW  Elec       q    Type
REMARK                         _______ _______ _______ _____ _____    ______ ____
ROOT
ATOM      1  C   UNL     1       2.628  -1.107  -4.903  0.00  0.00    -0.022 A 
ATOM      2  C   UNL     1       2.599   0.237  -4.580  0.00  0.00    +0.007 A 
ATOM      3  C   UNL     1       2.643   1.190  -5.578  0.00  0.00    +0.025 A 
ATOM      4  C   UNL     1       2.717   0.798  -6.908  0.00  0.00    +0.048 A 
ATOM      5  C   UNL     1       2.747  -0.553  -7.230  0.00  0.00    +0.025 A 
ATOM      6  C   UNL     1       2.707  -1.501  -6.226  0.00  0.00    +0.007 A 
ENDROOT
BRANCH   1  10
ATOM      7  N   UNL     1       1.806  -1.717  -1.191  0.00  0.00    -0.286 N 
ATOM      8  C   UNL     1       0.837  -2.075  -2.083  0.00  0.00    +0.021 C 
ATOM      9  C   UNL     1       1.135  -2.302  -3.381  0.00  0.00    +0.078 C 
ATOM     10  C   UNL     1       2.579  -2.144  -3.811  0.00  0.00    +0.141 C 
ATOM     11  N   UNL     1       3.546  -1.754  -2.772  0.00  0.00    -0.315 N 
ATOM     12  C   UNL     1       3.094  -1.558  -1.517  0.00  0.00    +0.138 C 
ATOM     13  S   UNL     1       4.206  -1.098  -0.299  0.00  0.00    -0.018 S 
ATOM     14  C   UNL     1      -0.587  -2.221  -1.612  0.00  0.00    +0.061 C 
ATOM     15  H   UNL     1       4.485  -1.638  -2.985  0.00  0.00    +0.149 HD
BRANCH   7  17
ATOM     16  C   UNL     1       1.382  -2.821   0.950  0.00  0.00    +0.025 C 
ATOM     17  C   UNL     1       1.412  -1.487   0.202  0.00  0.00    +0.109 C 
ENDBRANCH   7  17
BRANCH   9  18
ATOM     18  C   UNL     1       0.132  -2.675  -4.307  0.00  0.00    +0.339 C 
ATOM     19  O   UNL     1      -1.021  -2.796  -3.938  0.00  0.00    -0.245 OA
BRANCH  18  20
ATOM     20  O   UNL     1       0.455  -2.896  -5.598  0.00  0.00    -0.461 OA
BRANCH  20  21
ATOM     21  C   UNL     1      -0.607  -3.269  -6.478  0.00  0.00    +0.235 C 
BRANCH  21  22
ATOM     22  C   UNL     1      -0.053  -3.476  -7.888  0.00  0.00    +0.020 C 
ATOM     23  C   UNL     1       0.910  -4.665  -7.889  0.00  0.00    +0.010 C 
ATOM     24  C   UNL     1      -1.207  -3.753  -8.854  0.00  0.00    +0.010 C 
ENDBRANCH  21  22
ENDBRANCH  20  21
ENDBRANCH  18  20
ENDBRANCH   9  18
ENDBRANCH   1  10
BRANCH   4  25
ATOM     25  N   UNL     1       2.762   1.760  -7.920  0.00  0.00    -0.216 N 
ATOM     26  H   UNL     1       2.147   2.509  -7.905  0.00  0.00    +0.174 HD
BRANCH  25  27
ATOM     27  S   UNL     1       3.866   1.620  -9.147  0.00  0.00    +0.073 S 
ATOM     28  O   UNL     1       3.684   2.751  -9.988  0.00  0.00    -0.150 OA
ATOM     29  O   UNL     1       5.114   1.317  -8.537  0.00  0.00    -0.150 OA
BRANCH  27  30
ATOM     30  C   UNL     1       3.413   0.207 -10.097  0.00  0.00    +0.114 A 
ATOM     31  C   UNL     1       2.256   0.225 -10.853  0.00  0.00    -0.023 A 
ATOM     32  C   UNL     1       1.901  -0.883 -11.599  0.00  0.00    +0.008 A 
ATOM     33  C   UNL     1       2.703  -2.009 -11.590  0.00  0.00    -0.050 A 
ATOM     34  C   UNL     1       3.861  -2.026 -10.834  0.00  0.00    +0.008 A 
ATOM     35  C   UNL     1       4.218  -0.916 -10.092  0.00  0.00    -0.023 A 
ATOM     36  C   UNL     1       5.483  -0.933  -9.273  0.00  0.00    +0.046 C 
ATOM     37  C   UNL     1       2.315  -3.217 -12.402  0.00  0.00    +0.044 C 
ATOM     38  C   UNL     1       1.382   1.452 -10.864  0.00  0.00    +0.046 C 
ENDBRANCH  27  30
ENDBRANCH  25  27
ENDBRANCH   4  25
TORSDOF 9
