REMARK  Name = ZINC63385619
REMARK  6 active torsions:
REMARK  status: ('A' for Active; 'I' for Inactive)
REMARK    1  A    between atoms: C_5  and  C_7
REMARK    2  A    between atoms: C_7  and  N_8
REMARK    3  A    between atoms: C_9  and  C_11
REMARK    4  A    between atoms: N_22  and  C_24
REMARK    5  A    between atoms: C_24  and  C_25
REMARK    6  A    between atoms: C_25  and  C_26
REMARK                            x       y       z     vdW  Elec       q    Type
REMARK                         _______ _______ _______ _____ _____    ______ ____
ROOT
ATOM      1  C   UNL     1       1.819  -4.511   2.961  0.00  0.00    +0.122 C 
ATOM      2  C   UNL     1       3.259  -4.090   3.451  0.00  0.00    +0.155 C 
ATOM      3  C   UNL     1       3.146  -4.261   4.971  0.00  0.00    +0.004 C 
ATOM      4  C   UNL     1       3.119  -5.570   5.168  0.00  0.00    +0.008 C 
ATOM      5  C   UNL     1       3.275  -6.197   3.794  0.00  0.00    +0.116 C 
ATOM      6  C   UNL     1       1.926  -6.015   2.979  0.00  0.00    +0.127 C 
ATOM      7  C   UNL     1       1.065  -6.958   3.715  0.00  0.00    +0.223 C 
ATOM      8  O   UNL     1      -0.121  -6.831   3.935  0.00  0.00    -0.275 OA
ATOM      9  N   UNL     1       1.861  -8.009   4.102  0.00  0.00    -0.298 N 
ATOM     10  C   UNL     1       3.275  -7.694   3.834  0.00  0.00    +0.147 C 
ATOM     11  O   UNL     1       4.078  -5.271   3.065  0.00  0.00    -0.359 OA
ENDROOT
BRANCH   1  13
ATOM     12  N   UNL     1       1.489  -2.679   1.333  0.00  0.00    -0.311 N 
ATOM     13  C   UNL     1       1.552  -4.005   1.567  0.00  0.00    +0.220 C 
ATOM     14  O   UNL     1       1.393  -4.790   0.657  0.00  0.00    -0.275 OA
ATOM     15  H   UNL     1       1.615  -2.051   2.062  0.00  0.00    +0.149 HD
BRANCH  12  16
ATOM     16  C   UNL     1       1.229  -2.186  -0.022  0.00  0.00    +0.141 C 
BRANCH  16  21
ATOM     17  C   UNL     1      -0.017   1.378   0.010  0.00  0.00    +0.000 A 
ATOM     18  C   UNL     1       1.171   2.086   0.002  0.00  0.00    +0.001 A 
ATOM     19  C   UNL     1       2.377   1.412  -0.013  0.00  0.00    +0.020 A 
ATOM     20  C   UNL     1       2.397   0.029  -0.021  0.00  0.00    +0.046 A 
ATOM     21  C   UNL     1       1.208  -0.679  -0.013  0.00  0.00    -0.012 A 
ATOM     22  C   UNL     1       0.002  -0.004   0.002  0.00  0.00    +0.006 A 
ATOM     23 CL   UNL     1       3.912  -0.818  -0.041  0.00  0.00    -0.083 Cl
ENDBRANCH  16  21
ENDBRANCH  12  16
ENDBRANCH   1  13
BRANCH   9  24
ATOM     24  C   UNL     1       1.382  -9.244   4.728  0.00  0.00    +0.112 C 
BRANCH  24  25
ATOM     25  C   UNL     1       1.060 -10.274   3.644  0.00  0.00    +0.052 C 
BRANCH  25  26
ATOM     26  C   UNL     1       0.568 -11.544   4.288  0.00  0.00    -0.040 C 
ATOM     27  C   UNL     1      -0.719 -11.904   4.498  0.00  0.00    -0.001 A 
ATOM     28  C   UNL     1      -1.997 -11.245   4.202  0.00  0.00    +0.010 A 
ATOM     29  C   UNL     1      -3.149 -11.867   4.539  0.00  0.00    +0.001 A 
ATOM     30  C   UNL     1      -3.154 -13.122   5.164  0.00  0.00    +0.002 A 
ATOM     31  C   UNL     1      -2.021 -13.790   5.468  0.00  0.00    +0.026 A 
ATOM     32  C   UNL     1      -0.751 -13.229   5.157  0.00  0.00    +0.043 A 
ATOM     33  N   UNL     1       0.468 -13.671   5.348  0.00  0.00    -0.380 N 
ATOM     34  C   UNL     1       1.413 -12.678   4.824  0.00  0.00    +0.144 C 
ATOM     35  H   UNL     1       0.706 -14.515   5.762  0.00  0.00    +0.160 HD
ENDBRANCH  25  26
ENDBRANCH  24  25
ENDBRANCH   9  24
TORSDOF 6
