REMARK  Name = ZINC04517096
REMARK  6 active torsions:
REMARK  status: ('A' for Active; 'I' for Inactive)
REMARK    1  A    between atoms: C_1  and  C_2
REMARK    2  A    between atoms: C_2  and  C_28
REMARK    3  A    between atoms: C_17  and  N_21
REMARK    4  A    between atoms: C_18  and  C_19
REMARK    5  A    between atoms: N_24  and  C_25
REMARK    6  A    between atoms: C_25  and  C_26
REMARK                            x       y       z     vdW  Elec       q    Type
REMARK                         _______ _______ _______ _____ _____    ______ ____
ROOT
ATOM      1  C   UNL     1       2.859   3.076  -2.143  0.00  0.00    +0.011 C 
ATOM      2  C   UNL     1       2.966   3.502  -0.677  0.00  0.00    -0.023 C 
ATOM      3  C   UNL     1       1.596   3.352  -0.005  0.00  0.00    +0.058 C 
ATOM      4  C   UNL     1       1.232   1.881   0.000  0.00  0.00    +0.023 C 
ATOM      5  C   UNL     1       2.187   0.911  -0.009  0.00  0.00    +0.037 C 
ATOM      6  C   UNL     1       3.564   1.180  -0.013  0.00  0.00    +0.163 C 
ATOM      7  O   UNL     1       4.379   0.280  -0.050  0.00  0.00    -0.292 OA
ATOM      8  C   UNL     1       4.002   2.628   0.030  0.00  0.00    +0.086 C 
ATOM      9  C   UNL     1       1.464  -0.403  -0.015  0.00  0.00    +0.144 C 
ATOM     10  C   UNL     1       1.794  -1.204   1.212  0.00  0.00    +0.020 A 
ATOM     11  C   UNL     1       1.287  -0.820   2.441  0.00  0.00    +0.009 A 
ATOM     12  C   UNL     1       1.583  -1.552   3.575  0.00  0.00    +0.001 A 
ATOM     13  C   UNL     1       2.387  -2.673   3.485  0.00  0.00    +0.004 A 
ATOM     14  C   UNL     1       2.897  -3.061   2.262  0.00  0.00    +0.046 A 
ATOM     15  C   UNL     1       2.603  -2.326   1.120  0.00  0.00    +0.135 A 
ATOM     16  O   UNL     1       3.113  -2.717  -0.074  0.00  0.00    -0.441 OA
ATOM     17  C   UNL     1       2.566  -2.279  -1.220  0.00  0.00    +0.199 C 
ATOM     18  C   UNL     1       1.772  -1.181  -1.260  0.00  0.00    +0.110 C 
ATOM     19  C   UNL     1       0.002  -0.004   0.002  0.00  0.00    +0.241 C 
ATOM     20  O   UNL     1      -0.957  -0.747   0.008  0.00  0.00    -0.273 OA
ATOM     21  N   UNL     1      -0.016   1.345   0.009  0.00  0.00    -0.262 N 
ATOM     22  C   UNL     1       3.408   4.965  -0.605  0.00  0.00    +0.011 C 
ENDROOT
BRANCH  17  23
ATOM     23  N   UNL     1       2.819  -2.961  -2.383  0.00  0.00    -0.328 N 
ATOM     24  H   UNL     1       2.432  -2.656  -3.219  0.00  0.00    +0.145 HD
ATOM     25  H   UNL     1       3.386  -3.749  -2.370  0.00  0.00    +0.145 HD
ENDBRANCH  17  23
BRANCH  18  26
ATOM     26  C   UNL     1       1.218  -0.757  -2.511  0.00  0.00    +0.102 C 
ATOM     27  N   UNL     1       0.778  -0.421  -3.503  0.00  0.00    -0.191 NA
ENDBRANCH  18  26
BRANCH  21  28
ATOM     28  C   UNL     1      -1.245   2.142   0.020  0.00  0.00    +0.201 C 
BRANCH  28  29
ATOM     29  C   UNL     1      -1.650   2.402   1.411  0.00  0.00    -0.086 C 
ATOM     30  C   UNL     1      -1.972   2.610   2.521  0.00  0.00    +0.005 C 
ENDBRANCH  28  29
ENDBRANCH  21  28
TORSDOF 4
