REMARK  Name = ZINC39923299
REMARK  12 active torsions:
REMARK  status: ('A' for Active; 'I' for Inactive)
REMARK    1  A    between atoms: C_1  and  C_2
REMARK    2  A    between atoms: C_2  and  N_3
REMARK    3  A    between atoms: C_4  and  C_26
REMARK    4  A    between atoms: C_8  and  S_10
REMARK    5  A    between atoms: S_10  and  C_11
REMARK    6  A    between atoms: C_11  and  C_12
REMARK    7  A    between atoms: N_14  and  N_15
REMARK    8  A    between atoms: C_16  and  C_17
REMARK    9  A    between atoms: C_29  and  C_32
REMARK   10  A    between atoms: C_32  and  C_33
REMARK   11  A    between atoms: C_32  and  C_34
REMARK   12  A    between atoms: C_32  and  C_35
REMARK                            x       y       z     vdW  Elec       q    Type
REMARK                         _______ _______ _______ _____ _____    ______ ____
ROOT
ATOM      1  N   UNL     1      -1.109  -0.540   0.027  0.00  0.00    +0.410 N 
ATOM      2  C   UNL     1      -1.387  -1.992  -0.141  0.00  0.00    +0.049 C 
ATOM      3  N   UNL     1      -2.761  -2.130   0.407  0.00  0.00    -0.267 NA
ATOM      4  N   UNL     1      -2.793  -1.218   1.553  0.00  0.00    -0.262 NA
ATOM      5  C   UNL     1      -1.748  -0.200   1.319  0.00  0.00    +0.077 C 
ATOM      6  H   UNL     1      -2.941  -3.080   0.696  0.00  0.00    +0.139 HD
ATOM      7  H   UNL     1      -2.627  -1.715   2.416  0.00  0.00    +0.140 HD
ATOM      8  H   UNL     1      -1.526  -0.010  -0.724  0.00  0.00    -0.075 HD
ENDROOT
BRANCH   2   9
ATOM      9  C   UNL     1      -1.348  -2.377  -1.598  0.00  0.00    -0.046 A 
ATOM     10  C   UNL     1      -0.365  -3.232  -2.061  0.00  0.00    +0.003 A 
ATOM     11  C   UNL     1      -0.330  -3.586  -3.396  0.00  0.00    +0.004 A 
ATOM     12  C   UNL     1      -1.277  -3.084  -4.270  0.00  0.00    -0.042 A 
ATOM     13  C   UNL     1      -2.260  -2.230  -3.807  0.00  0.00    +0.004 A 
ATOM     14  C   UNL     1      -2.298  -1.880  -2.470  0.00  0.00    +0.003 A 
BRANCH  12  15
ATOM     15  C   UNL     1      -1.237  -3.469  -5.726  0.00  0.00    -0.013 C 
ATOM     16  C   UNL     1      -1.380  -4.986  -5.857  0.00  0.00    +0.015 C 
ATOM     17  C   UNL     1      -2.387  -2.782  -6.466  0.00  0.00    +0.015 C 
ATOM     18  C   UNL     1       0.096  -3.028  -6.334  0.00  0.00    +0.015 C 
ENDBRANCH  12  15
ENDBRANCH   2   9
BRANCH   1  20
ATOM     19  C   UNL     1       0.596   1.202   0.251  0.00  0.00    -0.017 C 
ATOM     20  C   UNL     1       0.338  -0.297   0.088  0.00  0.00    -0.076 C 
ENDBRANCH   1  20
BRANCH   5  21
ATOM     21  S   UNL     1      -2.497   1.450   1.227  0.00  0.00    -0.150 S 
BRANCH  21  22
ATOM     22  C   UNL     1      -3.713   1.305  -0.111  0.00  0.00    +0.166 C 
BRANCH  22  23
ATOM     23  C   UNL     1      -4.417   2.625  -0.294  0.00  0.00    +0.242 C 
ATOM     24  O   UNL     1      -4.127   3.570   0.408  0.00  0.00    -0.273 OA
ATOM     25  N   UNL     1      -5.369   2.756  -1.240  0.00  0.00    -0.206 N 
ATOM     26  H   UNL     1      -5.601   2.000  -1.802  0.00  0.00    +0.177 HD
BRANCH  25  27
ATOM     27  N   UNL     1      -6.023   3.983  -1.410  0.00  0.00    -0.188 NA
ATOM     28  C   UNL     1      -6.948   4.110  -2.329  0.00  0.00    +0.136 C 
BRANCH  28  29
ATOM     29  C   UNL     1      -7.603   5.338  -2.499  0.00  0.00    +0.000 C 
ATOM     30  C   UNL     1      -8.605   5.637  -3.418  0.00  0.00    +0.004 A 
ATOM     31  C   UNL     1      -9.251   4.867  -4.411  0.00  0.00    +0.010 A 
ATOM     32  C   UNL     1     -10.215   5.432  -5.180  0.00  0.00    +0.001 A 
ATOM     33  C   UNL     1     -10.592   6.768  -5.018  0.00  0.00    +0.002 A 
ATOM     34  C   UNL     1     -10.017   7.566  -4.086  0.00  0.00    +0.026 A 
ATOM     35  C   UNL     1      -8.999   7.046  -3.243  0.00  0.00    +0.043 A 
ATOM     36  N   UNL     1      -8.297   7.603  -2.280  0.00  0.00    -0.380 N 
ATOM     37  C   UNL     1      -7.372   6.613  -1.719  0.00  0.00    +0.150 C 
ATOM     38  H   UNL     1      -8.380   8.524  -1.984  0.00  0.00    +0.160 HD
ENDBRANCH  28  29
ENDBRANCH  25  27
ENDBRANCH  22  23
ENDBRANCH  21  22
ENDBRANCH   5  21
TORSDOF 8
