REMARK  Name = ZINC11997275
REMARK  12 active torsions:
REMARK  status: ('A' for Active; 'I' for Inactive)
REMARK    1  A    between atoms: C_1  and  C_2
REMARK    2  A    between atoms: C_4  and  C_35
REMARK    3  A    between atoms: C_5  and  C_9
REMARK    4  A    between atoms: C_7  and  C_8
REMARK    5  A    between atoms: C_9  and  N_70
REMARK    6  A    between atoms: C_13  and  C_31
REMARK    7  A    between atoms: C_14  and  O_21
REMARK    8  A    between atoms: O_21  and  C_22
REMARK    9  A    between atoms: C_22  and  C_23
REMARK   10  A    between atoms: N_28  and  C_30
REMARK   11  A    between atoms: C_31  and  O_33
REMARK   12  A    between atoms: O_33  and  C_34
REMARK                            x       y       z     vdW  Elec       q    Type
REMARK                         _______ _______ _______ _____ _____    ______ ____
ROOT
ATOM      1  C   UNL     1      -0.067   5.452  -0.943  0.00  0.00    -0.072 C 
ATOM      2  C   UNL     1      -0.118   4.144  -0.155  0.00  0.00    +0.036 C 
ATOM      3  C   UNL     1       1.237   3.481  -0.101  0.00  0.00    +0.038 A 
ATOM      4  C   UNL     1       1.248   2.097   0.001  0.00  0.00    +0.120 A 
ATOM      5  C   UNL     1       2.527   1.391   0.096  0.00  0.00    +0.141 A 
ATOM      6  C   UNL     1       3.681   2.148   0.094  0.00  0.00    +0.116 A 
ATOM      7  C   UNL     1       3.579   3.536  -0.012  0.00  0.00    +0.255 A 
ATOM      8  O   UNL     1       4.600   4.205  -0.000  0.00  0.00    -0.268 OA
ATOM      9  N   UNL     1       2.386   4.165  -0.129  0.00  0.00    -0.313 N 
ATOM     10  C   UNL     1       2.434   5.620  -0.310  0.00  0.00    +0.106 C 
ATOM     11  C   UNL     1       1.505   6.331   0.665  0.00  0.00    -0.056 C 
ATOM     12  N   UNL     1       0.221   6.568  -0.020  0.00  0.00    +0.384 N 
ATOM     13  H   UNL     1       0.285   7.440  -0.559  0.00  0.00    -0.081 HD
ENDROOT
BRANCH   4  14
ATOM     14  C   UNL     1      -0.016   1.344   0.009  0.00  0.00    +0.344 C 
ATOM     15  O   UNL     1      -0.395   0.781  -0.999  0.00  0.00    -0.245 OA
BRANCH  14  16
ATOM     16  O   UNL     1      -0.752   1.274   1.137  0.00  0.00    -0.464 OA
ATOM     17  C   UNL     1      -1.987   0.514   1.071  0.00  0.00    +0.280 C 
ENDBRANCH  14  16
ENDBRANCH   4  14
BRANCH  12  18
ATOM     18  C   UNL     1      -0.867   6.697   0.974  0.00  0.00    -0.043 C 
BRANCH  18  23
ATOM     19  C   UNL     1      -0.093  11.574   3.975  0.00  0.00    +0.044 C 
ATOM     20  C   UNL     1      -0.295  10.302   3.193  0.00  0.00    -0.047 A 
ATOM     21  C   UNL     1      -0.852  10.349   1.928  0.00  0.00    +0.007 A 
ATOM     22  C   UNL     1      -1.037   9.183   1.210  0.00  0.00    -0.049 A 
ATOM     23  C   UNL     1      -0.665   7.969   1.757  0.00  0.00    -0.061 A 
ATOM     24  C   UNL     1      -0.113   7.921   3.023  0.00  0.00    +0.005 A 
ATOM     25  C   UNL     1       0.076   9.088   3.739  0.00  0.00    -0.047 A 
ATOM     26  C   UNL     1       0.684   9.037   5.117  0.00  0.00    +0.044 C 
ATOM     27  C   UNL     1      -1.645   9.234  -0.168  0.00  0.00    +0.044 C 
ENDBRANCH  18  23
ENDBRANCH  12  18
BRANCH   5  28
ATOM     28  O   UNL     1       2.576   0.042   0.181  0.00  0.00    -0.491 OA
BRANCH  28  29
ATOM     29  C   UNL     1       3.872  -0.556   0.270  0.00  0.00    +0.234 C 
BRANCH  29  30
ATOM     30  C   UNL     1       3.727  -2.076   0.358  0.00  0.00    +0.053 C 
ATOM     31  C   UNL     1       3.049  -2.491   1.684  0.00  0.00    +0.104 C 
ATOM     32  C   UNL     1       3.756  -3.768   2.079  0.00  0.00    +0.216 C 
ATOM     33  O   UNL     1       3.349  -4.563   2.900  0.00  0.00    -0.276 OA
ATOM     34  N   UNL     1       4.903  -3.894   1.389  0.00  0.00    -0.304 N 
ATOM     35  C   UNL     1       5.108  -2.757   0.484  0.00  0.00    +0.114 C 
ATOM     36  C   UNL     1       5.829  -5.022   1.522  0.00  0.00    +0.132 C 
ENDBRANCH  29  30
ENDBRANCH  28  29
ENDBRANCH   5  28
TORSDOF 7
