REMARK  Name = ZINC33734659
REMARK  5 active torsions:
REMARK  status: ('A' for Active; 'I' for Inactive)
REMARK    1  A    between atoms: C_1  and  C_2
REMARK    2  A    between atoms: C_4  and  C_15
REMARK    3  A    between atoms: C_5  and  C_14
REMARK    4  A    between atoms: N_6  and  C_7
REMARK    5  A    between atoms: C_25  and  C_27
REMARK                            x       y       z     vdW  Elec       q    Type
REMARK                         _______ _______ _______ _____ _____    ______ ____
ROOT
ATOM      1  C   UNL     1      -3.739   4.217   1.443  0.00  0.00    +0.026 C 
ATOM      2  C   UNL     1      -4.909   4.715   0.906  0.00  0.00    +0.081 C 
ATOM      3  C   UNL     1      -5.744   5.710   1.633  0.00  0.00    +0.152 C 
ATOM      4  N   UNL     1      -5.856   5.738   2.935  0.00  0.00    -0.283 NA
ATOM      5  N   UNL     1      -6.405   6.619   0.779  0.00  0.00    -0.152 N 
ATOM      6  C   UNL     1      -6.604   6.235  -0.529  0.00  0.00    +0.181 C 
ATOM      7  N   UNL     1      -6.190   5.138  -1.111  0.00  0.00    -0.152 NA
ATOM      8  C   UNL     1      -5.397   4.292  -0.428  0.00  0.00    +0.273 C 
ATOM      9  O   UNL     1      -5.093   3.205  -0.894  0.00  0.00    -0.268 OA
ATOM     10  S   UNL     1      -7.508   7.611  -1.188  0.00  0.00    -0.037 S 
ATOM     11  C   UNL     1      -7.527   8.611   0.294  0.00  0.00    +0.106 C 
ATOM     12  N   UNL     1      -6.887   7.858   1.143  0.00  0.00    -0.169 NA
ATOM     13  H   UNL     1      -5.316   5.002   3.549  0.00  0.00    +0.188 HD
ENDROOT
BRANCH  11  14
ATOM     14  C   UNL     1      -8.129   9.976   0.507  0.00  0.00    +0.022 C 
ATOM     15  C   UNL     1      -9.634   9.917   0.236  0.00  0.00    +0.017 C 
ATOM     16  C   UNL     1     -10.246  11.303   0.452  0.00  0.00    -0.010 C 
ATOM     17  C   UNL     1      -9.594  12.303  -0.505  0.00  0.00    +0.007 C 
ATOM     18  C   UNL     1      -8.089  12.361  -0.234  0.00  0.00    -0.010 C 
ATOM     19  C   UNL     1      -7.477  10.976  -0.450  0.00  0.00    +0.017 C 
ATOM     20  C   UNL     1      -7.848  12.806   1.210  0.00  0.00    +0.007 C 
ATOM     21  C   UNL     1      -8.500  11.806   2.167  0.00  0.00    -0.010 C 
ATOM     22  C   UNL     1     -10.005  11.747   1.896  0.00  0.00    +0.007 C 
ATOM     23  C   UNL     1      -7.888  10.420   1.951  0.00  0.00    +0.017 C 
ENDBRANCH  11  14
BRANCH   1  27
ATOM     24  C   UNL     1      -1.226   2.272  -2.484  0.00  0.00    +0.064 C 
ATOM     25  C   UNL     1      -1.770   2.542  -1.105  0.00  0.00    +0.022 A 
ATOM     26  C   UNL     1      -2.649   3.509  -0.792  0.00  0.00    +0.031 A 
ATOM     27  C   UNL     1      -2.887   3.402   0.655  0.00  0.00    -0.003 A 
ATOM     28  C   UNL     1      -2.108   2.342   1.090  0.00  0.00    +0.028 A 
ATOM     29  N   UNL     1      -1.452   1.841   0.024  0.00  0.00    -0.317 N 
ATOM     30  C   UNL     1      -2.011   1.839   2.507  0.00  0.00    +0.064 C 
BRANCH  29  31
ATOM     31  C   UNL     1      -0.564   0.757   0.069  0.00  0.00    +0.049 A 
ATOM     32  C   UNL     1       0.628   0.863   0.773  0.00  0.00    +0.026 A 
ATOM     33  C   UNL     1       1.505  -0.203   0.811  0.00  0.00    +0.005 A 
ATOM     34  C   UNL     1       1.197  -1.377   0.150  0.00  0.00    +0.038 A 
ATOM     35  C   UNL     1       0.009  -1.488  -0.553  0.00  0.00    +0.125 A 
ATOM     36  C   UNL     1      -0.872  -0.422  -0.595  0.00  0.00    +0.064 A 
ATOM     37  F   UNL     1      -0.290  -2.636  -1.199  0.00  0.00    -0.205 F 
ENDBRANCH  29  31
ENDBRANCH   1  27
TORSDOF 3
