REMARK  Name = ZINC12658721
REMARK  8 active torsions:
REMARK  status: ('A' for Active; 'I' for Inactive)
REMARK    1  A    between atoms: C_4  and  O_33
REMARK    2  A    between atoms: C_5  and  N_7
REMARK    3  A    between atoms: C_8  and  C_10
REMARK    4  A    between atoms: C_10  and  N_21
REMARK    5  A    between atoms: C_11  and  C_12
REMARK    6  A    between atoms: C_16  and  N_18
REMARK    7  A    between atoms: C_22  and  C_24
REMARK    8  A    between atoms: C_28  and  N_30
REMARK                            x       y       z     vdW  Elec       q    Type
REMARK                         _______ _______ _______ _____ _____    ______ ____
ROOT
ATOM      1  C   UNL     1      -1.246   6.070   0.344  0.00  0.00    +0.097 C 
ATOM      2  C   UNL     1      -0.120   5.321   0.290  0.00  0.00    +0.036 C 
ENDROOT
BRANCH   2   3
ATOM      3  C   UNL     1      -0.160   3.904   0.683  0.00  0.00    -0.021 A 
ATOM      4  C   UNL     1      -1.165   3.439   1.539  0.00  0.00    +0.008 A 
ATOM      5  C   UNL     1      -1.200   2.109   1.897  0.00  0.00    +0.003 A 
ATOM      6  C   UNL     1      -0.236   1.235   1.423  0.00  0.00    +0.033 A 
ATOM      7  C   UNL     1       0.761   1.687   0.577  0.00  0.00    +0.127 A 
ATOM      8  C   UNL     1       0.806   3.014   0.204  0.00  0.00    +0.040 A 
BRANCH   7   9
ATOM      9  N   UNL     1       1.782   0.743   0.070  0.00  0.00    +0.056 N 
ATOM     10  O   UNL     1       1.744  -0.430   0.397  0.00  0.00    -0.126 OA
ATOM     11  O   UNL     1       2.661   1.138  -0.675  0.00  0.00    -0.126 OA
ENDBRANCH   7   9
ENDBRANCH   2   3
BRANCH   1  13
ATOM     12  N   UNL     1       0.011   8.104  -0.150  0.00  0.00    -0.278 N 
ATOM     13  C   UNL     1      -1.175   7.520   0.113  0.00  0.00    +0.263 C 
ATOM     14  O   UNL     1      -2.187   8.194   0.161  0.00  0.00    -0.268 OA
ATOM     15  H   UNL     1       0.801   7.557  -0.284  0.00  0.00    +0.155 HD
BRANCH  12  20
ATOM     16  C   UNL     1      -0.780  11.671   0.271  0.00  0.00    +0.002 A 
ATOM     17  C   UNL     1       0.281  12.258  -0.394  0.00  0.00    +0.004 A 
ATOM     18  C   UNL     1       1.256  11.471  -0.979  0.00  0.00    +0.047 A 
ATOM     19  C   UNL     1       1.171  10.090  -0.902  0.00  0.00    +0.138 A 
ATOM     20  C   UNL     1       0.102   9.498  -0.232  0.00  0.00    +0.076 A 
ATOM     21  C   UNL     1      -0.875  10.294   0.348  0.00  0.00    +0.027 A 
BRANCH  19  22
ATOM     22  O   UNL     1       2.128   9.315  -1.478  0.00  0.00    -0.505 OA
ATOM     23  H   UNL     1       1.941   9.078  -2.397  0.00  0.00    +0.292 HD
ENDBRANCH  19  22
ENDBRANCH  12  20
ENDBRANCH   1  13
BRANCH   1  24
ATOM     24  N   UNL     1      -2.475   5.465   0.617  0.00  0.00    -0.277 N 
ATOM     25  C   UNL     1      -3.207   5.872   1.674  0.00  0.00    +0.248 C 
ATOM     26  O   UNL     1      -2.771   6.725   2.422  0.00  0.00    -0.270 OA
ATOM     27  H   UNL     1      -2.803   4.752   0.047  0.00  0.00    +0.155 HD
BRANCH  25  28
ATOM     28  C   UNL     1      -4.538   5.281   1.922  0.00  0.00    +0.039 A 
ATOM     29  C   UNL     1      -4.996   4.226   1.131  0.00  0.00    +0.013 A 
ATOM     30  C   UNL     1      -6.238   3.676   1.372  0.00  0.00    +0.003 A 
ATOM     31  C   UNL     1      -7.034   4.175   2.388  0.00  0.00    +0.033 A 
ATOM     32  C   UNL     1      -6.589   5.224   3.172  0.00  0.00    +0.127 A 
ATOM     33  C   UNL     1      -5.346   5.780   2.946  0.00  0.00    +0.045 A 
BRANCH  32  34
ATOM     34  N   UNL     1      -7.447   5.752   4.256  0.00  0.00    +0.056 N 
ATOM     35  O   UNL     1      -7.057   6.676   4.947  0.00  0.00    -0.126 OA
ATOM     36  O   UNL     1      -8.544   5.262   4.457  0.00  0.00    -0.126 OA
ENDBRANCH  32  34
ENDBRANCH  25  28
ENDBRANCH   1  24
TORSDOF 8
