REMARK  Name = ZINC41076727
REMARK  5 active torsions:
REMARK  status: ('A' for Active; 'I' for Inactive)
REMARK    1  A    between atoms: C_4  and  C_7
REMARK    2  A    between atoms: C_7  and  S_8
REMARK    3  A    between atoms: S_8  and  C_9
REMARK    4  A    between atoms: C_12  and  C_14
REMARK    5  A    between atoms: C_24  and  C_26
REMARK                            x       y       z     vdW  Elec       q    Type
REMARK                         _______ _______ _______ _____ _____    ______ ____
ROOT
ATOM      1  C   UNL     1       8.407  -3.326  -0.420  0.00  0.00    +0.063 C 
ATOM      2  C   UNL     1       8.071  -3.252  -1.769  0.00  0.00    +0.084 C 
ATOM      3  C   UNL     1       8.922  -3.861  -2.822  0.00  0.00    +0.153 C 
ATOM      4  N   UNL     1       9.615  -4.959  -2.640  0.00  0.00    -0.283 NA
ATOM      5  N   UNL     1       8.913  -3.144  -4.036  0.00  0.00    -0.151 N 
ATOM      6  C   UNL     1       7.825  -2.334  -4.288  0.00  0.00    +0.181 C 
ATOM      7  N   UNL     1       6.827  -2.071  -3.484  0.00  0.00    -0.152 NA
ATOM      8  C   UNL     1       6.843  -2.568  -2.227  0.00  0.00    +0.273 C 
ATOM      9  O   UNL     1       5.876  -2.451  -1.490  0.00  0.00    -0.268 OA
ATOM     10  S   UNL     1       8.158  -1.756  -5.931  0.00  0.00    -0.030 S 
ATOM     11  C   UNL     1       9.753  -2.537  -6.138  0.00  0.00    +0.165 C 
ATOM     12  N   UNL     1       9.893  -3.187  -5.004  0.00  0.00    -0.161 NA
ATOM     13  H   UNL     1      10.156  -5.316  -3.362  0.00  0.00    +0.188 HD
ENDROOT
BRANCH   1  17
ATOM     14  C   UNL     1       6.357  -1.056   1.382  0.00  0.00    +0.162 A 
ATOM     15  C   UNL     1       6.984  -1.685   2.439  0.00  0.00    +0.057 A 
ATOM     16  C   UNL     1       7.848  -2.632   1.899  0.00  0.00    +0.050 A 
ATOM     17  C   UNL     1       7.718  -2.550   0.516  0.00  0.00    +0.130 A 
ATOM     18  O   UNL     1       6.805  -1.592   0.236  0.00  0.00    -0.449 OA
BRANCH  14  19
ATOM     19  S   UNL     1       5.160   0.230   1.516  0.00  0.00    -0.083 S 
BRANCH  19  20
ATOM     20  C   UNL     1       4.729   0.609  -0.205  0.00  0.00    +0.112 C 
BRANCH  20  24
ATOM     21  C   UNL     1       1.811   3.727  -0.291  0.00  0.00    +0.000 A 
ATOM     22  C   UNL     1       3.157   4.040  -0.315  0.00  0.00    +0.000 A 
ATOM     23  C   UNL     1       4.102   3.031  -0.287  0.00  0.00    +0.004 A 
ATOM     24  C   UNL     1       3.700   1.709  -0.234  0.00  0.00    -0.037 A 
ATOM     25  C   UNL     1       2.353   1.397  -0.209  0.00  0.00    +0.004 A 
ATOM     26  C   UNL     1       1.409   2.406  -0.238  0.00  0.00    +0.000 A 
ENDBRANCH  20  24
ENDBRANCH  19  20
ENDBRANCH  14  19
ENDBRANCH   1  17
BRANCH  11  27
ATOM     27  C   UNL     1      10.673  -2.470  -7.285  0.00  0.00    +0.161 A 
ATOM     28  C   UNL     1      10.468  -1.769  -8.435  0.00  0.00    +0.052 A 
ATOM     29  C   UNL     1      11.595  -1.987  -9.249  0.00  0.00    +0.042 A 
ATOM     30  C   UNL     1      12.425  -2.801  -8.565  0.00  0.00    +0.196 A 
ATOM     31  O   UNL     1      11.868  -3.086  -7.378  0.00  0.00    -0.461 OA
ENDBRANCH  11  27
TORSDOF 5
