REMARK  Name = ZINC16040124
REMARK  9 active torsions:
REMARK  status: ('A' for Active; 'I' for Inactive)
REMARK    1  A    between atoms: C_1  and  O_2
REMARK    2  A    between atoms: O_2  and  C_3
REMARK    3  A    between atoms: C_7  and  C_11
REMARK    4  A    between atoms: C_8  and  O_9
REMARK    5  A    between atoms: O_9  and  C_10
REMARK    6  A    between atoms: C_12  and  C_13
REMARK    7  A    between atoms: C_13  and  O_15
REMARK    8  A    between atoms: O_15  and  C_16
REMARK    9  A    between atoms: C_16  and  C_17
REMARK                            x       y       z     vdW  Elec       q    Type
REMARK                         _______ _______ _______ _____ _____    ______ ____
ROOT
ATOM      1  C   UNL     1       3.416   1.426  -1.271  0.00  0.00    +0.332 C 
ATOM      2  O   UNL     1       3.928   2.197  -0.482  0.00  0.00    -0.246 OA
ENDROOT
BRANCH   1   4
ATOM      3  C   UNL     1       5.464   1.281  -2.510  0.00  0.00    +0.018 C 
ATOM      4  C   UNL     1       4.173   0.914  -2.355  0.00  0.00    +0.092 C 
BRANCH   3   9
ATOM      5  C   UNL     1       8.322   0.619  -4.863  0.00  0.00    +0.162 A 
ATOM      6  C   UNL     1       7.728  -0.258  -5.756  0.00  0.00    +0.049 A 
ATOM      7  C   UNL     1       6.404  -0.632  -5.594  0.00  0.00    +0.004 A 
ATOM      8  C   UNL     1       5.663  -0.137  -4.543  0.00  0.00    +0.012 A 
ATOM      9  C   UNL     1       6.249   0.750  -3.632  0.00  0.00    +0.021 A 
ATOM     10  C   UNL     1       7.588   1.134  -3.801  0.00  0.00    +0.169 A 
BRANCH   5  12
ATOM     11  C   UNL     1      10.314   0.420  -6.147  0.00  0.00    +0.277 C 
ATOM     12  O   UNL     1       9.622   0.981  -5.030  0.00  0.00    -0.491 OA
ENDBRANCH   5  12
BRANCH  10  13
ATOM     13  O   UNL     1       8.165   1.998  -2.927  0.00  0.00    -0.491 OA
ATOM     14  C   UNL     1       8.813   1.431  -1.786  0.00  0.00    +0.277 C 
ENDBRANCH  10  13
ENDBRANCH   3   9
ENDBRANCH   1   4
BRANCH   1  15
ATOM     15  O   UNL     1       2.126   1.059  -1.116  0.00  0.00    -0.461 OA
BRANCH  15  16
ATOM     16  C   UNL     1       1.423   1.614  -0.003  0.00  0.00    +0.234 C 
BRANCH  16  17
ATOM     17  C   UNL     1      -0.013   1.086   0.008  0.00  0.00    +0.013 C 
ATOM     18  C   UNL     1      -0.749   1.591  -1.234  0.00  0.00    +0.003 C 
ATOM     19  C   UNL     1      -2.196   1.092  -1.185  0.00  0.00    -0.018 C 
ATOM     20  C   UNL     1      -2.852   1.609   0.095  0.00  0.00    -0.078 C 
ATOM     21  C   UNL     1      -0.727   1.578   1.271  0.00  0.00    -0.062 C 
ATOM     22  C   UNL     1       0.014   1.014   2.487  0.00  0.00    -0.015 C 
ATOM     23  C   UNL     1      -0.693   1.445   3.773  0.00  0.00    -0.003 C 
ATOM     24  C   UNL     1      -2.142   0.948   3.726  0.00  0.00    -0.019 C 
ATOM     25  C   UNL     1      -2.826   1.539   2.494  0.00  0.00    -0.078 C 
ATOM     26  N   UNL     1      -2.131   1.094   1.273  0.00  0.00    +0.382 N 
ATOM     27  H   UNL     1      -2.127   0.068   1.244  0.00  0.00    -0.081 HD
ENDBRANCH  16  17
ENDBRANCH  15  16
ENDBRANCH   1  15
TORSDOF 7
