REMARK  Name = ZINC44879502
REMARK  9 active torsions:
REMARK  status: ('A' for Active; 'I' for Inactive)
REMARK    1  A    between atoms: C_1  and  C_2
REMARK    2  A    between atoms: N_7  and  C_9
REMARK    3  A    between atoms: C_9  and  C_10
REMARK    4  A    between atoms: C_13  and  C_16
REMARK    5  A    between atoms: C_16  and  N_17
REMARK    6  A    between atoms: C_18  and  C_20
REMARK    7  A    between atoms: N_23  and  S_26
REMARK    8  A    between atoms: S_26  and  C_29
REMARK    9  A    between atoms: C_29  and  C_30
REMARK                            x       y       z     vdW  Elec       q    Type
REMARK                         _______ _______ _______ _____ _____    ______ ____
ROOT
ATOM      1  N   UNL     1       0.361  -8.720   1.492  0.00  0.00    -0.311 N 
ATOM      2  C   UNL     1       0.161 -10.043   1.328  0.00  0.00    +0.216 C 
ATOM      3  O   UNL     1       0.559 -10.825   2.165  0.00  0.00    -0.276 OA
ATOM      4  H   UNL     1       0.043  -8.094   0.823  0.00  0.00    +0.149 HD
ENDROOT
BRANCH   2   5
ATOM      5  C   UNL     1      -0.557 -10.550   0.104  0.00  0.00    +0.077 C 
ATOM      6  C   UNL     1      -1.966  -9.953   0.055  0.00  0.00    +0.030 C 
ATOM      7  C   UNL     1      -2.680 -10.443  -1.208  0.00  0.00    +0.110 C 
ATOM      8  N   UNL     1      -2.647 -11.912  -1.230  0.00  0.00    -0.181 NA
ATOM      9  C   UNL     1      -1.350 -12.591  -1.098  0.00  0.00    +0.110 C 
ATOM     10  C   UNL     1      -0.650 -12.076   0.164  0.00  0.00    +0.030 C 
BRANCH   8  11
ATOM     11  S   UNL     1      -4.043 -12.785  -1.400  0.00  0.00    +0.036 S 
ATOM     12  O   UNL     1      -3.766 -14.036  -0.785  0.00  0.00    -0.158 OA
ATOM     13  O   UNL     1      -5.065 -11.938  -0.891  0.00  0.00    -0.158 OA
BRANCH  11  14
ATOM     14  C   UNL     1      -4.244 -13.000  -3.190  0.00  0.00    +0.220 C 
BRANCH  14  15
ATOM     15  C   UNL     1      -5.497 -13.790  -3.464  0.00  0.00    -0.025 A 
ATOM     16  C   UNL     1      -5.443 -15.170  -3.532  0.00  0.00    +0.008 A 
ATOM     17  C   UNL     1      -6.592 -15.896  -3.783  0.00  0.00    +0.038 A 
ATOM     18  C   UNL     1      -7.798 -15.240  -3.966  0.00  0.00    +0.123 A 
ATOM     19  C   UNL     1      -7.851 -13.858  -3.897  0.00  0.00    +0.038 A 
ATOM     20  C   UNL     1      -6.702 -13.135  -3.641  0.00  0.00    +0.008 A 
ATOM     21  F   UNL     1      -8.922 -15.949  -4.211  0.00  0.00    -0.205 F 
ENDBRANCH  14  15
ENDBRANCH  11  14
ENDBRANCH   8  11
ENDBRANCH   2   5
BRANCH   1  22
ATOM     22  C   UNL     1       1.060  -8.227   2.682  0.00  0.00    +0.139 C 
BRANCH  22  26
ATOM     23  C   UNL     1       1.321  -3.966   2.518  0.00  0.00    -0.064 A 
ATOM     24  C   UNL     1       0.233  -4.569   3.122  0.00  0.00    +0.002 A 
ATOM     25  C   UNL     1       0.149  -5.948   3.174  0.00  0.00    +0.005 A 
ATOM     26  C   UNL     1       1.151  -6.724   2.623  0.00  0.00    -0.030 A 
ATOM     27  C   UNL     1       2.239  -6.121   2.019  0.00  0.00    +0.005 A 
ATOM     28  C   UNL     1       2.321  -4.742   1.963  0.00  0.00    +0.002 A 
BRANCH  23  29
ATOM     29  C   UNL     1       1.413  -2.463   2.461  0.00  0.00    -0.043 C 
BRANCH  29  35
ATOM     30  C   UNL     1      -0.019   1.526   0.010  0.00  0.00    +0.005 C 
ATOM     31  C   UNL     1       0.002  -0.004   0.002  0.00  0.00    -0.031 C 
ATOM     32  C   UNL     1       0.721  -0.499  -1.257  0.00  0.00    -0.001 C 
ATOM     33  C   UNL     1       0.805  -2.027  -1.217  0.00  0.00    -0.018 C 
ATOM     34  C   UNL     1       1.518  -2.460   0.066  0.00  0.00    -0.078 C 
ATOM     35  N   UNL     1       0.768  -1.979   1.233  0.00  0.00    +0.383 N 
ATOM     36  C   UNL     1       0.744  -0.512   1.240  0.00  0.00    -0.075 C 
ATOM     37  H   UNL     1      -0.177  -2.330   1.192  0.00  0.00    -0.081 HD
ENDBRANCH  29  35
ENDBRANCH  23  29
ENDBRANCH  22  26
ENDBRANCH   1  22
TORSDOF 8
