REMARK  Name = ZINC08843225
REMARK  8 active torsions:
REMARK  status: ('A' for Active; 'I' for Inactive)
REMARK    1  A    between atoms: C_1  and  C_2
REMARK    2  A    between atoms: C_2  and  O_3
REMARK    3  A    between atoms: O_3  and  C_4
REMARK    4  A    between atoms: C_9  and  N_10
REMARK    5  A    between atoms: C_11  and  C_13
REMARK    6  A    between atoms: C_17  and  N_18
REMARK    7  A    between atoms: C_19  and  C_21
REMARK    8  A    between atoms: C_24  and  C_27
REMARK                            x       y       z     vdW  Elec       q    Type
REMARK                         _______ _______ _______ _____ _____    ______ ____
ROOT
ATOM      1  C   UNL     1       3.015  -1.651   1.749  0.00  0.00    +0.069 A 
ATOM      2  C   UNL     1       2.205  -0.691   1.012  0.00  0.00    -0.023 A 
ATOM      3  C   UNL     1       2.882   0.050   0.108  0.00  0.00    -0.004 A 
ATOM      4  S   UNL     1       4.562  -0.499   0.235  0.00  0.00    -0.077 S 
ATOM      5  C   UNL     1       4.371  -1.703   1.465  0.00  0.00    +0.085 A 
ATOM      6  C   UNL     1       2.334   1.093  -0.815  0.00  0.00    +0.043 C 
ATOM      7  C   UNL     1       1.452   2.062  -0.016  0.00  0.00    +0.005 C 
ATOM      8  C   UNL     1       0.024   1.525  -0.013  0.00  0.00    +0.001 C 
ATOM      9  C   UNL     1       0.038  -0.002  -0.018  0.00  0.00    +0.005 C 
ATOM     10  C   UNL     1       0.708  -0.533   1.245  0.00  0.00    +0.037 C 
ENDROOT
BRANCH   1  12
ATOM     11  N   UNL     1       2.346  -2.132   4.043  0.00  0.00    -0.278 N 
ATOM     12  C   UNL     1       2.418  -2.531   2.758  0.00  0.00    +0.251 C 
ATOM     13  O   UNL     1       1.986  -3.622   2.434  0.00  0.00    -0.270 OA
ATOM     14  H   UNL     1       2.748  -1.291   4.313  0.00  0.00    +0.155 HD
BRANCH  11  20
ATOM     15  C   UNL     1       0.979  -2.340   6.030  0.00  0.00    +0.142 A 
ATOM     16  C   UNL     1       0.334  -3.136   6.962  0.00  0.00    +0.047 A 
ATOM     17  C   UNL     1       0.398  -4.513   6.859  0.00  0.00    +0.004 A 
ATOM     18  C   UNL     1       1.105  -5.100   5.826  0.00  0.00    +0.002 A 
ATOM     19  C   UNL     1       1.748  -4.314   4.889  0.00  0.00    +0.027 A 
ATOM     20  C   UNL     1       1.692  -2.931   4.989  0.00  0.00    +0.076 A 
BRANCH  15  21
ATOM     21  O   UNL     1       0.916  -0.985   6.130  0.00  0.00    -0.490 OA
BRANCH  21  23
ATOM     22  C   UNL     1       0.210   1.079   7.169  0.00  0.00    +0.048 C 
ATOM     23  C   UNL     1       0.167  -0.449   7.222  0.00  0.00    +0.226 C 
ENDBRANCH  21  23
ENDBRANCH  15  21
ENDBRANCH  11  20
ENDBRANCH   1  12
BRANCH   5  24
ATOM     24  N   UNL     1       5.338  -2.521   2.027  0.00  0.00    -0.275 N 
ATOM     25  C   UNL     1       6.619  -2.429   1.619  0.00  0.00    +0.249 C 
ATOM     26  O   UNL     1       6.926  -1.628   0.757  0.00  0.00    -0.270 OA
ATOM     27  H   UNL     1       5.093  -3.159   2.715  0.00  0.00    +0.156 HD
BRANCH  25  28
ATOM     28  C   UNL     1       7.651  -3.300   2.219  0.00  0.00    +0.037 A 
ATOM     29  C   UNL     1       7.303  -4.216   3.213  0.00  0.00    +0.013 A 
ATOM     30  C   UNL     1       8.269  -5.031   3.765  0.00  0.00    +0.004 A 
ATOM     31  C   UNL     1       9.584  -4.934   3.344  0.00  0.00    -0.050 A 
ATOM     32  C   UNL     1       9.937  -4.024   2.362  0.00  0.00    +0.004 A 
ATOM     33  C   UNL     1       8.979  -3.207   1.798  0.00  0.00    +0.013 A 
ATOM     34  C   UNL     1      10.636  -5.822   3.956  0.00  0.00    +0.044 C 
ENDBRANCH  25  28
ENDBRANCH   5  24
TORSDOF 6
