REMARK  Name = ZINC63514208
REMARK  8 active torsions:
REMARK  status: ('A' for Active; 'I' for Inactive)
REMARK    1  A    between atoms: C_1  and  C_2
REMARK    2  A    between atoms: C_4  and  C_17
REMARK    3  A    between atoms: C_7  and  O_12
REMARK    4  A    between atoms: O_12  and  C_13
REMARK    5  A    between atoms: C_17  and  C_18
REMARK    6  A    between atoms: C_18  and  N_19
REMARK    7  A    between atoms: C_20  and  C_22
REMARK    8  A    between atoms: C_26  and  N_28
REMARK                            x       y       z     vdW  Elec       q    Type
REMARK                         _______ _______ _______ _____ _____    ______ ____
ROOT
ATOM      1  C   UNL     1      -0.019   1.526   0.010  0.00  0.00    +0.035 C 
ATOM      2  C   UNL     1       0.002  -0.004   0.002  0.00  0.00    +0.103 C 
ATOM      3  C   UNL     1      -1.410  -0.545   0.038  0.00  0.00    -0.037 C 
ATOM      4  C   UNL     1      -1.503  -1.275   1.172  0.00  0.00    +0.003 A 
ATOM      5  C   UNL     1      -2.598  -2.045   1.773  0.00  0.00    +0.056 A 
ATOM      6  C   UNL     1      -2.393  -2.691   2.946  0.00  0.00    +0.131 A 
ATOM      7  C   UNL     1      -1.160  -2.651   3.620  0.00  0.00    +0.048 A 
ATOM      8  C   UNL     1      -0.095  -1.970   3.147  0.00  0.00    +0.029 A 
ATOM      9  C   UNL     1      -0.204  -1.234   1.883  0.00  0.00    +0.043 A 
ATOM     10  N   UNL     1       0.658  -0.508   1.214  0.00  0.00    -0.378 N 
ATOM     11  H   UNL     1       1.576  -0.332   1.476  0.00  0.00    +0.160 HD
ENDROOT
BRANCH   6  12
ATOM     12  O   UNL     1      -3.416  -3.401   3.491  0.00  0.00    -0.406 OA
BRANCH  12  13
ATOM     13  C   UNL     1      -3.157  -4.065   4.729  0.00  0.00    +0.575 C 
ATOM     14  F   UNL     1      -2.796  -3.122   5.698  0.00  0.00    -0.133 F 
ATOM     15  F   UNL     1      -4.309  -4.743   5.145  0.00  0.00    -0.133 F 
ATOM     16  F   UNL     1      -2.114  -4.981   4.558  0.00  0.00    -0.133 F 
ENDBRANCH  12  13
ENDBRANCH   6  12
BRANCH   3  17
ATOM     17  C   UNL     1      -2.494  -0.315  -0.984  0.00  0.00    +0.052 C 
BRANCH  17  18
ATOM     18  C   UNL     1      -3.765  -1.048  -0.551  0.00  0.00    +0.109 C 
BRANCH  18  19
ATOM     19  N   UNL     1      -4.819  -0.825  -1.544  0.00  0.00    -0.311 N 
ATOM     20  C   UNL     1      -6.036  -1.378  -1.371  0.00  0.00    +0.244 C 
ATOM     21  O   UNL     1      -6.259  -2.062  -0.392  0.00  0.00    -0.270 OA
ATOM     22  H   UNL     1      -4.641  -0.279  -2.326  0.00  0.00    +0.149 HD
BRANCH  20  23
ATOM     23  C   UNL     1      -7.099  -1.153  -2.374  0.00  0.00    +0.039 A 
ATOM     24  C   UNL     1      -6.845  -0.373  -3.503  0.00  0.00    +0.013 A 
ATOM     25  C   UNL     1      -7.841  -0.168  -4.434  0.00  0.00    +0.003 A 
ATOM     26  C   UNL     1      -9.091  -0.732  -4.251  0.00  0.00    +0.033 A 
ATOM     27  C   UNL     1      -9.350  -1.506  -3.134  0.00  0.00    +0.127 A 
ATOM     28  C   UNL     1      -8.361  -1.725  -2.198  0.00  0.00    +0.045 A 
BRANCH  27  29
ATOM     29  N   UNL     1     -10.690  -2.106  -2.946  0.00  0.00    +0.056 N 
ATOM     30  O   UNL     1     -11.557  -1.919  -3.768  0.00  0.00    -0.126 OA
ATOM     31  O   UNL     1     -10.918  -2.782  -1.970  0.00  0.00    -0.126 OA
ENDBRANCH  27  29
ENDBRANCH  20  23
ENDBRANCH  18  19
ENDBRANCH  17  18
ENDBRANCH   3  17
TORSDOF 7
