REMARK  Name = ZINC18266398
REMARK  8 active torsions:
REMARK  status: ('A' for Active; 'I' for Inactive)
REMARK    1  A    between atoms: C_1  and  C_2
REMARK    2  A    between atoms: C_5  and  S_8
REMARK    3  A    between atoms: S_8  and  C_9
REMARK    4  A    between atoms: C_9  and  C_10
REMARK    5  A    between atoms: C_12  and  O_35
REMARK    6  A    between atoms: C_14  and  S_16
REMARK    7  A    between atoms: S_16  and  C_17
REMARK    8  A    between atoms: C_17  and  C_18
REMARK                            x       y       z     vdW  Elec       q    Type
REMARK                         _______ _______ _______ _____ _____    ______ ____
ROOT
ATOM      1  C   UNL     1       0.027   1.058  -0.028  0.00  0.00    +0.153 C 
ENDROOT
BRANCH   1   2
ATOM      2  C   UNL     1      -0.723   1.572  -1.230  0.00  0.00    +0.146 A 
ATOM      3  N   UNL     1      -1.705   0.856  -1.749  0.00  0.00    -0.199 NA
ATOM      4  C   UNL     1      -2.373   1.309  -2.808  0.00  0.00    +0.217 A 
ATOM      5  N   UNL     1      -2.044   2.478  -3.348  0.00  0.00    -0.181 NA
ATOM      6  C   UNL     1      -1.053   3.192  -2.827  0.00  0.00    +0.227 A 
ATOM      7  N   UNL     1      -0.393   2.734  -1.765  0.00  0.00    -0.198 NA
ATOM      8  N   UNL     1      -0.707   4.407  -3.385  0.00  0.00    -0.269 N 
ATOM      9  C   UNL     1       0.290   5.270  -2.738  0.00  0.00    +0.114 C 
ATOM     10  C   UNL     1      -0.252   6.705  -2.753  0.00  0.00    +0.024 C 
ATOM     11  C   UNL     1      -0.397   7.163  -4.204  0.00  0.00    +0.038 C 
ATOM     12  C   UNL     1      -1.176   6.151  -5.001  0.00  0.00    -0.026 A 
ATOM     13  C   UNL     1      -1.297   4.834  -4.582  0.00  0.00    +0.040 A 
ATOM     14  C   UNL     1      -2.015   3.921  -5.346  0.00  0.00    +0.024 A 
ATOM     15  C   UNL     1      -2.607   4.324  -6.527  0.00  0.00    +0.002 A 
ATOM     16  C   UNL     1      -2.485   5.635  -6.947  0.00  0.00    +0.000 A 
ATOM     17  C   UNL     1      -1.779   6.549  -6.183  0.00  0.00    +0.005 A 
ATOM     18  N   UNL     1      -3.402   0.564  -3.346  0.00  0.00    -0.327 N 
ATOM     19  H   UNL     1      -3.887   0.893  -4.119  0.00  0.00    +0.145 HD
ATOM     20  H   UNL     1      -3.642  -0.289  -2.950  0.00  0.00    +0.145 HD
ENDBRANCH   1   2
BRANCH   1  21
ATOM     21  S   UNL     1      -0.781   1.641   1.483  0.00  0.00    -0.078 S 
BRANCH  21  26
ATOM     22  C   UNL     1       0.781   0.579   4.916  0.00  0.00    +0.059 A 
ATOM     23  C   UNL     1       1.869  -0.189   4.544  0.00  0.00    +0.091 A 
ATOM     24  C   UNL     1       2.117  -0.377   3.185  0.00  0.00    +0.216 A 
ATOM     25  N   UNL     1       1.302   0.180   2.297  0.00  0.00    -0.187 NA
ATOM     26  C   UNL     1       0.272   0.914   2.693  0.00  0.00    +0.192 A 
ATOM     27  N   UNL     1       0.012   1.109   3.978  0.00  0.00    -0.226 NA
BRANCH  24  28
ATOM     28  O   UNL     1       3.173  -1.122   2.776  0.00  0.00    -0.492 OA
ATOM     29  H   UNL     1       2.972  -2.061   2.664  0.00  0.00    +0.294 HD
ENDBRANCH  24  28
BRANCH  22  30
ATOM     30  C   UNL     1       0.474   0.808   6.374  0.00  0.00    +0.130 C 
BRANCH  30  31
ATOM     31  S   UNL     1      -0.632  -0.500   6.972  0.00  0.00    -0.119 S 
BRANCH  31  36
ATOM     32  C   UNL     1      -1.525   0.887  12.778  0.00  0.00    +0.044 C 
ATOM     33  C   UNL     1      -1.302   0.541  11.329  0.00  0.00    -0.050 A 
ATOM     34  C   UNL     1      -1.909  -0.577  10.785  0.00  0.00    +0.004 A 
ATOM     35  C   UNL     1      -1.707  -0.897   9.457  0.00  0.00    +0.015 A 
ATOM     36  C   UNL     1      -0.893  -0.095   8.667  0.00  0.00    +0.008 A 
ATOM     37  C   UNL     1      -0.280   1.024   9.218  0.00  0.00    +0.015 A 
ATOM     38  C   UNL     1      -0.492   1.342  10.545  0.00  0.00    +0.004 A 
ENDBRANCH  31  36
ENDBRANCH  30  31
ENDBRANCH  22  30
ENDBRANCH  21  26
ENDBRANCH   1  21
TORSDOF 7
