REMARK  Name = ZINC19770180
REMARK  13 active torsions:
REMARK  status: ('A' for Active; 'I' for Inactive)
REMARK    1  A    between atoms: C_1  and  C_2
REMARK    2  A    between atoms: C_3  and  C_34
REMARK    3  A    between atoms: C_4  and  C_22
REMARK    4  A    between atoms: C_10  and  C_15
REMARK    5  A    between atoms: C_25  and  O_30
REMARK    6  A    between atoms: C_26  and  O_28
REMARK    7  A    between atoms: O_28  and  C_29
REMARK    8  A    between atoms: O_30  and  C_31
REMARK    9  A    between atoms: C_31  and  C_33
REMARK   10  A    between atoms: C_34  and  O_36
REMARK   11  A    between atoms: O_36  and  C_37
REMARK   12  A    between atoms: C_37  and  C_38
REMARK   13  A    between atoms: C_37  and  C_39
REMARK                            x       y       z     vdW  Elec       q    Type
REMARK                         _______ _______ _______ _____ _____    ______ ____
ROOT
ATOM      1  C   UNL     1      -0.077  10.732  -3.658  0.00  0.00    +0.061 C 
ATOM      2  C   UNL     1      -0.511  10.085  -2.368  0.00  0.00    +0.016 C 
ATOM      3  C   UNL     1      -0.562  10.814  -1.240  0.00  0.00    +0.065 C 
ATOM      4  C   UNL     1      -0.997  10.205   0.061  0.00  0.00    +0.092 C 
ATOM      5  C   UNL     1      -0.924   8.700   0.005  0.00  0.00    +0.024 C 
ATOM      6  C   UNL     1      -0.862   8.056  -1.180  0.00  0.00    +0.016 C 
ATOM      7  N   UNL     1      -0.851   8.761  -2.353  0.00  0.00    -0.321 N 
ATOM      8  C   UNL     1      -0.801   6.550  -1.244  0.00  0.00    +0.059 C 
ATOM      9  C   UNL     1      -0.078   6.013  -0.006  0.00  0.00    +0.032 C 
ATOM     10  C   UNL     1      -0.830   6.488   1.241  0.00  0.00    +0.088 C 
ATOM     11  C   UNL     1      -0.919   7.989   1.218  0.00  0.00    +0.162 C 
ATOM     12  O   UNL     1      -0.986   8.599   2.267  0.00  0.00    -0.292 OA
ATOM     13  H   UNL     1      -1.119   8.252  -3.291  0.00  0.00    +0.152 HD
ENDROOT
BRANCH   9  14
ATOM     14  C   UNL     1      -0.060   4.507  -0.045  0.00  0.00    -0.043 A 
ATOM     15  C   UNL     1       1.145   3.830  -0.058  0.00  0.00    +0.005 A 
ATOM     16  C   UNL     1       1.162   2.448  -0.094  0.00  0.00    +0.020 A 
ATOM     17  C   UNL     1      -0.028   1.743  -0.115  0.00  0.00    +0.041 A 
ATOM     18  C   UNL     1      -1.234   2.421  -0.107  0.00  0.00    +0.020 A 
ATOM     19  C   UNL     1      -1.250   3.802  -0.066  0.00  0.00    +0.005 A 
ATOM     20 CL   UNL     1      -0.008   0.007  -0.160  0.00  0.00    -0.084 Cl
ENDBRANCH   9  14
BRANCH   4  21
ATOM     21  C   UNL     1      -2.416  10.619   0.352  0.00  0.00    -0.032 A 
ATOM     22  C   UNL     1      -3.425  10.293  -0.534  0.00  0.00    +0.008 A 
ATOM     23  C   UNL     1      -4.730  10.665  -0.270  0.00  0.00    +0.050 A 
ATOM     24  C   UNL     1      -5.027  11.378   0.881  0.00  0.00    +0.173 A 
ATOM     25  C   UNL     1      -4.010  11.712   1.771  0.00  0.00    +0.163 A 
ATOM     26  C   UNL     1      -2.705  11.330   1.502  0.00  0.00    +0.054 A 
BRANCH  25  27
ATOM     27  O   UNL     1      -4.296  12.411   2.901  0.00  0.00    -0.491 OA
ATOM     28  C   UNL     1      -3.202  12.719   3.768  0.00  0.00    +0.277 C 
ENDBRANCH  25  27
BRANCH  24  29
ATOM     29  O   UNL     1      -6.309  11.751   1.141  0.00  0.00    -0.422 OA
BRANCH  29  30
ATOM     30  C   UNL     1      -6.651  13.011   0.832  0.00  0.00    +0.309 C 
ATOM     31  O   UNL     1      -5.865  13.727   0.258  0.00  0.00    -0.251 OA
ATOM     32  C   UNL     1      -8.015  13.534   1.202  0.00  0.00    +0.136 C 
ENDBRANCH  29  30
ENDBRANCH  24  29
ENDBRANCH   4  21
BRANCH   3  33
ATOM     33  C   UNL     1      -0.199  12.180  -1.279  0.00  0.00    +0.338 C 
ATOM     34  O   UNL     1       0.155  12.686  -2.328  0.00  0.00    -0.245 OA
BRANCH  33  35
ATOM     35  O   UNL     1      -0.246  12.924  -0.154  0.00  0.00    -0.459 OA
BRANCH  35  36
ATOM     36  C   UNL     1       0.135  14.297  -0.267  0.00  0.00    +0.171 C 
ATOM     37  C   UNL     1      -1.097  15.141  -0.599  0.00  0.00    +0.052 C 
ATOM     38  C   UNL     1       0.736  14.770   1.057  0.00  0.00    +0.052 C 
ENDBRANCH  35  36
ENDBRANCH  33  35
ENDBRANCH   3  33
TORSDOF 8
