REMARK  Name = ZINC59404469
REMARK  11 active torsions:
REMARK  status: ('A' for Active; 'I' for Inactive)
REMARK    1  A    between atoms: C_1  and  N_2
REMARK    2  A    between atoms: N_2  and  C_3
REMARK    3  A    between atoms: N_2  and  C_27
REMARK    4  A    between atoms: C_3  and  C_4
REMARK    5  A    between atoms: C_4  and  C_5
REMARK    6  A    between atoms: C_5  and  N_6
REMARK    7  A    between atoms: C_7  and  C_9
REMARK    8  A    between atoms: C_9  and  N_10
REMARK    9  A    between atoms: C_13  and  C_16
REMARK   10  A    between atoms: N_18  and  C_19
REMARK   11  A    between atoms: C_24  and  O_25
REMARK                            x       y       z     vdW  Elec       q    Type
REMARK                         _______ _______ _______ _____ _____    ______ ____
ROOT
ATOM      1  N   UNL     1      -4.375  -3.712   6.366  0.00  0.00    +0.385 N 
ATOM      2  C   UNL     1      -3.765  -5.028   6.140  0.00  0.00    -0.077 C 
ATOM      3  C   UNL     1      -3.667  -5.784   7.467  0.00  0.00    -0.006 C 
ATOM      4  C   UNL     1      -5.071  -5.963   8.050  0.00  0.00    +0.072 C 
ATOM      5  C   UNL     1      -5.726  -4.589   8.212  0.00  0.00    -0.006 C 
ATOM      6  C   UNL     1      -5.748  -3.877   6.858  0.00  0.00    -0.077 C 
ATOM      7  H   UNL     1      -3.832  -3.205   7.049  0.00  0.00    -0.081 HD
ENDROOT
BRANCH   4   8
ATOM      8  C   UNL     1      -4.976  -6.638   9.395  0.00  0.00    +0.220 C 
ATOM      9  O   UNL     1      -3.892  -6.945   9.843  0.00  0.00    -0.275 OA
ATOM     10  N   UNL     1      -6.095  -6.900  10.098  0.00  0.00    -0.282 N 
ATOM     11  H   UNL     1      -6.956  -6.597   9.770  0.00  0.00    +0.155 HD
BRANCH  10  12
ATOM     12  C   UNL     1      -6.015  -7.609  11.304  0.00  0.00    +0.077 A 
ATOM     13  C   UNL     1      -4.919  -7.442  12.137  0.00  0.00    +0.047 A 
ATOM     14  C   UNL     1      -4.842  -8.143  13.327  0.00  0.00    +0.043 A 
ATOM     15  C   UNL     1      -5.857  -9.012  13.688  0.00  0.00    +0.023 A 
ATOM     16  C   UNL     1      -6.952  -9.184  12.861  0.00  0.00    +0.049 A 
ATOM     17  C   UNL     1      -7.038  -8.480  11.671  0.00  0.00    +0.138 A 
ATOM     18 CL   UNL     1      -3.470  -7.933  14.369  0.00  0.00    -0.083 Cl
BRANCH  17  19
ATOM     19  O   UNL     1      -8.118  -8.643  10.860  0.00  0.00    -0.505 OA
ATOM     20  H   UNL     1      -8.017  -9.351  10.209  0.00  0.00    +0.292 HD
ENDBRANCH  17  19
ENDBRANCH  10  12
ENDBRANCH   4   8
BRANCH   1  21
ATOM     21  C   UNL     1      -4.395  -2.960   5.104  0.00  0.00    +0.019 C 
BRANCH  21  23
ATOM     22  N   UNL     1      -2.754  -2.002   3.521  0.00  0.00    -0.317 N 
ATOM     23  C   UNL     1      -2.982  -2.683   4.661  0.00  0.00    +0.196 C 
ATOM     24  O   UNL     1      -2.049  -3.074   5.330  0.00  0.00    -0.278 OA
ATOM     25  H   UNL     1      -3.500  -1.690   2.985  0.00  0.00    +0.149 HD
BRANCH  22  26
ATOM     26  C   UNL     1      -1.380  -1.732   3.090  0.00  0.00    +0.105 C 
BRANCH  26  27
ATOM     27  C   UNL     1      -1.401  -0.950   1.776  0.00  0.00    +0.037 C 
BRANCH  27  28
ATOM     28  C   UNL     1       0.034  -0.668   1.326  0.00  0.00    +0.106 C 
BRANCH  28  30
ATOM     29  C   UNL     1      -0.007   1.546   0.088  0.00  0.00    +0.129 C 
ATOM     30  N   UNL     1       0.013   0.081   0.068  0.00  0.00    -0.333 N 
BRANCH  30  31
ATOM     31  C   UNL     1       0.013  -0.600  -1.152  0.00  0.00    +0.029 A 
ATOM     32  C   UNL     1       0.026  -1.989  -1.173  0.00  0.00    +0.023 A 
ATOM     33  C   UNL     1       0.025  -2.660  -2.380  0.00  0.00    +0.002 A 
ATOM     34  C   UNL     1       0.011  -1.951  -3.567  0.00  0.00    +0.000 A 
ATOM     35  C   UNL     1      -0.002  -0.568  -3.550  0.00  0.00    +0.002 A 
ATOM     36  C   UNL     1      -0.007   0.109  -2.346  0.00  0.00    +0.023 A 
ENDBRANCH  30  31
ENDBRANCH  28  30
ENDBRANCH  27  28
ENDBRANCH  26  27
ENDBRANCH  22  26
ENDBRANCH  21  23
ENDBRANCH   1  21
TORSDOF 10
