REMARK  Name = ZINC38741359
REMARK  5 active torsions:
REMARK  status: ('A' for Active; 'I' for Inactive)
REMARK    1  A    between atoms: C_1  and  N_2
REMARK    2  A    between atoms: C_4  and  S_12
REMARK    3  A    between atoms: N_8  and  C_11
REMARK    4  A    between atoms: S_12  and  N_15
REMARK    5  A    between atoms: C_18  and  C_21
REMARK                            x       y       z     vdW  Elec       q    Type
REMARK                         _______ _______ _______ _____ _____    ______ ____
ROOT
ATOM      1  N   UNL     1      -1.062  -2.994  -3.414  0.00  0.00    -0.176 NA
ATOM      2  C   UNL     1       0.196  -3.692  -3.733  0.00  0.00    +0.114 C 
ATOM      3  C   UNL     1       0.189  -5.037  -3.004  0.00  0.00    +0.052 C 
ATOM      4  C   UNL     1      -1.135  -5.721  -3.179  0.00  0.00    -0.043 C 
ATOM      5  C   UNL     1      -2.252  -5.101  -3.544  0.00  0.00    -0.006 C 
ATOM      6  C   UNL     1      -2.316  -3.632  -3.839  0.00  0.00    +0.136 C 
ENDROOT
BRANCH   4   7
ATOM      7  C   UNL     1      -1.198  -7.108  -2.941  0.00  0.00    -0.015 C 
ATOM      8  C   UNL     1      -0.187  -7.923  -2.445  0.00  0.00    +0.022 A 
ATOM      9  C   UNL     1       1.143  -7.663  -2.042  0.00  0.00    +0.013 A 
ATOM     10  C   UNL     1       1.896  -8.706  -1.591  0.00  0.00    +0.020 A 
ATOM     11  C   UNL     1       1.362  -9.993  -1.531  0.00  0.00    +0.113 A 
ATOM     12  N   UNL     1       0.136 -10.266  -1.896  0.00  0.00    -0.238 NA
ATOM     13  C   UNL     1      -0.692  -9.305  -2.358  0.00  0.00    +0.135 A 
ATOM     14  N   UNL     1      -1.940  -9.363  -2.771  0.00  0.00    -0.365 N 
ATOM     15  C   UNL     1      -2.382  -8.022  -3.165  0.00  0.00    +0.150 C 
ATOM     16  H   UNL     1      -2.482 -10.166  -2.805  0.00  0.00    +0.161 HD
ENDBRANCH   4   7
BRANCH   1  17
ATOM     17  S   UNL     1      -1.063  -1.551  -2.602  0.00  0.00    +0.045 S 
ATOM     18  O   UNL     1       0.076  -1.611  -1.754  0.00  0.00    -0.157 OA
ATOM     19  O   UNL     1      -2.369  -1.444  -2.055  0.00  0.00    -0.157 OA
BRANCH  17  23
ATOM     20  C   UNL     1      -2.324   2.250  -1.600  0.00  0.00    +0.133 C 
ATOM     21  N   UNL     1      -2.136   1.476  -2.829  0.00  0.00    -0.286 N 
ATOM     22  C   UNL     1      -0.784   1.095  -3.243  0.00  0.00    +0.146 C 
ATOM     23  C   UNL     1      -0.819  -0.293  -3.887  0.00  0.00    +0.251 C 
ATOM     24  C   UNL     1      -1.956  -0.353  -4.875  0.00  0.00    +0.250 C 
ATOM     25  O   UNL     1      -1.846  -1.010  -5.888  0.00  0.00    -0.273 OA
ATOM     26  N   UNL     1      -3.095   0.322  -4.632  0.00  0.00    -0.227 N 
ATOM     27  C   UNL     1      -3.207   1.121  -3.558  0.00  0.00    +0.311 C 
ATOM     28  O   UNL     1      -4.304   1.536  -3.241  0.00  0.00    -0.252 OA
ATOM     29  C   UNL     1      -4.229   0.179  -5.548  0.00  0.00    +0.143 C 
ENDBRANCH  17  23
ENDBRANCH   1  17
TORSDOF 3
