REMARK  Name = ZINC21230425
REMARK  7 active torsions:
REMARK  status: ('A' for Active; 'I' for Inactive)
REMARK    1  A    between atoms: C_1  and  C_2
REMARK    2  A    between atoms: C_2  and  C_3
REMARK    3  A    between atoms: C_2  and  C_4
REMARK    4  A    between atoms: C_4  and  C_6
REMARK    5  A    between atoms: C_4  and  S_12
REMARK    6  A    between atoms: S_12  and  C_13
REMARK    7  A    between atoms: N_27  and  C_28
REMARK                            x       y       z     vdW  Elec       q    Type
REMARK                         _______ _______ _______ _____ _____    ______ ____
ROOT
ATOM      1  C   UNL     1       4.073   3.043   0.799  0.00  0.00    +0.178 A 
ATOM      2  N   UNL     1       2.770   2.997   0.987  0.00  0.00    -0.215 NA
ATOM      3  C   UNL     1       2.060   1.954   0.572  0.00  0.00    +0.117 A 
ATOM      4  C   UNL     1       2.651   0.858  -0.076  0.00  0.00    +0.076 A 
ATOM      5  C   UNL     1       1.742  -0.223  -0.474  0.00  0.00    -0.023 A 
ATOM      6  C   UNL     1       0.436  -0.055  -0.184  0.00  0.00    -0.004 A 
ATOM      7  S   UNL     1       0.341   1.520   0.628  0.00  0.00    -0.073 S 
ATOM      8  C   UNL     1      -0.698  -0.982  -0.491  0.00  0.00    +0.043 C 
ATOM      9  C   UNL     1      -0.328  -2.403  -0.046  0.00  0.00    +0.005 C 
ATOM     10  C   UNL     1       0.364  -3.105  -1.210  0.00  0.00    +0.001 C 
ATOM     11  C   UNL     1       1.167  -2.095  -2.027  0.00  0.00    +0.005 C 
ATOM     12  C   UNL     1       2.266  -1.474  -1.175  0.00  0.00    +0.037 C 
ATOM     13  C   UNL     1       4.067   0.934  -0.268  0.00  0.00    +0.268 A 
ATOM     14  O   UNL     1       4.665   0.029  -0.823  0.00  0.00    -0.267 OA
ATOM     15  N   UNL     1       4.729   2.019   0.174  0.00  0.00    -0.255 N 
ENDROOT
BRANCH  15  16
ATOM     16  C   UNL     1       6.115   2.101  -0.009  0.00  0.00    +0.052 A 
ATOM     17  C   UNL     1       6.631   2.643  -1.179  0.00  0.00    +0.026 A 
ATOM     18  C   UNL     1       7.999   2.727  -1.355  0.00  0.00    +0.002 A 
ATOM     19  C   UNL     1       8.854   2.263  -0.372  0.00  0.00    +0.000 A 
ATOM     20  C   UNL     1       8.343   1.718   0.792  0.00  0.00    +0.002 A 
ATOM     21  C   UNL     1       6.976   1.636   0.976  0.00  0.00    +0.026 A 
ENDBRANCH  15  16
BRANCH   1  22
ATOM     22  S   UNL     1       4.984   4.443   1.362  0.00  0.00    -0.074 S 
BRANCH  22  23
ATOM     23  C   UNL     1       3.624   5.493   1.933  0.00  0.00    +0.143 C 
BRANCH  23  24
ATOM     24  C   UNL     1       2.812   5.951   0.749  0.00  0.00    +0.234 C 
ATOM     25  O   UNL     1       3.293   5.924  -0.363  0.00  0.00    -0.274 OA
ATOM     26  N   UNL     1       1.550   6.391   0.927  0.00  0.00    -0.239 N 
ATOM     27  C   UNL     1       0.824   6.801  -0.131  0.00  0.00    +0.303 C 
ATOM     28  O   UNL     1       1.306   6.773  -1.246  0.00  0.00    -0.253 OA
ATOM     29  N   UNL     1      -0.438   7.240   0.047  0.00  0.00    -0.313 N 
ATOM     30  H   UNL     1       1.114   6.416   1.937  0.00  0.00    +0.159 HD
ATOM     31  H   UNL     1      -1.031   7.575  -0.817  0.00  0.00    +0.146 HD
ATOM     32  H   UNL     1      -0.874   7.265   1.056  0.00  0.00    +0.146 HD
ENDBRANCH  23  24
BRANCH  23  34
ATOM     33  C   UNL     1       3.044   7.608   3.131  0.00  0.00    +0.009 C 
ATOM     34  C   UNL     1       4.193   6.711   2.663  0.00  0.00    +0.005 C 
ATOM     35  C   UNL     1       5.003   6.247   3.875  0.00  0.00    +0.009 C 
ENDBRANCH  23  34
ENDBRANCH  22  23
ENDBRANCH   1  22
TORSDOF 5
