REMARK  Name = ZINC15329277
REMARK  5 active torsions:
REMARK  status: ('A' for Active; 'I' for Inactive)
REMARK    1  A    between atoms: C_1  and  N_2
REMARK    2  A    between atoms: C_4  and  S_11
REMARK    3  A    between atoms: N_7  and  C_10
REMARK    4  A    between atoms: S_11  and  N_14
REMARK    5  A    between atoms: C_18  and  C_20
REMARK                            x       y       z     vdW  Elec       q    Type
REMARK                         _______ _______ _______ _____ _____    ______ ____
ROOT
ATOM      1  N   UNL     1       2.428   0.116   0.941  0.00  0.00    -0.169 NA
ATOM      2  C   UNL     1       2.635  -1.069   0.089  0.00  0.00    +0.110 C 
ATOM      3  C   UNL     1       3.334  -0.526  -1.182  0.00  0.00    +0.019 C 
ATOM      4  C   UNL     1       2.628   0.843  -1.366  0.00  0.00    +0.027 C 
ATOM      5  C   UNL     1       2.401   1.312   0.087  0.00  0.00    +0.110 C 
ENDROOT
BRANCH   5   6
ATOM      6  C   UNL     1       1.062   1.994   0.202  0.00  0.00    -0.025 A 
ATOM      7  C   UNL     1      -0.100   1.246   0.142  0.00  0.00    +0.009 A 
ATOM      8  C   UNL     1      -1.330   1.869   0.240  0.00  0.00    +0.050 A 
ATOM      9  C   UNL     1      -1.402   3.243   0.410  0.00  0.00    +0.162 A 
ATOM     10  C   UNL     1      -0.234   3.994   0.473  0.00  0.00    +0.162 A 
ATOM     11  C   UNL     1       0.997   3.364   0.367  0.00  0.00    +0.054 A 
ATOM     12  O   UNL     1      -0.282   5.343   0.642  0.00  0.00    -0.485 OA
ATOM     13  C   UNL     1      -1.534   5.982   0.371  0.00  0.00    +0.270 C 
ATOM     14  C   UNL     1      -2.646   5.167   1.045  0.00  0.00    +0.270 C 
ATOM     15  O   UNL     1      -2.621   3.842   0.505  0.00  0.00    -0.485 OA
ENDBRANCH   5   6
BRANCH   1  16
ATOM     16  S   UNL     1       2.255   0.102   2.588  0.00  0.00    +0.068 S 
ATOM     17  O   UNL     1       1.438   1.216   2.920  0.00  0.00    -0.153 OA
ATOM     18  O   UNL     1       1.911  -1.229   2.949  0.00  0.00    -0.153 OA
BRANCH  16  22
ATOM     19  C   UNL     1       5.631   3.110   5.062  0.00  0.00    +0.153 C 
ATOM     20  N   UNL     1       5.346   1.828   4.414  0.00  0.00    -0.301 N 
ATOM     21  C   UNL     1       4.106   1.599   3.880  0.00  0.00    +0.124 A 
ATOM     22  C   UNL     1       3.844   0.417   3.282  0.00  0.00    +0.186 A 
ATOM     23  C   UNL     1       4.860  -0.567   3.225  0.00  0.00    +0.283 A 
ATOM     24  O   UNL     1       4.645  -1.642   2.695  0.00  0.00    -0.265 OA
ATOM     25  N   UNL     1       6.069  -0.300   3.757  0.00  0.00    -0.262 N 
ATOM     26  C   UNL     1       6.304   0.886   4.348  0.00  0.00    +0.332 A 
ATOM     27  O   UNL     1       7.398   1.110   4.829  0.00  0.00    -0.246 OA
ATOM     28  C   UNL     1       7.131  -1.309   3.698  0.00  0.00    +0.157 C 
ENDBRANCH  16  22
ENDBRANCH   1  16
TORSDOF 3
