REMARK  Name = ZINC49167151
REMARK  9 active torsions:
REMARK  status: ('A' for Active; 'I' for Inactive)
REMARK    1  A    between atoms: C_1  and  C_2
REMARK    2  A    between atoms: C_3  and  C_15
REMARK    3  A    between atoms: C_4  and  C_14
REMARK    4  A    between atoms: N_5  and  C_7
REMARK    5  A    between atoms: C_16  and  C_17
REMARK    6  A    between atoms: C_19  and  C_20
REMARK    7  A    between atoms: C_19  and  C_22
REMARK    8  A    between atoms: C_22  and  C_24
REMARK    9  A    between atoms: C_28  and  C_29
REMARK                            x       y       z     vdW  Elec       q    Type
REMARK                         _______ _______ _______ _____ _____    ______ ____
ROOT
ATOM      1  C   UNL     1       0.199   0.350  -2.277  0.00  0.00    +0.015 C 
ATOM      2  C   UNL     1      -0.821   1.124  -2.726  0.00  0.00    +0.053 C 
ENDROOT
BRANCH   1   5
ATOM      3  C   UNL     1       0.078   2.458   0.092  0.00  0.00    +0.068 C 
ATOM      4  C   UNL     1       0.257   0.967   0.222  0.00  0.00    +0.068 A 
ATOM      5  C   UNL     1       0.308   0.040  -0.847  0.00  0.00    +0.019 A 
ATOM      6  C   UNL     1       0.482  -1.215  -0.288  0.00  0.00    +0.049 A 
ATOM      7  N   UNL     1       0.532  -1.056   1.048  0.00  0.00    -0.236 N 
ATOM      8  N   UNL     1       0.396   0.306   1.338  0.00  0.00    -0.171 NA
ATOM      9  C   UNL     1       0.594  -2.518  -1.037  0.00  0.00    +0.066 C 
BRANCH   7  10
ATOM     10  C   UNL     1       0.699  -2.081   1.989  0.00  0.00    +0.066 A 
ATOM     11  C   UNL     1      -0.065  -2.091   3.148  0.00  0.00    +0.030 A 
ATOM     12  C   UNL     1       0.100  -3.102   4.074  0.00  0.00    +0.040 A 
ATOM     13  C   UNL     1       1.026  -4.106   3.847  0.00  0.00    +0.124 A 
ATOM     14  C   UNL     1       1.790  -4.098   2.691  0.00  0.00    +0.040 A 
ATOM     15  C   UNL     1       1.623  -3.091   1.760  0.00  0.00    +0.030 A 
ATOM     16  F   UNL     1       1.187  -5.094   4.754  0.00  0.00    -0.205 F 
ENDBRANCH   7  10
ENDBRANCH   1   5
BRANCH   2  17
ATOM     17  C   UNL     1      -0.926   1.422  -4.098  0.00  0.00    +0.200 C 
ATOM     18  O   UNL     1      -0.070   0.860  -4.979  0.00  0.00    -0.286 OA
ATOM     19  C   UNL     1      -1.919   2.300  -4.549  0.00  0.00    +0.145 C 
BRANCH  19  20
ATOM     20  C   UNL     1      -1.954   2.695  -5.926  0.00  0.00    +0.107 C 
ATOM     21  N   UNL     1      -1.981   3.008  -7.017  0.00  0.00    -0.191 NA
ENDBRANCH  19  20
BRANCH  19  22
ATOM     22  C   UNL     1      -2.920   2.815  -3.615  0.00  0.00    +0.210 C 
ATOM     23  O   UNL     1      -3.729   2.057  -3.110  0.00  0.00    -0.286 OA
BRANCH  22  24
ATOM     24  C   UNL     1      -2.950   4.253  -3.284  0.00  0.00    +0.064 A 
ATOM     25  C   UNL     1      -2.060   5.302  -3.802  0.00  0.00    +0.053 A 
ATOM     26  C   UNL     1      -2.462   6.445  -3.224  0.00  0.00    +0.196 A 
ATOM     27  O   UNL     1      -3.501   6.186  -2.414  0.00  0.00    -0.467 OA
ATOM     28  C   UNL     1      -3.812   4.886  -2.439  0.00  0.00    +0.113 A 
ATOM     29  C   UNL     1      -4.925   4.231  -1.661  0.00  0.00    +0.087 C 
ENDBRANCH  22  24
ENDBRANCH  19  22
ENDBRANCH   2  17
TORSDOF 6
