REMARK  Name = ZINC24469646
REMARK  7 active torsions:
REMARK  status: ('A' for Active; 'I' for Inactive)
REMARK    1  A    between atoms: C_1  and  C_2
REMARK    2  A    between atoms: C_4  and  C_13
REMARK    3  A    between atoms: C_6  and  C_12
REMARK    4  A    between atoms: N_8  and  C_11
REMARK    5  A    between atoms: N_15  and  C_16
REMARK    6  A    between atoms: C_16  and  C_17
REMARK    7  A    between atoms: C_21  and  C_24
REMARK                            x       y       z     vdW  Elec       q    Type
REMARK                         _______ _______ _______ _____ _____    ______ ____
ROOT
ATOM      1  C   UNL     1       1.270   3.661  -0.023  0.00  0.00    +0.253 C 
ATOM      2  O   UNL     1       2.373   4.167  -0.093  0.00  0.00    -0.270 OA
ATOM      3  N   UNL     1       0.172   4.442   0.025  0.00  0.00    -0.243 N 
ATOM      4  C   UNL     1       0.291   5.816  -0.130  0.00  0.00    +0.168 A 
ATOM      5  N   UNL     1       1.374   6.544  -0.331  0.00  0.00    -0.224 NA
ATOM      6  C   UNL     1       1.305   7.860  -0.458  0.00  0.00    +0.080 A 
ATOM      7  C   UNL     1       0.088   8.478  -0.380  0.00  0.00    +0.076 A 
ATOM      8  S   UNL     1      -0.983   7.070  -0.119  0.00  0.00    -0.060 S 
ENDROOT
BRANCH   1  12
ATOM      9  C   UNL     1      -0.657  -0.579  -1.833  0.00  0.00    +0.065 C 
ATOM     10  C   UNL     1       0.220   0.140  -0.840  0.00  0.00    +0.041 A 
ATOM     11  C   UNL     1       0.323   1.522  -0.905  0.00  0.00    +0.037 A 
ATOM     12  C   UNL     1       1.132   2.190   0.012  0.00  0.00    +0.051 A 
ATOM     13  C   UNL     1       1.817   1.415   0.974  0.00  0.00    +0.054 A 
ATOM     14  C   UNL     1       2.699   1.724   2.032  0.00  0.00    +0.070 A 
ATOM     15  N   UNL     1       3.046   0.615   2.620  0.00  0.00    -0.174 NA
ATOM     16  N   UNL     1       2.422  -0.469   1.992  0.00  0.00    -0.249 N 
ATOM     17  C   UNL     1       1.654   0.015   0.966  0.00  0.00    +0.159 A 
ATOM     18  N   UNL     1       0.868  -0.559   0.066  0.00  0.00    -0.233 NA
ATOM     19  C   UNL     1       2.565  -1.878   2.367  0.00  0.00    +0.174 C 
ATOM     20  C   UNL     1       3.161   3.106   2.416  0.00  0.00    +0.068 C 
ENDBRANCH   1  12
BRANCH   6  21
ATOM     21  C   UNL     1       2.536   8.657  -0.682  0.00  0.00    +0.001 A 
ATOM     22  C   UNL     1       2.458  10.041  -0.820  0.00  0.00    +0.010 A 
ATOM     23  C   UNL     1       3.607  10.778  -1.023  0.00  0.00    +0.001 A 
ATOM     24  C   UNL     1       4.834  10.143  -1.100  0.00  0.00    +0.000 A 
ATOM     25  C   UNL     1       4.917   8.769  -0.969  0.00  0.00    +0.001 A 
ATOM     26  C   UNL     1       3.775   8.023  -0.760  0.00  0.00    +0.010 A 
ENDBRANCH   6  21
BRANCH   3  27
ATOM     27  C   UNL     1      -1.146   3.840   0.239  0.00  0.00    +0.142 C 
BRANCH  27  28
ATOM     28  C   UNL     1      -1.374   3.642   1.716  0.00  0.00    -0.015 C 
ATOM     29  C   UNL     1      -2.437   4.150   2.289  0.00  0.00    +0.005 C 
ENDBRANCH  27  28
ENDBRANCH   3  27
TORSDOF 4
