REMARK  Name = ZINC15969890
REMARK  6 active torsions:
REMARK  status: ('A' for Active; 'I' for Inactive)
REMARK    1  A    between atoms: C_1  and  C_2
REMARK    2  A    between atoms: C_17  and  C_20
REMARK    3  A    between atoms: C_20  and  C_21
REMARK    4  A    between atoms: N_26  and  C_29
REMARK    5  A    between atoms: C_29  and  C_30
REMARK    6  A    between atoms: C_30  and  C_31
REMARK                            x       y       z     vdW  Elec       q    Type
REMARK                         _______ _______ _______ _____ _____    ______ ____
ROOT
ATOM      1  C   UNL     1       2.595   1.762  -0.619  0.00  0.00    +0.044 C 
ATOM      2  C   UNL     1       2.553   0.259  -0.516  0.00  0.00    -0.049 A 
ATOM      3  C   UNL     1       1.908  -0.485  -1.489  0.00  0.00    +0.011 A 
ATOM      4  C   UNL     1       1.870  -1.858  -1.395  0.00  0.00    +0.005 A 
ATOM      5  C   UNL     1       2.476  -2.513  -0.328  0.00  0.00    +0.057 A 
ATOM      6  C   UNL     1       3.124  -1.757   0.648  0.00  0.00    +0.063 A 
ATOM      7  C   UNL     1       3.163  -0.380   0.547  0.00  0.00    +0.025 A 
ATOM      8 CL   UNL     1       3.888  -2.548   1.991  0.00  0.00    -0.082 Cl
ATOM      9  N   UNL     1       2.307  -3.894  -0.449  0.00  0.00    -0.282 N 
ATOM     10  C   UNL     1       1.612  -4.225  -1.554  0.00  0.00    +0.243 C 
ATOM     11  O   UNL     1       1.316  -5.345  -1.915  0.00  0.00    -0.273 OA
ATOM     12  C   UNL     1       1.274  -2.937  -2.253  0.00  0.00    +0.136 C 
ATOM     13  C   UNL     1      -0.243  -2.765  -2.406  0.00  0.00    +0.122 C 
ATOM     14  C   UNL     1      -0.545  -3.234  -3.856  0.00  0.00    +0.107 C 
ATOM     15  C   UNL     1       0.822  -3.668  -4.426  0.00  0.00    +0.076 C 
ATOM     16  N   UNL     1       1.823  -2.907  -3.622  0.00  0.00    -0.295 NA
ATOM     17  C   UNL     1      -1.011  -1.970  -4.542  0.00  0.00    +0.227 C 
ATOM     18  O   UNL     1      -1.344  -1.886  -5.705  0.00  0.00    -0.275 OA
ATOM     19  N   UNL     1      -0.998  -0.958  -3.666  0.00  0.00    -0.241 N 
ATOM     20  C   UNL     1      -0.588  -1.292  -2.421  0.00  0.00    +0.228 C 
ATOM     21  O   UNL     1      -0.506  -0.544  -1.471  0.00  0.00    -0.275 OA
ATOM     22  H   UNL     1       2.651  -4.540   0.188  0.00  0.00    +0.155 HD
ATOM     23  H   UNL     1       1.921  -1.958  -3.951  0.00  0.00    +0.124 HD
ENDROOT
BRANCH  15  24
ATOM     24  C   UNL     1       1.010  -5.178  -4.267  0.00  0.00    +0.115 C 
BRANCH  24  25
ATOM     25  C   UNL     1       0.510  -5.880  -5.503  0.00  0.00    +0.212 C 
ATOM     26  O   UNL     1       0.049  -5.235  -6.421  0.00  0.00    -0.276 OA
ATOM     27  N   UNL     1       0.576  -7.223  -5.588  0.00  0.00    -0.329 N 
ATOM     28  H   UNL     1       0.944  -7.738  -4.854  0.00  0.00    +0.145 HD
ATOM     29  H   UNL     1       0.254  -7.675  -6.384  0.00  0.00    +0.145 HD
ENDBRANCH  24  25
ENDBRANCH  15  24
BRANCH  19  30
ATOM     30  C   UNL     1      -1.402   0.404  -4.023  0.00  0.00    +0.121 C 
BRANCH  30  31
ATOM     31  C   UNL     1      -2.902   0.573  -3.775  0.00  0.00    +0.054 C 
BRANCH  31  32
ATOM     32  C   UNL     1      -3.318   1.974  -4.142  0.00  0.00    -0.046 A 
ATOM     33  C   UNL     1      -3.277   2.978  -3.193  0.00  0.00    +0.004 A 
ATOM     34  C   UNL     1      -3.658   4.264  -3.530  0.00  0.00    +0.000 A 
ATOM     35  C   UNL     1      -4.079   4.545  -4.816  0.00  0.00    +0.000 A 
ATOM     36  C   UNL     1      -4.119   3.541  -5.765  0.00  0.00    +0.000 A 
ATOM     37  C   UNL     1      -3.734   2.256  -5.429  0.00  0.00    +0.004 A 
ENDBRANCH  31  32
ENDBRANCH  30  31
ENDBRANCH  19  30
TORSDOF 5
