REMARK  Name = ZINC15839536
REMARK  10 active torsions:
REMARK  status: ('A' for Active; 'I' for Inactive)
REMARK    1  A    between atoms: C_1  and  C_2
REMARK    2  A    between atoms: C_2  and  C_3
REMARK    3  A    between atoms: C_3  and  C_36
REMARK    4  A    between atoms: N_18  and  C_32
REMARK    5  A    between atoms: C_20  and  S_21
REMARK    6  A    between atoms: S_21  and  C_22
REMARK    7  A    between atoms: C_22  and  C_23
REMARK    8  A    between atoms: N_25  and  C_26
REMARK    9  A    between atoms: C_32  and  C_33
REMARK   10  A    between atoms: C_33  and  C_35
REMARK                            x       y       z     vdW  Elec       q    Type
REMARK                         _______ _______ _______ _____ _____    ______ ____
ROOT
ATOM      1  C   UNL     1       2.496  -2.696  -0.756  0.00  0.00    +0.004 C 
ATOM      2  C   UNL     1       1.167  -2.168  -0.222  0.00  0.00    +0.047 C 
ATOM      3  C   UNL     1       1.167  -0.663  -0.194  0.00  0.00    -0.037 A 
ATOM      4  C   UNL     1       0.012   0.041  -0.468  0.00  0.00    +0.004 A 
ATOM      5  C   UNL     1       0.017   1.423  -0.427  0.00  0.00    +0.000 A 
ATOM      6  C   UNL     1       1.175   2.111  -0.113  0.00  0.00    +0.001 A 
ATOM      7  C   UNL     1       2.338   1.419   0.161  0.00  0.00    +0.010 A 
ATOM      8  C   UNL     1       2.338   0.028   0.118  0.00  0.00    +0.004 A 
ATOM      9  C   UNL     1       3.573  -0.742   0.394  0.00  0.00    +0.084 A 
ATOM     10  C   UNL     1       3.647  -2.067  -0.023  0.00  0.00    +0.050 A 
ATOM     11  C   UNL     1       4.808  -2.794   0.244  0.00  0.00    +0.266 A 
ATOM     12  O   UNL     1       4.906  -3.960  -0.104  0.00  0.00    -0.267 OA
ATOM     13  N   UNL     1       5.822  -2.183   0.895  0.00  0.00    -0.222 N 
ATOM     14  C   UNL     1       5.705  -0.879   1.279  0.00  0.00    +0.237 A 
ATOM     15  N   UNL     1       4.604  -0.186   1.030  0.00  0.00    -0.211 NA
ATOM     16  N   UNL     1       6.867  -0.538   1.899  0.00  0.00    -0.226 N 
ATOM     17  N   UNL     1       7.695  -1.669   1.885  0.00  0.00    -0.142 NA
ATOM     18  C   UNL     1       7.062  -2.636   1.287  0.00  0.00    +0.198 A 
ATOM     19  C   UNL     1       2.546  -4.213  -0.568  0.00  0.00    +0.016 C 
ENDROOT
BRANCH   1  21
ATOM     20  C   UNL     1       3.925  -2.920  -2.793  0.00  0.00    +0.005 C 
ATOM     21  C   UNL     1       2.607  -2.368  -2.246  0.00  0.00    +0.008 C 
ENDBRANCH   1  21
BRANCH  18  22
ATOM     22  S   UNL     1       7.690  -4.261   1.022  0.00  0.00    -0.076 S 
BRANCH  22  23
ATOM     23  C   UNL     1       9.321  -4.097   1.790  0.00  0.00    +0.173 C 
BRANCH  23  24
ATOM     24  C   UNL     1      10.061  -5.405   1.680  0.00  0.00    +0.227 C 
ATOM     25  O   UNL     1       9.538  -6.354   1.136  0.00  0.00    -0.275 OA
ATOM     26  N   UNL     1      11.305  -5.519   2.187  0.00  0.00    -0.285 N 
ATOM     27  H   UNL     1      11.750  -4.743   2.561  0.00  0.00    +0.155 HD
BRANCH  26  28
ATOM     28  C   UNL     1      11.955  -6.758   2.172  0.00  0.00    +0.033 A 
ATOM     29  C   UNL     1      12.794  -7.117   3.219  0.00  0.00    +0.023 A 
ATOM     30  C   UNL     1      13.430  -8.343   3.204  0.00  0.00    +0.002 A 
ATOM     31  C   UNL     1      13.240  -9.209   2.142  0.00  0.00    +0.000 A 
ATOM     32  C   UNL     1      12.410  -8.852   1.095  0.00  0.00    +0.002 A 
ATOM     33  C   UNL     1      11.767  -7.630   1.107  0.00  0.00    +0.023 A 
ENDBRANCH  26  28
ENDBRANCH  23  24
ENDBRANCH  22  23
ENDBRANCH  18  22
BRANCH  16  34
ATOM     34  C   UNL     1       7.193   0.769   2.475  0.00  0.00    +0.177 C 
BRANCH  34  35
ATOM     35  C   UNL     1       6.761   0.803   3.918  0.00  0.00    -0.058 C 
ATOM     36  C   UNL     1       7.620   0.521   4.866  0.00  0.00    +0.009 C 
ATOM     37  C   UNL     1       5.340   1.162   4.272  0.00  0.00    +0.040 C 
ENDBRANCH  34  35
ENDBRANCH  16  34
TORSDOF 7
