REMARK  Name = ZINC09301856
REMARK  8 active torsions:
REMARK  status: ('A' for Active; 'I' for Inactive)
REMARK    1  A    between atoms: C_1  and  C_2
REMARK    2  A    between atoms: C_2  and  O_3
REMARK    3  A    between atoms: O_3  and  C_4
REMARK    4  A    between atoms: C_4  and  C_6
REMARK    5  A    between atoms: C_10  and  N_11
REMARK    6  A    between atoms: C_12  and  C_13
REMARK    7  A    between atoms: C_18  and  O_19
REMARK    8  A    between atoms: C_25  and  N_44
REMARK                            x       y       z     vdW  Elec       q    Type
REMARK                         _______ _______ _______ _____ _____    ______ ____
ROOT
ATOM      1  C   UNL     1       1.244   1.962   0.001  0.00  0.00    +0.095 A 
ATOM      2  C   UNL     1       1.851   2.336  -1.210  0.00  0.00    -0.025 A 
ATOM      3  C   UNL     1       3.015   3.028  -1.128  0.00  0.00    -0.021 A 
ATOM      4  S   UNL     1       3.317   3.190   0.610  0.00  0.00    -0.075 S 
ATOM      5  C   UNL     1       1.869   2.328   1.201  0.00  0.00    +0.115 A 
ATOM      6  C   UNL     1       3.841   3.529  -2.270  0.00  0.00    -0.036 C 
ATOM      7  C   UNL     1       1.920   2.927  -3.615  0.00  0.00    -0.074 C 
ATOM      8  C   UNL     1       1.266   2.007  -2.582  0.00  0.00    +0.018 C 
ATOM      9  C   UNL     1       4.032   3.431  -4.687  0.00  0.00    -0.096 C 
ATOM     10  N   UNL     1       3.389   2.831  -3.498  0.00  0.00    +0.381 N 
ATOM     11  H   UNL     1       3.656   1.842  -3.438  0.00  0.00    -0.082 HD
ENDROOT
BRANCH   1  12
ATOM     12  C   UNL     1      -0.014   1.212   0.009  0.00  0.00    +0.342 C 
ATOM     13  O   UNL     1       0.002  -0.004   0.002  0.00  0.00    -0.245 OA
BRANCH  12  14
ATOM     14  O   UNL     1      -1.192   1.871   0.018  0.00  0.00    -0.461 OA
BRANCH  14  16
ATOM     15  C   UNL     1      -3.624   1.979   0.030  0.00  0.00    +0.048 C 
ATOM     16  C   UNL     1      -2.398   1.063   0.019  0.00  0.00    +0.229 C 
ENDBRANCH  14  16
ENDBRANCH  12  14
ENDBRANCH   1  12
BRANCH   5  17
ATOM     17  N   UNL     1       1.479   2.089   2.471  0.00  0.00    -0.247 NA
ATOM     18  C   UNL     1       2.207   2.517   3.470  0.00  0.00    +0.123 C 
BRANCH  18  19
ATOM     19  C   UNL     1       1.783   2.257   4.851  0.00  0.00    +0.037 A 
ATOM     20  C   UNL     1       2.559   2.713   5.924  0.00  0.00    +0.033 A 
ATOM     21  C   UNL     1       2.155   2.466   7.218  0.00  0.00    +0.043 A 
ATOM     22  C   UNL     1       0.983   1.766   7.463  0.00  0.00    +0.039 A 
ATOM     23  C   UNL     1       0.207   1.310   6.414  0.00  0.00    +0.061 A 
ATOM     24  C   UNL     1       0.595   1.554   5.105  0.00  0.00    +0.139 A 
ATOM     25 BR   UNL     1      -1.388   0.357   6.764  0.00  0.00    -0.046 Br
ATOM     26 CL   UNL     1       3.117   3.032   8.547  0.00  0.00    -0.083 Cl
BRANCH  24  27
ATOM     27  O   UNL     1      -0.169   1.112   4.074  0.00  0.00    -0.505 OA
ATOM     28  H   UNL     1       0.058   0.222   3.770  0.00  0.00    +0.292 HD
ENDBRANCH  24  27
ENDBRANCH  18  19
ENDBRANCH   5  17
TORSDOF 6
