REMARK  Name = ZINC18156211
REMARK  4 active torsions:
REMARK  status: ('A' for Active; 'I' for Inactive)
REMARK    1  A    between atoms: C_1  and  O_2
REMARK    2  A    between atoms: O_2  and  C_3
REMARK    3  A    between atoms: C_5  and  C_11
REMARK    4  A    between atoms: C_8  and  O_9
REMARK                            x       y       z     vdW  Elec       q    Type
REMARK                         _______ _______ _______ _____ _____    ______ ____
ROOT
ATOM      1  C   UNL     1      -4.871   0.258   0.039  0.00  0.00    +0.209 C 
ATOM      2  N   UNL     1      -5.868  -0.388   0.912  0.00  0.00    -0.293 N 
ATOM      3  C   UNL     1      -6.619  -1.429   0.435  0.00  0.00    +0.183 C 
ATOM      4  N   UNL     1      -6.934  -1.519  -0.846  0.00  0.00    -0.183 NA
ATOM      5  C   UNL     1      -6.444  -0.589  -1.698  0.00  0.00    +0.236 A 
ATOM      6  N   UNL     1      -5.451   0.299  -1.309  0.00  0.00    -0.285 N 
ATOM      7  C   UNL     1      -5.185   1.111  -2.370  0.00  0.00    +0.072 A 
ATOM      8  C   UNL     1      -4.312   2.176  -2.552  0.00  0.00    +0.028 A 
ATOM      9  C   UNL     1      -4.306   2.785  -3.797  0.00  0.00    +0.002 A 
ATOM     10  C   UNL     1      -5.130   2.360  -4.825  0.00  0.00    +0.002 A 
ATOM     11  C   UNL     1      -6.008   1.302  -4.671  0.00  0.00    +0.030 A 
ATOM     12  C   UNL     1      -6.032   0.672  -3.421  0.00  0.00    +0.091 A 
ATOM     13  N   UNL     1      -6.761  -0.366  -2.951  0.00  0.00    -0.210 NA
ATOM     14  N   UNL     1      -7.053  -2.395   1.301  0.00  0.00    -0.331 N 
ATOM     15  H   UNL     1      -6.828  -2.338   2.243  0.00  0.00    +0.145 HD
ATOM     16  H   UNL     1      -7.586  -3.136   0.974  0.00  0.00    +0.145 HD
ATOM     17  H   UNL     1      -5.991  -0.077   1.822  0.00  0.00    +0.151 HD
ENDROOT
BRANCH   1  20
ATOM     18  C   UNL     1      -1.201  -0.638   0.010  0.00  0.00    +0.163 A 
ATOM     19  C   UNL     1      -2.374   0.100   0.019  0.00  0.00    +0.056 A 
ATOM     20  C   UNL     1      -3.597  -0.546   0.028  0.00  0.00    -0.002 A 
ATOM     21  C   UNL     1      -3.653  -1.927   0.028  0.00  0.00    +0.026 A 
ATOM     22  C   UNL     1      -2.486  -2.669   0.018  0.00  0.00    +0.063 A 
ATOM     23  C   UNL     1      -1.257  -2.028   0.003  0.00  0.00    +0.173 A 
ATOM     24 BR   UNL     1      -2.567  -4.559   0.019  0.00  0.00    -0.046 Br
BRANCH  18  26
ATOM     25  C   UNL     1      -0.017   1.425   0.010  0.00  0.00    +0.277 C 
ATOM     26  O   UNL     1       0.002  -0.004   0.002  0.00  0.00    -0.491 OA
ENDBRANCH  18  26
BRANCH  23  27
ATOM     27  O   UNL     1      -0.108  -2.756  -0.012  0.00  0.00    -0.503 OA
ATOM     28  H   UNL     1       0.233  -2.971   0.867  0.00  0.00    +0.292 HD
ENDBRANCH  23  27
ENDBRANCH   1  20
TORSDOF 3
