REMARK  Name = ZINC09281993
REMARK  7 active torsions:
REMARK  status: ('A' for Active; 'I' for Inactive)
REMARK    1  A    between atoms: C_1  and  C_2
REMARK    2  A    between atoms: C_2  and  O_3
REMARK    3  A    between atoms: O_3  and  C_4
REMARK    4  A    between atoms: C_7  and  C_10
REMARK    5  A    between atoms: C_17  and  N_31
REMARK    6  A    between atoms: C_18  and  C_29
REMARK    7  A    between atoms: C_19  and  C_21
REMARK                            x       y       z     vdW  Elec       q    Type
REMARK                         _______ _______ _______ _____ _____    ______ ____
ROOT
ATOM      1  C   UNL     1      -1.998  -6.073  -0.011  0.00  0.00    +0.100 A 
ATOM      2  C   UNL     1      -3.014  -6.784   0.634  0.00  0.00    +0.054 A 
ATOM      3  C   UNL     1      -2.825  -8.112   0.384  0.00  0.00    +0.223 A 
ATOM      4  N   UNL     1      -1.727  -8.232  -0.390  0.00  0.00    -0.246 N 
ATOM      5  H   UNL     1      -1.352  -9.062  -0.724  0.00  0.00    +0.192 HD
ATOM      6  N   UNL     1      -1.225  -6.943  -0.632  0.00  0.00    -0.171 NA
ATOM      7  O   UNL     1      -3.650  -9.073   0.870  0.00  0.00    -0.423 OA
ATOM      8  C   UNL     1      -4.831  -8.680   1.387  0.00  0.00    +0.200 C 
ATOM      9  C   UNL     1      -5.131  -7.397   1.688  0.00  0.00    +0.098 C 
ATOM     10  C   UNL     1      -4.154  -6.268   1.475  0.00  0.00    +0.103 C 
ENDROOT
BRANCH  10  11
ATOM     11  C   UNL     1      -3.629  -5.791   2.805  0.00  0.00    -0.016 A 
ATOM     12  C   UNL     1      -2.966  -6.670   3.641  0.00  0.00    +0.007 A 
ATOM     13  C   UNL     1      -2.485  -6.234   4.861  0.00  0.00    +0.020 A 
ATOM     14  C   UNL     1      -2.665  -4.917   5.245  0.00  0.00    +0.042 A 
ATOM     15  C   UNL     1      -3.327  -4.037   4.409  0.00  0.00    +0.040 A 
ATOM     16  C   UNL     1      -3.805  -4.473   3.186  0.00  0.00    +0.046 A 
ATOM     17 CL   UNL     1      -4.631  -3.368   2.132  0.00  0.00    -0.083 Cl
ATOM     18 CL   UNL     1      -2.060  -4.369   6.778  0.00  0.00    -0.083 Cl
ENDBRANCH  10  11
BRANCH   1  22
ATOM     19  C   UNL     1      -1.498  -1.848   0.006  0.00  0.00    +0.121 A 
ATOM     20  C   UNL     1      -0.385  -2.677  -0.003  0.00  0.00    +0.046 A 
ATOM     21  C   UNL     1      -0.544  -4.048  -0.009  0.00  0.00    +0.013 A 
ATOM     22  C   UNL     1      -1.824  -4.599  -0.005  0.00  0.00    +0.003 A 
ATOM     23  C   UNL     1      -2.940  -3.764   0.005  0.00  0.00    +0.013 A 
ATOM     24  C   UNL     1      -2.774  -2.395   0.016  0.00  0.00    +0.046 A 
BRANCH  19  25
ATOM     25  O   UNL     1      -1.339  -0.499   0.012  0.00  0.00    -0.492 OA
BRANCH  25  27
ATOM     26  C   UNL     1      -0.019   1.526   0.010  0.00  0.00    +0.048 C 
ATOM     27  C   UNL     1       0.002  -0.004   0.002  0.00  0.00    +0.225 C 
ENDBRANCH  25  27
ENDBRANCH  19  25
ENDBRANCH   1  22
BRANCH   8  28
ATOM     28  N   UNL     1      -5.786  -9.639   1.621  0.00  0.00    -0.328 N 
ATOM     29  H   UNL     1      -5.600 -10.568   1.415  0.00  0.00    +0.145 HD
ATOM     30  H   UNL     1      -6.646  -9.386   1.992  0.00  0.00    +0.145 HD
ENDBRANCH   8  28
BRANCH   9  31
ATOM     31  C   UNL     1      -6.423  -7.098   2.228  0.00  0.00    +0.101 C 
ATOM     32  N   UNL     1      -7.448  -6.862   2.657  0.00  0.00    -0.191 NA
ENDBRANCH   9  31
TORSDOF 6
