REMARK  Name = ZINC39657133
REMARK  5 active torsions:
REMARK  status: ('A' for Active; 'I' for Inactive)
REMARK    1  A    between atoms: C_1  and  C_2
REMARK    2  A    between atoms: C_2  and  C_4
REMARK    3  A    between atoms: C_2  and  N_11
REMARK    4  A    between atoms: C_12  and  C_14
REMARK    5  A    between atoms: C_25  and  C_27
REMARK                            x       y       z     vdW  Elec       q    Type
REMARK                         _______ _______ _______ _____ _____    ______ ____
ROOT
ATOM      1  C   UNL     1       0.099  -1.037  -2.858  0.00  0.00    +0.100 C 
ATOM      2  C   UNL     1       0.967  -2.298  -3.070  0.00  0.00    +0.121 C 
ATOM      3  N   UNL     1       0.027  -3.314  -3.599  0.00  0.00    -0.300 N 
ATOM      4  C   UNL     1      -0.850  -2.559  -4.525  0.00  0.00    +0.115 C 
ATOM      5  C   UNL     1      -1.090  -1.210  -3.818  0.00  0.00    -0.004 C 
ATOM      6  C   UNL     1      -1.116  -0.076  -4.838  0.00  0.00    -0.010 C 
ATOM      7  C   UNL     1      -2.340  -0.238  -5.744  0.00  0.00    -0.082 C 
ATOM      8  N   UNL     1      -3.560  -0.217  -4.929  0.00  0.00    +0.379 N 
ATOM      9  C   UNL     1      -3.571  -1.365  -4.014  0.00  0.00    -0.082 C 
ATOM     10  C   UNL     1      -2.399  -1.251  -3.035  0.00  0.00    -0.010 C 
ATOM     11  C   UNL     1      -0.019  -4.629  -3.304  0.00  0.00    +0.219 C 
ATOM     12  O   UNL     1       0.723  -5.088  -2.462  0.00  0.00    -0.275 OA
ATOM     13  H   UNL     1      -3.591   0.638  -4.394  0.00  0.00    -0.086 HD
ATOM     14  H   UNL     1      -4.367  -0.263  -5.533  0.00  0.00    -0.086 HD
ENDROOT
BRANCH  11  15
ATOM     15  C   UNL     1      -0.993  -5.528  -4.022  0.00  0.00    +0.079 C 
ATOM     16  C   UNL     1      -1.311  -6.747  -3.147  0.00  0.00    +0.017 C 
ATOM     17  C   UNL     1      -2.431  -7.545  -3.818  0.00  0.00    +0.027 C 
ATOM     18  C   UNL     1      -2.103  -7.781  -5.263  0.00  0.00    -0.031 C 
ATOM     19  C   UNL     1      -1.210  -7.114  -5.922  0.00  0.00    -0.030 C 
ATOM     20  C   UNL     1      -0.373  -6.016  -5.333  0.00  0.00    +0.039 C 
ENDBRANCH  11  15
BRANCH   1  22
ATOM     21  N   UNL     1      -0.626   0.232  -0.863  0.00  0.00    -0.308 N 
ATOM     22  C   UNL     1      -0.383  -0.965  -1.433  0.00  0.00    +0.219 C 
ATOM     23  O   UNL     1      -0.552  -1.984  -0.797  0.00  0.00    -0.275 OA
ATOM     24  H   UNL     1      -0.491   1.048  -1.371  0.00  0.00    +0.149 HD
BRANCH  21  26
ATOM     25  C   UNL     1      -2.617   0.142   0.555  0.00  0.00    +0.033 C 
ATOM     26  C   UNL     1      -1.095   0.302   0.523  0.00  0.00    +0.100 C 
BRANCH  26  27
ATOM     27  C   UNL     1      -0.718   1.636   1.114  0.00  0.00    -0.027 A 
ATOM     28  C   UNL     1      -0.826   2.785   0.352  0.00  0.00    +0.006 A 
ATOM     29  C   UNL     1      -0.481   4.009   0.894  0.00  0.00    +0.015 A 
ATOM     30  C   UNL     1      -0.027   4.084   2.199  0.00  0.00    +0.018 A 
ATOM     31  C   UNL     1       0.081   2.934   2.960  0.00  0.00    +0.015 A 
ATOM     32  C   UNL     1      -0.269   1.712   2.419  0.00  0.00    +0.006 A 
ATOM     33 BR   UNL     1       0.447   5.758   2.940  0.00  0.00    -0.050 Br
ENDBRANCH  26  27
ENDBRANCH  21  26
ENDBRANCH   1  22
TORSDOF 4
