REMARK  Name = ZINC09126165
REMARK  11 active torsions:
REMARK  status: ('A' for Active; 'I' for Inactive)
REMARK    1  A    between atoms: C_1  and  C_2
REMARK    2  A    between atoms: C_2  and  C_4
REMARK    3  A    between atoms: C_2  and  N_57
REMARK    4  A    between atoms: C_7  and  S_16
REMARK    5  A    between atoms: N_8  and  C_9
REMARK    6  A    between atoms: S_16  and  C_17
REMARK    7  A    between atoms: C_17  and  C_19
REMARK    8  A    between atoms: C_17  and  C_25
REMARK    9  A    between atoms: N_30  and  C_31
REMARK   10  A    between atoms: C_32  and  N_57
REMARK   11  A    between atoms: C_33  and  N_57
REMARK                            x       y       z     vdW  Elec       q    Type
REMARK                         _______ _______ _______ _____ _____    ______ ____
ROOT
ATOM      1  C   UNL     1      -0.462  -0.833  -0.985  0.00  0.00    +0.125 A 
ATOM      2  N   UNL     1      -0.250  -2.058  -0.594  0.00  0.00    -0.135 NA
ATOM      3  N   UNL     1       0.304  -2.062   0.566  0.00  0.00    -0.122 NA
ATOM      4  C   UNL     1       0.483  -0.830   0.981  0.00  0.00    +0.197 A 
ATOM      5  N   UNL     1       0.002  -0.004   0.002  0.00  0.00    -0.275 N 
ENDROOT
BRANCH   5   6
ATOM      6  C   UNL     1      -0.017   1.399   0.010  0.00  0.00    +0.050 A 
ATOM      7  C   UNL     1      -1.228   2.077   0.019  0.00  0.00    +0.028 A 
ATOM      8  C   UNL     1      -1.244   3.458   0.033  0.00  0.00    +0.022 A 
ATOM      9  C   UNL     1      -0.054   4.165   0.025  0.00  0.00    +0.041 A 
ATOM     10  C   UNL     1       1.154   3.491   0.010  0.00  0.00    +0.022 A 
ATOM     11  C   UNL     1       1.175   2.110   0.002  0.00  0.00    +0.028 A 
ATOM     12 CL   UNL     1      -0.078   5.901   0.035  0.00  0.00    -0.084 Cl
ENDBRANCH   5   6
BRANCH   1  14
ATOM     13  C   UNL     1      -0.100  -0.601  -3.427  0.00  0.00    -0.005 C 
ATOM     14  C   UNL     1      -1.097  -0.407  -2.283  0.00  0.00    -0.003 C 
BRANCH  14  17
ATOM     15  C   UNL     1      -3.007  -0.757  -3.731  0.00  0.00    -0.096 C 
ATOM     16  C   UNL     1      -1.947  -2.645  -2.647  0.00  0.00    -0.096 C 
ATOM     17  N   UNL     1      -2.311  -1.219  -2.511  0.00  0.00    +0.382 N 
ATOM     18  H   UNL     1      -2.941  -1.111  -1.707  0.00  0.00    -0.082 HD
ENDBRANCH  14  17
ENDBRANCH   1  14
BRANCH   4  19
ATOM     19  S   UNL     1       1.206  -0.333   2.509  0.00  0.00    -0.068 S 
BRANCH  19  20
ATOM     20  C   UNL     1       1.573  -1.954   3.225  0.00  0.00    +0.170 C 
BRANCH  20  21
ATOM     21  C   UNL     1       2.102  -1.778   4.625  0.00  0.00    +0.238 C 
ATOM     22  O   UNL     1       2.560  -0.709   4.969  0.00  0.00    -0.274 OA
ATOM     23  N   UNL     1       2.066  -2.807   5.494  0.00  0.00    -0.239 N 
ATOM     24  C   UNL     1       2.540  -2.649   6.746  0.00  0.00    +0.306 C 
ATOM     25  O   UNL     1       2.998  -1.578   7.091  0.00  0.00    -0.252 OA
ATOM     26  N   UNL     1       2.504  -3.679   7.615  0.00  0.00    -0.302 N 
ATOM     27  C   UNL     1       3.018  -3.506   8.976  0.00  0.00    +0.129 C 
ATOM     28  H   UNL     1       1.700  -3.662   5.218  0.00  0.00    +0.159 HD
ATOM     29  H   UNL     1       2.138  -4.533   7.339  0.00  0.00    +0.150 HD
ENDBRANCH  20  21
BRANCH  20  30
ATOM     30  C   UNL     1       2.608  -2.653   2.381  0.00  0.00    -0.025 A 
ATOM     31  C   UNL     1       3.850  -2.077   2.193  0.00  0.00    +0.005 A 
ATOM     32  C   UNL     1       4.801  -2.720   1.423  0.00  0.00    +0.000 A 
ATOM     33  C   UNL     1       4.506  -3.934   0.833  0.00  0.00    +0.000 A 
ATOM     34  C   UNL     1       3.262  -4.509   1.017  0.00  0.00    +0.000 A 
ATOM     35  C   UNL     1       2.313  -3.868   1.791  0.00  0.00    +0.005 A 
ENDBRANCH  20  30
ENDBRANCH  19  20
ENDBRANCH   4  19
TORSDOF 7
