REMARK  Name = ZINC42393352
REMARK  4 active torsions:
REMARK  status: ('A' for Active; 'I' for Inactive)
REMARK    1  A    between atoms: C_1  and  N_2
REMARK    2  A    between atoms: C_3  and  C_5
REMARK    3  A    between atoms: N_10  and  C_11
REMARK    4  A    between atoms: C_16  and  N_17
REMARK                            x       y       z     vdW  Elec       q    Type
REMARK                         _______ _______ _______ _____ _____    ______ ____
ROOT
ATOM      1  C   UNL     1       0.844  -2.477   3.390  0.00  0.00    +0.052 A 
ATOM      2  C   UNL     1       0.043  -3.409   4.031  0.00  0.00    +0.030 A 
ATOM      3  C   UNL     1      -0.443  -3.149   5.299  0.00  0.00    -0.024 A 
ATOM      4  C   UNL     1      -0.130  -1.954   5.934  0.00  0.00    +0.038 A 
ATOM      5  C   UNL     1       0.672  -1.018   5.296  0.00  0.00    +0.048 A 
ATOM      6  C   UNL     1       1.165  -1.278   4.027  0.00  0.00    +0.048 A 
ATOM      7  N   UNL     1      -0.625  -1.696   7.218  0.00  0.00    -0.285 N 
ATOM      8  C   UNL     1      -1.075  -2.702   7.990  0.00  0.00    +0.218 C 
ATOM      9  O   UNL     1      -1.514  -2.460   9.095  0.00  0.00    -0.275 OA
ATOM     10  C   UNL     1      -1.040  -4.124   7.499  0.00  0.00    +0.101 C 
ATOM     11  C   UNL     1      -1.314  -4.162   5.995  0.00  0.00    +0.046 C 
ATOM     12  H   UNL     1      -0.644  -0.786   7.553  0.00  0.00    +0.155 HD
ENDROOT
BRANCH   1  17
ATOM     13  C   UNL     1       2.646  -3.332   1.791  0.00  0.00    +0.159 C 
ATOM     14  C   UNL     1       2.741  -3.458   0.256  0.00  0.00    +0.033 C 
ATOM     15  C   UNL     1       1.254  -3.458  -0.186  0.00  0.00    +0.021 C 
ATOM     16  C   UNL     1       0.627  -2.476   0.835  0.00  0.00    +0.106 C 
ATOM     17  N   UNL     1       1.336  -2.741   2.103  0.00  0.00    -0.317 N 
BRANCH  13  20
ATOM     18  C   UNL     1       4.077  -6.506   3.381  0.00  0.00    +0.128 C 
ATOM     19  N   UNL     1       3.968  -5.182   2.764  0.00  0.00    -0.317 N 
ATOM     20  C   UNL     1       2.758  -4.694   2.426  0.00  0.00    +0.233 C 
ATOM     21  O   UNL     1       1.760  -5.351   2.632  0.00  0.00    -0.274 OA
ATOM     22  H   UNL     1       4.766  -4.656   2.600  0.00  0.00    +0.148 HD
ENDBRANCH  13  20
ENDBRANCH   1  17
BRANCH   6  23
ATOM     23  N   UNL     1       1.979  -0.338   3.384  0.00  0.00    -0.356 N 
ATOM     24  H   UNL     1       2.242  -0.476   2.461  0.00  0.00    +0.142 HD
ATOM     25  H   UNL     1       2.279   0.451   3.862  0.00  0.00    +0.142 HD
ENDBRANCH   6  23
TORSDOF 3
