REMARK  Name = ZINC64977071
REMARK  8 active torsions:
REMARK  status: ('A' for Active; 'I' for Inactive)
REMARK    1  A    between atoms: C_1  and  C_2
REMARK    2  A    between atoms: C_2  and  C_3
REMARK    3  A    between atoms: C_2  and  C_4
REMARK    4  A    between atoms: C_4  and  C_5
REMARK    5  A    between atoms: C_14  and  C_16
REMARK    6  A    between atoms: C_16  and  N_17
REMARK    7  A    between atoms: N_17  and  S_18
REMARK    8  A    between atoms: S_18  and  C_21
REMARK                            x       y       z     vdW  Elec       q    Type
REMARK                         _______ _______ _______ _____ _____    ______ ____
ROOT
ATOM      1  C   UNL     1      -1.416  -2.035  -0.119  0.00  0.00    +0.220 C 
ATOM      2  O   UNL     1      -0.359  -2.623  -0.213  0.00  0.00    -0.275 OA
ATOM      3  N   UNL     1      -2.574  -2.724  -0.133  0.00  0.00    -0.271 N 
ATOM      4  C   UNL     1      -3.908  -2.125  -0.034  0.00  0.00    +0.118 C 
ATOM      5  C   UNL     1      -4.887  -3.310  -0.096  0.00  0.00    +0.056 C 
ATOM      6  C   UNL     1      -4.002  -4.528  -0.230  0.00  0.00    -0.024 A 
ATOM      7  C   UNL     1      -2.679  -4.113  -0.251  0.00  0.00    +0.039 A 
ATOM      8  C   UNL     1      -1.670  -5.069  -0.374  0.00  0.00    +0.024 A 
ATOM      9  C   UNL     1      -1.989  -6.407  -0.478  0.00  0.00    +0.007 A 
ATOM     10  C   UNL     1      -3.311  -6.811  -0.461  0.00  0.00    -0.032 A 
ATOM     11  C   UNL     1      -4.316  -5.870  -0.330  0.00  0.00    +0.010 A 
ENDROOT
BRANCH   1  12
ATOM     12  C   UNL     1      -1.433  -0.534   0.013  0.00  0.00    +0.099 C 
BRANCH  12  14
ATOM     13  C   UNL     1      -0.019   1.526   0.010  0.00  0.00    +0.008 C 
ATOM     14  C   UNL     1       0.002  -0.004   0.002  0.00  0.00    -0.008 C 
ATOM     15  C   UNL     1       0.742  -0.511   1.242  0.00  0.00    +0.008 C 
ENDBRANCH  12  14
ENDBRANCH   1  12
BRANCH  10  16
ATOM     16  C   UNL     1      -3.656  -8.273  -0.575  0.00  0.00    +0.141 C 
BRANCH  16  17
ATOM     17  N   UNL     1      -3.713  -8.867   0.763  0.00  0.00    -0.186 NA
ATOM     18  H   UNL     1      -3.335  -8.394   1.520  0.00  0.00    +0.148 HD
BRANCH  17  19
ATOM     19  S   UNL     1      -4.423 -10.347   0.982  0.00  0.00    +0.061 S 
ATOM     20  O   UNL     1      -4.298 -10.658   2.363  0.00  0.00    -0.153 OA
ATOM     21  O   UNL     1      -5.682 -10.295   0.324  0.00  0.00    -0.153 OA
BRANCH  19  22
ATOM     22  C   UNL     1      -3.448 -11.527   0.110  0.00  0.00    +0.133 A 
ATOM     23  C   UNL     1      -2.796 -12.499   0.790  0.00  0.00    +0.031 A 
ATOM     24  C   UNL     1      -2.015 -13.450   0.132  0.00  0.00    +0.004 A 
ATOM     25  C   UNL     1      -1.876 -13.443  -1.214  0.00  0.00    +0.031 A 
ATOM     26  C   UNL     1      -2.533 -12.452  -1.994  0.00  0.00    +0.102 A 
ATOM     27  C   UNL     1      -3.353 -11.461  -1.307  0.00  0.00    +0.126 A 
ATOM     28  N   UNL     1      -3.924 -10.587  -2.137  0.00  0.00    -0.189 NA
ATOM     29  S   UNL     1      -3.450 -11.016  -3.613  0.00  0.00    +0.117 S 
ATOM     30  N   UNL     1      -2.512 -12.290  -3.317  0.00  0.00    -0.191 NA
ENDBRANCH  19  22
ENDBRANCH  17  19
ENDBRANCH  16  17
ENDBRANCH  10  16
TORSDOF 6
