REMARK  Name = ZINC16022259
REMARK  7 active torsions:
REMARK  status: ('A' for Active; 'I' for Inactive)
REMARK    1  A    between atoms: C_1  and  C_2
REMARK    2  A    between atoms: C_2  and  C_3
REMARK    3  A    between atoms: C_3  and  C_4
REMARK    4  A    between atoms: C_4  and  N_5
REMARK    5  A    between atoms: C_10  and  C_27
REMARK    6  A    between atoms: C_27  and  C_28
REMARK    7  A    between atoms: C_28  and  C_29
REMARK                            x       y       z     vdW  Elec       q    Type
REMARK                         _______ _______ _______ _____ _____    ______ ____
ROOT
ATOM      1  N   UNL     1      -2.787  -2.571   0.015  0.00  0.00    -0.242 N 
ATOM      2  C   UNL     1      -3.457  -2.822   1.145  0.00  0.00    +0.227 C 
ATOM      3  O   UNL     1      -3.023  -2.664   2.266  0.00  0.00    -0.275 OA
ATOM      4  C   UNL     1      -4.840  -3.332   0.808  0.00  0.00    +0.107 C 
ATOM      5  C   UNL     1      -4.943  -4.818   1.215  0.00  0.00    +0.068 C 
ATOM      6  N   UNL     1      -5.577  -5.490   0.050  0.00  0.00    -0.295 NA
ATOM      7  C   UNL     1      -4.976  -4.825  -1.121  0.00  0.00    +0.136 C 
ATOM      8  C   UNL     1      -4.853  -3.328  -0.747  0.00  0.00    +0.122 C 
ATOM      9  C   UNL     1      -3.476  -2.815  -1.105  0.00  0.00    +0.228 C 
ATOM     10  O   UNL     1      -3.061  -2.653  -2.233  0.00  0.00    -0.275 OA
ATOM     11  C   UNL     1      -5.817  -5.014  -2.352  0.00  0.00    +0.003 A 
ATOM     12  C   UNL     1      -7.115  -4.686  -2.672  0.00  0.00    +0.008 A 
ATOM     13  C   UNL     1      -7.621  -5.000  -3.921  0.00  0.00    +0.000 A 
ATOM     14  C   UNL     1      -6.819  -5.642  -4.846  0.00  0.00    +0.002 A 
ATOM     15  C   UNL     1      -5.517  -5.971  -4.531  0.00  0.00    +0.023 A 
ATOM     16  C   UNL     1      -5.000  -5.659  -3.276  0.00  0.00    +0.039 A 
ATOM     17  N   UNL     1      -3.735  -5.884  -2.728  0.00  0.00    -0.283 N 
ATOM     18  C   UNL     1      -3.639  -5.424  -1.466  0.00  0.00    +0.243 C 
ATOM     19  O   UNL     1      -2.664  -5.482  -0.746  0.00  0.00    -0.273 OA
ATOM     20  H   UNL     1      -5.375  -6.478   0.049  0.00  0.00    +0.123 HD
ATOM     21  H   UNL     1      -3.010  -6.321  -3.202  0.00  0.00    +0.155 HD
ENDROOT
BRANCH   1  22
ATOM     22  C   UNL     1      -1.413  -2.063   0.004  0.00  0.00    +0.116 C 
BRANCH  22  23
ATOM     23  C   UNL     1      -1.433  -0.534   0.013  0.00  0.00    +0.019 C 
BRANCH  23  25
ATOM     24  C   UNL     1      -0.019   1.526   0.010  0.00  0.00    +0.004 C 
ATOM     25  C   UNL     1       0.002  -0.004   0.002  0.00  0.00    -0.002 C 
ENDBRANCH  23  25
ENDBRANCH  22  23
ENDBRANCH   1  22
BRANCH   5  26
ATOM     26  C   UNL     1      -5.818  -4.969   2.461  0.00  0.00    +0.028 C 
BRANCH  26  27
ATOM     27  C   UNL     1      -5.806  -6.428   2.919  0.00  0.00    +0.097 C 
BRANCH  27  28
ATOM     28  C   UNL     1      -6.668  -6.577   4.146  0.00  0.00    +0.211 C 
ATOM     29  O   UNL     1      -7.237  -5.610   4.609  0.00  0.00    -0.276 OA
ATOM     30  N   UNL     1      -6.808  -7.783   4.730  0.00  0.00    -0.329 N 
ATOM     31  H   UNL     1      -6.353  -8.556   4.360  0.00  0.00    +0.145 HD
ATOM     32  H   UNL     1      -7.363  -7.879   5.520  0.00  0.00    +0.145 HD
ENDBRANCH  27  28
ENDBRANCH  26  27
ENDBRANCH   5  26
TORSDOF 6
