REMARK  Name = ZINC20238776
REMARK  6 active torsions:
REMARK  status: ('A' for Active; 'I' for Inactive)
REMARK    1  A    between atoms: C_1  and  C_2
REMARK    2  A    between atoms: C_6  and  C_8
REMARK    3  A    between atoms: C_14  and  C_15
REMARK    4  A    between atoms: C_18  and  C_20
REMARK    5  A    between atoms: C_22  and  N_27
REMARK    6  A    between atoms: C_25  and  C_26
REMARK                            x       y       z     vdW  Elec       q    Type
REMARK                         _______ _______ _______ _____ _____    ______ ____
ROOT
ATOM      1  C   UNL     1      -1.648  -2.717   2.594  0.00  0.00    +0.130 C 
ATOM      2  N   UNL     1      -1.282  -3.970   2.716  0.00  0.00    -0.164 NA
ATOM      3  N   UNL     1      -0.943  -4.494   3.945  0.00  0.00    -0.152 N 
ATOM      4  C   UNL     1      -0.448  -5.796   4.178  0.00  0.00    +0.153 C 
ATOM      5  N   UNL     1       0.140  -6.516   3.258  0.00  0.00    -0.283 NA
ATOM      6  C   UNL     1      -0.662  -6.267   5.572  0.00  0.00    +0.084 C 
ATOM      7  C   UNL     1      -0.898  -7.603   5.863  0.00  0.00    +0.063 C 
ATOM      8  C   UNL     1      -0.610  -5.236   6.633  0.00  0.00    +0.273 C 
ATOM      9  O   UNL     1      -0.319  -5.531   7.782  0.00  0.00    -0.268 OA
ATOM     10  N   UNL     1      -0.892  -3.962   6.295  0.00  0.00    -0.152 NA
ATOM     11  C   UNL     1      -1.074  -3.659   5.035  0.00  0.00    +0.181 C 
ATOM     12  S   UNL     1      -1.550  -2.128   4.279  0.00  0.00    -0.033 S 
ATOM     13  H   UNL     1       0.254  -6.160   2.363  0.00  0.00    +0.188 HD
ENDROOT
BRANCH   1  19
ATOM     14  C   UNL     1      -3.135   1.509   0.394  0.00  0.00    +0.044 C 
ATOM     15  C   UNL     1      -2.752   0.054   0.310  0.00  0.00    -0.050 A 
ATOM     16  C   UNL     1      -2.762  -0.593  -0.913  0.00  0.00    +0.003 A 
ATOM     17  C   UNL     1      -2.411  -1.928  -0.999  0.00  0.00    +0.001 A 
ATOM     18  C   UNL     1      -2.048  -2.623   0.136  0.00  0.00    +0.010 A 
ATOM     19  C   UNL     1      -2.036  -1.977   1.372  0.00  0.00    +0.009 A 
ATOM     20  C   UNL     1      -2.385  -0.629   1.451  0.00  0.00    +0.014 A 
ENDBRANCH   1  19
BRANCH   7  21
ATOM     21  C   UNL     1      -1.120  -8.519   4.822  0.00  0.00    +0.129 A 
ATOM     22  C   UNL     1      -1.234  -9.895   4.960  0.00  0.00    +0.050 A 
ATOM     23  C   UNL     1      -1.449 -10.412   3.683  0.00  0.00    +0.050 A 
ATOM     24  C   UNL     1      -1.458  -9.343   2.812  0.00  0.00    +0.136 A 
ATOM     25  O   UNL     1      -1.265  -8.214   3.515  0.00  0.00    -0.455 OA
BRANCH  24  26
ATOM     26  C   UNL     1      -1.654  -9.425   1.351  0.00  0.00    +0.022 A 
ATOM     27  C   UNL     1      -0.905 -10.328   0.592  0.00  0.00    +0.044 A 
ATOM     28  C   UNL     1      -1.094 -10.399  -0.772  0.00  0.00    +0.127 A 
ATOM     29  C   UNL     1      -2.022  -9.579  -1.389  0.00  0.00    +0.033 A 
ATOM     30  C   UNL     1      -2.768  -8.682  -0.644  0.00  0.00    +0.006 A 
ATOM     31  C   UNL     1      -2.594  -8.604   0.722  0.00  0.00    -0.040 A 
ATOM     32  C   UNL     1      -3.411  -7.632   1.533  0.00  0.00    +0.044 C 
BRANCH  28  33
ATOM     33  N   UNL     1      -0.301 -11.354  -1.578  0.00  0.00    +0.056 N 
ATOM     34  O   UNL     1       0.510 -12.071  -1.041  0.00  0.00    -0.126 OA
ATOM     35  O   UNL     1      -0.466 -11.418  -2.774  0.00  0.00    -0.126 OA
ENDBRANCH  28  33
ENDBRANCH  24  26
ENDBRANCH   7  21
TORSDOF 4
