REMARK  Name = ZINC49168521
REMARK  7 active torsions:
REMARK  status: ('A' for Active; 'I' for Inactive)
REMARK    1  A    between atoms: C_1  and  C_2
REMARK    2  A    between atoms: C_3  and  C_7
REMARK    3  A    between atoms: C_9  and  C_10
REMARK    4  A    between atoms: C_9  and  C_12
REMARK    5  A    between atoms: C_12  and  C_14
REMARK    6  A    between atoms: C_21  and  C_23
REMARK    7  A    between atoms: C_23  and  C_24
REMARK                            x       y       z     vdW  Elec       q    Type
REMARK                         _______ _______ _______ _____ _____    ______ ____
ROOT
ATOM      1  C   UNL     1      -4.264   3.095  -0.398  0.00  0.00    +0.078 C 
ATOM      2  C   UNL     1      -5.686   3.308  -0.921  0.00  0.00    +0.014 C 
ATOM      3  C   UNL     1      -5.937   4.804  -1.126  0.00  0.00    +0.020 C 
ATOM      4  C   UNL     1      -5.802   5.529   0.216  0.00  0.00    +0.108 C 
ATOM      5  N   UNL     1      -4.490   5.212   0.796  0.00  0.00    -0.301 N 
ATOM      6  C   UNL     1      -4.109   3.801   0.953  0.00  0.00    +0.119 C 
ATOM      7  C   UNL     1      -3.651   6.195   1.175  0.00  0.00    +0.220 C 
ATOM      8  O   UNL     1      -2.570   5.920   1.652  0.00  0.00    -0.275 OA
ENDROOT
BRANCH   1   9
ATOM      9  C   UNL     1      -4.007   1.620  -0.227  0.00  0.00    +0.182 C 
ATOM     10  O   UNL     1      -4.936   0.858  -0.049  0.00  0.00    -0.291 OA
BRANCH   9  13
ATOM     11  C   UNL     1      -2.448  -0.244  -0.115  0.00  0.00    +0.210 C 
ATOM     12  O   UNL     1      -3.483  -1.103  -0.032  0.00  0.00    -0.286 OA
ATOM     13  C   UNL     1      -2.687   1.124  -0.274  0.00  0.00    +0.141 C 
BRANCH  11  16
ATOM     14  C   UNL     1      -1.161  -2.426  -1.968  0.00  0.00    +0.087 C 
ATOM     15  C   UNL     1      -0.490  -1.694  -0.835  0.00  0.00    +0.113 A 
ATOM     16  C   UNL     1      -1.071  -0.744  -0.039  0.00  0.00    +0.064 A 
ATOM     17  C   UNL     1      -0.025  -0.331   0.910  0.00  0.00    +0.053 A 
ATOM     18  C   UNL     1       1.061  -1.055   0.600  0.00  0.00    +0.196 A 
ATOM     19  O   UNL     1       0.773  -1.863  -0.433  0.00  0.00    -0.467 OA
ENDBRANCH  11  16
BRANCH  13  20
ATOM     20  C   UNL     1      -1.591   2.022  -0.483  0.00  0.00    +0.107 C 
ATOM     21  N   UNL     1      -0.722   2.735  -0.650  0.00  0.00    -0.191 NA
ENDBRANCH  13  20
ENDBRANCH   9  13
ENDBRANCH   1   9
BRANCH   7  22
ATOM     22  C   UNL     1      -4.055   7.637   1.008  0.00  0.00    +0.131 C 
BRANCH  22  23
ATOM     23  C   UNL     1      -2.948   8.530   1.505  0.00  0.00    -0.038 A 
ATOM     24  C   UNL     1      -2.923   8.927   2.829  0.00  0.00    +0.007 A 
ATOM     25  C   UNL     1      -1.908   9.745   3.287  0.00  0.00    +0.038 A 
ATOM     26  C   UNL     1      -0.916  10.169   2.419  0.00  0.00    +0.123 A 
ATOM     27  C   UNL     1      -0.942   9.771   1.093  0.00  0.00    +0.038 A 
ATOM     28  C   UNL     1      -1.955   8.948   0.639  0.00  0.00    +0.007 A 
ATOM     29  F   UNL     1       0.077  10.970   2.865  0.00  0.00    -0.205 F 
ENDBRANCH  22  23
ENDBRANCH   7  22
TORSDOF 6
