REMARK  Name = ZINC20602897
REMARK  7 active torsions:
REMARK  status: ('A' for Active; 'I' for Inactive)
REMARK    1  A    between atoms: C_1  and  C_2
REMARK    2  A    between atoms: C_2  and  O_3
REMARK    3  A    between atoms: O_3  and  C_4
REMARK    4  A    between atoms: C_9  and  N_10
REMARK    5  A    between atoms: C_13  and  C_23
REMARK    6  A    between atoms: C_15  and  C_17
REMARK    7  A    between atoms: N_20  and  C_22
REMARK                            x       y       z     vdW  Elec       q    Type
REMARK                         _______ _______ _______ _____ _____    ______ ____
ROOT
ATOM      1  N   UNL     1       2.363   3.886  -0.000  0.00  0.00    -0.270 N 
ATOM      2  C   UNL     1       2.941   4.245  -1.203  0.00  0.00    +0.154 A 
ATOM      3  C   UNL     1       4.150   4.965  -1.172  0.00  0.00    +0.091 A 
ATOM      4  C   UNL     1       4.760   5.343  -2.369  0.00  0.00    +0.035 A 
ATOM      5  C   UNL     1       4.148   4.992  -3.545  0.00  0.00    +0.040 A 
ATOM      6  C   UNL     1       2.949   4.276  -3.511  0.00  0.00    +0.094 A 
ATOM      7  N   UNL     1       2.387   3.927  -2.360  0.00  0.00    -0.227 NA
ATOM      8  C   UNL     1       4.732   5.298   0.139  0.00  0.00    +0.262 A 
ATOM      9  O   UNL     1       5.779   5.921   0.218  0.00  0.00    -0.267 OA
ATOM     10  N   UNL     1       4.086   4.900   1.244  0.00  0.00    -0.302 N 
ATOM     11  C   UNL     1       2.953   4.232   1.178  0.00  0.00    +0.167 A 
ATOM     12  S   UNL     1       2.170   3.755   2.682  0.00  0.00    -0.012 S 
ATOM     13  H   UNL     1       4.523   5.145   2.223  0.00  0.00    +0.171 HD
ENDROOT
BRANCH   1  19
ATOM     14  C   UNL     1      -0.059   3.846   0.023  0.00  0.00    +0.144 A 
ATOM     15  C   UNL     1      -1.246   3.131   0.031  0.00  0.00    +0.048 A 
ATOM     16  C   UNL     1      -1.220   1.749   0.017  0.00  0.00    +0.004 A 
ATOM     17  C   UNL     1      -0.013   1.076   0.008  0.00  0.00    +0.002 A 
ATOM     18  C   UNL     1       1.176   1.781   0.000  0.00  0.00    +0.030 A 
ATOM     19  C   UNL     1       1.159   3.168   0.008  0.00  0.00    +0.092 A 
BRANCH  14  20
ATOM     20  O   UNL     1      -0.082   5.205   0.031  0.00  0.00    -0.490 OA
BRANCH  20  22
ATOM     21  C   UNL     1      -1.191   7.352   0.054  0.00  0.00    +0.048 C 
ATOM     22  C   UNL     1      -1.366   5.832   0.047  0.00  0.00    +0.226 C 
ENDBRANCH  20  22
ENDBRANCH  14  20
ENDBRANCH   1  19
BRANCH   6  23
ATOM     23  C   UNL     1       2.291   3.899  -4.784  0.00  0.00    +0.111 A 
ATOM     24  C   UNL     1       1.085   3.182  -4.914  0.00  0.00    +0.051 A 
ATOM     25  C   UNL     1       0.826   3.043  -6.232  0.00  0.00    +0.108 A 
ATOM     26  N   UNL     1       1.821   3.644  -6.919  0.00  0.00    -0.274 N 
ATOM     27  N   UNL     1       2.728   4.180  -5.995  0.00  0.00    -0.170 NA
ATOM     28  C   UNL     1       1.931   3.726  -8.377  0.00  0.00    +0.172 C 
ENDBRANCH   6  23
BRANCH   4  29
ATOM     29  C   UNL     1       6.054   6.115  -2.370  0.00  0.00    +0.372 C 
ATOM     30  F   UNL     1       5.872   7.330  -1.699  0.00  0.00    -0.204 F 
ATOM     31  F   UNL     1       7.043   5.368  -1.722  0.00  0.00    -0.204 F 
ENDBRANCH   4  29
TORSDOF 5
