REMARK  Name = ZINC18746916
REMARK  12 active torsions:
REMARK  status: ('A' for Active; 'I' for Inactive)
REMARK    1  A    between atoms: C_1  and  C_2
REMARK    2  A    between atoms: C_2  and  N_3
REMARK    3  A    between atoms: C_7  and  S_31
REMARK    4  A    between atoms: C_11  and  C_12
REMARK    5  A    between atoms: C_12  and  O_13
REMARK    6  A    between atoms: O_13  and  C_14
REMARK    7  A    between atoms: C_14  and  C_16
REMARK    8  A    between atoms: C_16  and  C_17
REMARK    9  A    between atoms: C_28  and  C_30
REMARK   10  A    between atoms: S_31  and  N_34
REMARK   11  A    between atoms: N_34  and  C_35
REMARK   12  A    between atoms: N_34  and  C_36
REMARK                            x       y       z     vdW  Elec       q    Type
REMARK                         _______ _______ _______ _____ _____    ______ ____
ROOT
ATOM      1  C   UNL     1       0.565  -2.112  -0.956  0.00  0.00    +0.306 C 
ENDROOT
BRANCH   1  10
ATOM      2  N   UNL     1       0.644  -2.977  -3.347  0.00  0.00    -0.325 N 
ATOM      3  C   UNL     1       1.614  -3.457  -4.204  0.00  0.00    +0.069 A 
ATOM      4  C   UNL     1       1.605  -3.917  -5.514  0.00  0.00    +0.030 A 
ATOM      5  C   UNL     1       2.779  -4.345  -6.095  0.00  0.00    +0.030 A 
ATOM      6  C   UNL     1       3.968  -4.318  -5.381  0.00  0.00    +0.108 A 
ATOM      7  C   UNL     1       3.996  -3.868  -4.091  0.00  0.00    +0.058 A 
ATOM      8  C   UNL     1       2.818  -3.430  -3.481  0.00  0.00    +0.091 A 
ATOM      9  N   UNL     1       2.529  -2.940  -2.248  0.00  0.00    -0.229 NA
ATOM     10  C   UNL     1       1.258  -2.672  -2.171  0.00  0.00    +0.149 A 
BRANCH   6  11
ATOM     11  S   UNL     1       5.457  -4.869  -6.145  0.00  0.00    +0.060 S 
ATOM     12  O   UNL     1       6.333  -5.257  -5.095  0.00  0.00    -0.153 OA
ATOM     13  O   UNL     1       5.075  -5.757  -7.186  0.00  0.00    -0.153 OA
BRANCH  11  14
ATOM     14  N   UNL     1       6.149  -3.553  -6.876  0.00  0.00    -0.183 NA
ATOM     15  C   UNL     1       7.095  -2.716  -6.134  0.00  0.00    +0.131 C 
ATOM     16  C   UNL     1       5.814  -3.225  -8.264  0.00  0.00    +0.131 C 
ENDBRANCH  11  14
ENDBRANCH   6  11
BRANCH   2  18
ATOM     17  C   UNL     1      -1.030  -1.429  -4.229  0.00  0.00    +0.027 C 
ATOM     18  C   UNL     1      -0.781  -2.822  -3.648  0.00  0.00    +0.120 C 
ENDBRANCH   2  18
ENDBRANCH   1  10
BRANCH   1  19
ATOM     19  O   UNL     1       0.583  -0.662  -1.014  0.00  0.00    -0.457 OA
BRANCH  19  20
ATOM     20  C   UNL     1       0.002  -0.004   0.002  0.00  0.00    +0.310 C 
ATOM     21  O   UNL     1      -0.504  -0.620   0.910  0.00  0.00    -0.251 OA
BRANCH  20  22
ATOM     22  C   UNL     1      -0.018   1.503   0.010  0.00  0.00    +0.148 C 
BRANCH  22  23
ATOM     23  C   UNL     1      -0.735   1.996   1.269  0.00  0.00    +0.122 C 
ATOM     24  C   UNL     1      -0.653   3.501   1.339  0.00  0.00    -0.019 A 
ATOM     25  C   UNL     1       0.418   4.119   1.945  0.00  0.00    +0.006 A 
ATOM     26  C   UNL     1       0.485   5.502   1.987  0.00  0.00    +0.000 A 
ATOM     27  C   UNL     1      -0.519   6.268   1.421  0.00  0.00    +0.001 A 
ATOM     28  C   UNL     1      -1.601   5.660   0.816  0.00  0.00    +0.008 A 
ATOM     29  C   UNL     1      -1.677   4.268   0.779  0.00  0.00    -0.019 A 
ATOM     30  C   UNL     1      -2.843   3.592   0.177  0.00  0.00    +0.023 C 
ATOM     31  C   UNL     1      -3.031   2.287   0.403  0.00  0.00    +0.079 C 
ATOM     32  N   UNL     1      -2.145   1.594   1.221  0.00  0.00    -0.270 N 
ATOM     33  C   UNL     1      -2.578   0.559   1.968  0.00  0.00    +0.217 C 
ATOM     34  O   UNL     1      -1.802  -0.041   2.681  0.00  0.00    -0.276 OA
ATOM     35  C   UNL     1      -4.027   0.148   1.917  0.00  0.00    +0.109 C 
ENDBRANCH  22  23
ENDBRANCH  20  22
ENDBRANCH  19  20
ENDBRANCH   1  19
TORSDOF 8
