REMARK  Name = ZINC62962018
REMARK  3 active torsions:
REMARK  status: ('A' for Active; 'I' for Inactive)
REMARK    1  A    between atoms: C_3  and  N_13
REMARK    2  A    between atoms: C_5  and  N_7
REMARK    3  A    between atoms: N_13  and  C_14
REMARK                            x       y       z     vdW  Elec       q    Type
REMARK                         _______ _______ _______ _____ _____    ______ ____
ROOT
ATOM      1  C   UNL     1      -0.017   1.377   0.010  0.00  0.00    +0.004 A 
ATOM      2  C   UNL     1       1.169   2.087   0.002  0.00  0.00    +0.023 A 
ATOM      3  C   UNL     1       2.384   1.413  -0.014  0.00  0.00    +0.029 A 
ATOM      4  C   UNL     1       2.405   0.025  -0.021  0.00  0.00    +0.046 A 
ATOM      5  C   UNL     1       1.214  -0.684  -0.013  0.00  0.00    +0.041 A 
ATOM      6  C   UNL     1       0.002  -0.004   0.002  0.00  0.00    +0.024 A 
ENDROOT
BRANCH   5   7
ATOM      7  N   UNL     1       1.232  -2.083  -0.021  0.00  0.00    -0.234 N 
ATOM      8  C   UNL     1       0.050  -2.969  -0.021  0.00  0.00    +0.158 C 
ATOM      9  C   UNL     1       0.664  -4.333  -0.415  0.00  0.00    +0.253 C 
ATOM     10  O   UNL     1       2.037  -4.175  -0.006  0.00  0.00    -0.448 OA
ATOM     11  C   UNL     1       2.329  -2.863  -0.037  0.00  0.00    +0.407 C 
ATOM     12  O   UNL     1       3.463  -2.428  -0.073  0.00  0.00    -0.226 OA
ENDBRANCH   5   7
BRANCH   3  13
ATOM     13  N   UNL     1       3.581   2.132  -0.022  0.00  0.00    -0.339 N 
ATOM     14  H   UNL     1       4.429   1.661  -0.033  0.00  0.00    +0.146 HD
BRANCH  13  15
ATOM     15  C   UNL     1       3.557   3.596  -0.015  0.00  0.00    +0.093 C 
ATOM     16  C   UNL     1       3.450   4.098   1.435  0.00  0.00    +0.046 C 
ATOM     17  C   UNL     1       3.740   5.626   1.442  0.00  0.00    +0.168 C 
ATOM     18  S   UNL     1       5.139   5.708   0.245  0.00  0.00    -0.029 S 
ATOM     19  O   UNL     1       4.925   6.799  -0.640  0.00  0.00    -0.174 OA
ATOM     20  O   UNL     1       6.364   5.616   0.959  0.00  0.00    -0.174 OA
ATOM     21  C   UNL     1       4.855   4.135  -0.663  0.00  0.00    +0.188 C 
ENDBRANCH  13  15
ENDBRANCH   3  13
TORSDOF 3
