REMARK  Name = ZINC03342077
REMARK  9 active torsions:
REMARK  status: ('A' for Active; 'I' for Inactive)
REMARK    1  A    between atoms: C_1  and  C_2
REMARK    2  A    between atoms: C_2  and  C_4
REMARK    3  A    between atoms: C_2  and  O_16
REMARK    4  A    between atoms: N_6  and  C_7
REMARK    5  A    between atoms: O_16  and  N_17
REMARK    6  A    between atoms: C_20  and  S_26
REMARK    7  A    between atoms: S_26  and  N_29
REMARK    8  A    between atoms: N_29  and  C_30
REMARK    9  A    between atoms: N_29  and  C_31
REMARK                            x       y       z     vdW  Elec       q    Type
REMARK                         _______ _______ _______ _____ _____    ______ ____
ROOT
ATOM      1  O   UNL     1      -1.149   2.790  -1.640  0.00  0.00    -0.380 OA
ENDROOT
BRANCH   1   2
ATOM      2  N   UNL     1      -0.002   2.864  -2.467  0.00  0.00    -0.076 N 
ATOM      3  C   UNL     1       0.271   3.825  -3.411  0.00  0.00    +0.132 A 
ATOM      4  C   UNL     1      -0.395   4.965  -3.850  0.00  0.00    +0.061 A 
ATOM      5  C   UNL     1       0.160   5.741  -4.829  0.00  0.00    +0.108 A 
ATOM      6  C   UNL     1       1.386   5.404  -5.387  0.00  0.00    +0.031 A 
ATOM      7  C   UNL     1       2.061   4.295  -4.971  0.00  0.00    +0.034 A 
ATOM      8  C   UNL     1       1.515   3.483  -3.968  0.00  0.00    +0.116 A 
ATOM      9  N   UNL     1       1.936   2.353  -3.365  0.00  0.00    -0.127 NA
ATOM     10  N   UNL     1       1.077   1.968  -2.488  0.00  0.00    -0.029 NA
BRANCH   5  11
ATOM     11  S   UNL     1      -0.689   7.181  -5.387  0.00  0.00    +0.060 S 
ATOM     12  O   UNL     1      -1.551   7.580  -4.330  0.00  0.00    -0.153 OA
ATOM     13  O   UNL     1       0.296   8.046  -5.934  0.00  0.00    -0.153 OA
BRANCH  11  14
ATOM     14  N   UNL     1      -1.663   6.718  -6.644  0.00  0.00    -0.183 NA
ATOM     15  C   UNL     1      -3.035   6.276  -6.382  0.00  0.00    +0.131 C 
ATOM     16  C   UNL     1      -1.153   6.751  -8.017  0.00  0.00    +0.131 C 
ENDBRANCH  11  14
ENDBRANCH   5  11
ENDBRANCH   1   2
BRANCH   1  18
ATOM     17  C   UNL     1      -1.831   0.480  -1.443  0.00  0.00    +0.065 C 
ATOM     18  C   UNL     1      -1.155   1.668  -0.755  0.00  0.00    +0.287 C 
BRANCH  18  19
ATOM     19  C   UNL     1      -1.915   2.021   0.498  0.00  0.00    +0.260 C 
ATOM     20  O   UNL     1      -2.479   3.091   0.584  0.00  0.00    -0.271 OA
ATOM     21  N   UNL     1      -1.967   1.147   1.523  0.00  0.00    -0.280 N 
ATOM     22  H   UNL     1      -1.578   0.263   1.427  0.00  0.00    +0.155 HD
BRANCH  21  23
ATOM     23  C   UNL     1      -2.583   1.514   2.726  0.00  0.00    +0.071 A 
ATOM     24  C   UNL     1      -1.843   2.132   3.726  0.00  0.00    +0.065 A 
ATOM     25  C   UNL     1      -2.455   2.498   4.911  0.00  0.00    +0.042 A 
ATOM     26  C   UNL     1      -3.800   2.240   5.105  0.00  0.00    +0.044 A 
ATOM     27  C   UNL     1      -4.539   1.621   4.112  0.00  0.00    +0.042 A 
ATOM     28  C   UNL     1      -3.934   1.257   2.924  0.00  0.00    +0.065 A 
ATOM     29 CL   UNL     1      -4.861   0.479   1.679  0.00  0.00    -0.082 Cl
ATOM     30 CL   UNL     1      -4.563   2.695   6.596  0.00  0.00    -0.083 Cl
ATOM     31 CL   UNL     1      -0.153   2.451   3.487  0.00  0.00    -0.082 Cl
ENDBRANCH  21  23
ENDBRANCH  18  19
ENDBRANCH   1  18
TORSDOF 6
