REMARK  Name = ZINC38049149
REMARK  4 active torsions:
REMARK  status: ('A' for Active; 'I' for Inactive)
REMARK    1  A    between atoms: C_6  and  C_7
REMARK    2  A    between atoms: C_8  and  C_9
REMARK    3  A    between atoms: N_11  and  C_12
REMARK    4  A    between atoms: C_18  and  N_20
REMARK                            x       y       z     vdW  Elec       q    Type
REMARK                         _______ _______ _______ _____ _____    ______ ____
ROOT
ATOM      1  C   UNL     1      -2.494  -2.861   0.011  0.00  0.00    +0.237 C 
ATOM      2  O   UNL     1      -3.558  -2.270   0.025  0.00  0.00    -0.271 OA
ATOM      3  N   UNL     1      -2.472  -4.209   0.004  0.00  0.00    -0.311 N 
ATOM      4  H   UNL     1      -1.624  -4.680  -0.007  0.00  0.00    +0.149 HD
ENDROOT
BRANCH   3   5
ATOM      5  C   UNL     1      -3.728  -4.962   0.013  0.00  0.00    +0.059 C 
ATOM      6  C   UNL     1      -4.245  -5.109  -1.420  0.00  0.00    +0.020 C 
ATOM      7  C   UNL     1      -5.557  -5.895  -1.411  0.00  0.00    +0.002 C 
ATOM      8  C   UNL     1      -5.316  -7.282  -0.812  0.00  0.00    -0.001 C 
ATOM      9  C   UNL     1      -4.800  -7.135   0.621  0.00  0.00    -0.014 C 
ATOM     10  C   UNL     1      -3.488  -6.349   0.612  0.00  0.00    -0.055 C 
BRANCH  10  11
ATOM     11  N   UNL     1      -2.992  -6.208   1.988  0.00  0.00    +0.381 N 
ATOM     12  H   UNL     1      -3.676  -5.715   2.543  0.00  0.00    -0.090 HD
ATOM     13  H   UNL     1      -2.833  -7.123   2.384  0.00  0.00    -0.090 HD
ATOM     14  H   UNL     1      -2.127  -5.689   1.982  0.00  0.00    -0.090 HD
ENDBRANCH  10  11
ENDBRANCH   3   5
BRANCH   1  16
ATOM     15  C   UNL     1      -1.260  -0.761   0.011  0.00  0.00    +0.013 C 
ATOM     16  C   UNL     1      -1.238  -2.109   0.003  0.00  0.00    +0.068 C 
BRANCH  15  22
ATOM     17  C   UNL     1      -0.017   1.395   0.010  0.00  0.00    +0.009 A 
ATOM     18  C   UNL     1       1.169   2.096   0.002  0.00  0.00    +0.020 A 
ATOM     19  C   UNL     1       2.378   1.420  -0.013  0.00  0.00    +0.041 A 
ATOM     20  C   UNL     1       2.405   0.035  -0.021  0.00  0.00    +0.020 A 
ATOM     21  C   UNL     1       1.226  -0.680  -0.014  0.00  0.00    +0.009 A 
ATOM     22  C   UNL     1       0.002  -0.004   0.002  0.00  0.00    -0.025 A 
ATOM     23 CL   UNL     1       3.867   2.312  -0.023  0.00  0.00    -0.084 Cl
ENDBRANCH  15  22
ENDBRANCH   1  16
TORSDOF 4
