REMARK  Name = ZINC20264237
REMARK  7 active torsions:
REMARK  status: ('A' for Active; 'I' for Inactive)
REMARK    1  A    between atoms: C_1  and  C_2
REMARK    2  A    between atoms: C_2  and  C_27
REMARK    3  A    between atoms: C_6  and  N_18
REMARK    4  A    between atoms: C_10  and  N_17
REMARK    5  A    between atoms: C_11  and  C_13
REMARK    6  A    between atoms: N_15  and  N_16
REMARK    7  A    between atoms: N_25  and  C_26
REMARK                            x       y       z     vdW  Elec       q    Type
REMARK                         _______ _______ _______ _____ _____    ______ ____
ROOT
ATOM      1  C   UNL     1       1.364   1.616  -0.691  0.00  0.00    +0.028 C 
ATOM      2  C   UNL     1       0.773   2.222   0.584  0.00  0.00    +0.020 C 
ATOM      3  C   UNL     1       1.644   1.847   1.784  0.00  0.00    +0.058 C 
ATOM      4  C   UNL     1       1.504   0.377   2.079  0.00  0.00    -0.027 A 
ATOM      5  C   UNL     1       0.485  -0.369   1.585  0.00  0.00    +0.009 A 
ATOM      6  C   UNL     1       0.397  -1.731   1.903  0.00  0.00    +0.104 A 
ATOM      7  N   UNL     1       1.303  -2.301   2.681  0.00  0.00    -0.337 N 
ATOM      8  C   UNL     1       2.308  -1.611   3.175  0.00  0.00    +0.089 A 
ATOM      9  C   UNL     1       2.481  -0.235   2.912  0.00  0.00    +0.031 A 
ATOM     10  C   UNL     1       3.645   0.372   3.536  0.00  0.00    +0.054 A 
ATOM     11  C   UNL     1       4.460  -0.423   4.312  0.00  0.00    +0.098 A 
ATOM     12  S   UNL     1       3.680  -2.023   4.225  0.00  0.00    -0.064 S 
ATOM     13  C   UNL     1      -0.574   0.225   0.692  0.00  0.00    +0.123 C 
ATOM     14  N   UNL     1      -0.580   1.687   0.805  0.00  0.00    -0.296 NA
ATOM     15  C   UNL     1      -1.542   2.284  -0.131  0.00  0.00    +0.105 C 
ATOM     16  C   UNL     1       0.710   3.745   0.449  0.00  0.00    +0.028 C 
ATOM     17  H   UNL     1       1.223  -3.371   2.925  0.00  0.00    +0.168 HD
ENDROOT
BRANCH   6  18
ATOM     18  N   UNL     1      -0.649  -2.489   1.398  0.00  0.00    -0.312 N 
ATOM     19  C   UNL     1      -1.476  -3.036   2.484  0.00  0.00    +0.134 C 
ATOM     20  C   UNL     1      -2.650  -3.813   1.882  0.00  0.00    +0.178 C 
ATOM     21  O   UNL     1      -2.146  -4.835   1.018  0.00  0.00    -0.377 OA
ATOM     22  C   UNL     1      -1.337  -4.338  -0.051  0.00  0.00    +0.178 C 
ATOM     23  C   UNL     1      -0.149  -3.566   0.531  0.00  0.00    +0.134 C 
ENDBRANCH   6  18
BRANCH  11  24
ATOM     24  C   UNL     1       5.635  -0.057   5.012  0.00  0.00    +0.266 C 
ATOM     25  O   UNL     1       6.038   1.092   4.967  0.00  0.00    -0.268 OA
ATOM     26  N   UNL     1       6.309  -0.979   5.727  0.00  0.00    -0.249 N 
ATOM     27  H   UNL     1       5.946  -2.017   5.767  0.00  0.00    +0.169 HD
BRANCH  26  28
ATOM     28  N   UNL     1       7.443  -0.626   6.401  0.00  0.00    -0.254 NA
ATOM     29  H   UNL     1       7.849  -1.506   6.922  0.00  0.00    +0.140 HD
ATOM     30  H   UNL     1       8.190  -0.244   5.689  0.00  0.00    +0.140 HD
ENDBRANCH  26  28
ENDBRANCH  11  24
BRANCH  10  31
ATOM     31  N   UNL     1       3.928   1.719   3.355  0.00  0.00    -0.356 N 
ATOM     32  H   UNL     1       4.812   2.164   3.834  0.00  0.00    +0.142 HD
ATOM     33  H   UNL     1       3.267   2.341   2.733  0.00  0.00    +0.142 HD
ENDBRANCH  10  31
TORSDOF 4
