REMARK  Name = ZINC05032305
REMARK  8 active torsions:
REMARK  status: ('A' for Active; 'I' for Inactive)
REMARK    1  A    between atoms: C_1  and  C_2
REMARK    2  A    between atoms: C_7  and  N_8
REMARK    3  A    between atoms: C_9  and  C_13
REMARK    4  A    between atoms: C_13  and  C_15
REMARK    5  A    between atoms: C_13  and  N_48
REMARK    6  A    between atoms: C_21  and  N_48
REMARK    7  A    between atoms: C_22  and  C_23
REMARK    8  A    between atoms: C_22  and  N_48
REMARK                            x       y       z     vdW  Elec       q    Type
REMARK                         _______ _______ _______ _____ _____    ______ ____
ROOT
ATOM      1  C   UNL     1       1.283   3.553   0.325  0.00  0.00    +0.034 C 
ENDROOT
BRANCH   1   2
ATOM      2  C   UNL     1       1.324   2.150   0.873  0.00  0.00    -0.054 A 
ATOM      3  C   UNL     1       2.402   1.734   1.631  0.00  0.00    +0.002 A 
ATOM      4  C   UNL     1       2.439   0.447   2.133  0.00  0.00    +0.000 A 
ATOM      5  C   UNL     1       1.397  -0.425   1.878  0.00  0.00    +0.000 A 
ATOM      6  C   UNL     1       0.318  -0.009   1.119  0.00  0.00    +0.000 A 
ATOM      7  C   UNL     1       0.281   1.278   0.617  0.00  0.00    +0.002 A 
ENDBRANCH   1   2
BRANCH   1   9
ATOM      8  N   UNL     1       0.642   5.283   2.088  0.00  0.00    -0.198 N 
ATOM      9  C   UNL     1       1.558   4.534   1.436  0.00  0.00    +0.148 A 
ATOM     10  N   UNL     1       2.726   4.813   1.952  0.00  0.00    -0.114 NA
ATOM     11  N   UNL     1       2.613   5.695   2.879  0.00  0.00    -0.023 NA
ATOM     12  N   UNL     1       1.376   6.030   3.026  0.00  0.00    -0.039 NA
BRANCH   8  19
ATOM     13  C   UNL     1      -1.073   4.914   4.329  0.00  0.00    +0.046 C 
ATOM     14  C   UNL     1      -1.615   5.135   2.940  0.00  0.00    -0.025 A 
ATOM     15  C   UNL     1      -2.980   5.167   2.728  0.00  0.00    +0.005 A 
ATOM     16  C   UNL     1      -3.478   5.363   1.453  0.00  0.00    +0.000 A 
ATOM     17  C   UNL     1      -2.612   5.533   0.388  0.00  0.00    +0.002 A 
ATOM     18  C   UNL     1      -1.246   5.507   0.595  0.00  0.00    +0.028 A 
ATOM     19  C   UNL     1      -0.744   5.310   1.874  0.00  0.00    +0.072 A 
ENDBRANCH   8  19
ENDBRANCH   1   9
BRANCH   1  21
ATOM     20  C   UNL     1       3.605   3.197  -0.262  0.00  0.00    -0.094 C 
ATOM     21  N   UNL     1       2.307   3.728  -0.727  0.00  0.00    +0.390 N 
ATOM     22  H   UNL     1       2.409   4.730  -0.929  0.00  0.00    -0.080 HD
BRANCH  21  23
ATOM     23  C   UNL     1       1.888   3.030  -1.960  0.00  0.00    -0.035 C 
BRANCH  23  24
ATOM     24  C   UNL     1       2.831   3.404  -3.075  0.00  0.00    -0.027 A 
ATOM     25  C   UNL     1       3.976   2.793  -3.466  0.00  0.00    +0.009 A 
ATOM     26  C   UNL     1       4.687   3.318  -4.528  0.00  0.00    +0.008 A 
ATOM     27  C   UNL     1       4.220   4.429  -5.147  0.00  0.00    +0.045 A 
ATOM     28  S   UNL     1       2.726   4.763  -4.228  0.00  0.00    -0.103 S 
ENDBRANCH  23  24
ENDBRANCH  21  23
ENDBRANCH   1  21
TORSDOF 6
