REMARK  Name = ZINC11879876
REMARK  8 active torsions:
REMARK  status: ('A' for Active; 'I' for Inactive)
REMARK    1  A    between atoms: C_1  and  C_2
REMARK    2  A    between atoms: C_3  and  C_9
REMARK    3  A    between atoms: C_4  and  C_8
REMARK    4  A    between atoms: N_5  and  C_7
REMARK    5  A    between atoms: C_9  and  N_10
REMARK    6  A    between atoms: N_10  and  C_11
REMARK    7  A    between atoms: C_14  and  C_16
REMARK    8  A    between atoms: C_23  and  C_25
REMARK                            x       y       z     vdW  Elec       q    Type
REMARK                         _______ _______ _______ _____ _____    ______ ____
ROOT
ATOM      1  N   UNL     1      -5.487   6.491   8.441  0.00  0.00    -0.290 N 
ATOM      2  C   UNL     1      -4.290   7.096   8.304  0.00  0.00    +0.247 C 
ATOM      3  O   UNL     1      -3.937   7.934   9.111  0.00  0.00    -0.270 OA
ENDROOT
BRANCH   2   4
ATOM      4  C   UNL     1      -3.409   6.741   7.174  0.00  0.00    +0.041 A 
ATOM      5  C   UNL     1      -3.354   5.417   6.720  0.00  0.00    +0.015 A 
ATOM      6  C   UNL     1      -2.544   5.078   5.678  0.00  0.00    +0.032 A 
ATOM      7  C   UNL     1      -1.760   6.054   5.054  0.00  0.00    +0.110 A 
ATOM      8  C   UNL     1      -1.809   7.385   5.505  0.00  0.00    +0.156 A 
ATOM      9  C   UNL     1      -2.632   7.724   6.562  0.00  0.00    +0.061 A 
ATOM     10  O   UNL     1      -0.957   8.081   4.719  0.00  0.00    -0.439 OA
ATOM     11  C   UNL     1      -0.414   7.229   3.836  0.00  0.00    +0.200 A 
ATOM     12  N   UNL     1      -0.882   6.030   4.018  0.00  0.00    -0.213 NA
BRANCH  11  13
ATOM     13  C   UNL     1       0.591   7.610   2.779  0.00  0.00    +0.075 C 
ATOM     14  C   UNL     1       1.882   6.819   2.994  0.00  0.00    +0.013 C 
ATOM     15  C   UNL     1       2.902   7.205   1.921  0.00  0.00    +0.001 C 
ATOM     16  C   UNL     1       2.332   6.886   0.537  0.00  0.00    +0.000 C 
ATOM     17  C   UNL     1       1.041   7.678   0.322  0.00  0.00    +0.001 C 
ATOM     18  C   UNL     1       0.021   7.291   1.395  0.00  0.00    +0.013 C 
ENDBRANCH  11  13
ENDBRANCH   2   4
BRANCH   1  19
ATOM     19  C   UNL     1      -6.443   6.977   9.439  0.00  0.00    +0.077 C 
ATOM     20  C   UNL     1      -6.171   8.342  10.072  0.00  0.00    +0.024 C 
ATOM     21  C   UNL     1      -5.966   7.065  10.890  0.00  0.00    +0.024 C 
ENDBRANCH   1  19
BRANCH   1  22
ATOM     22  C   UNL     1      -5.832   5.349   7.591  0.00  0.00    +0.147 C 
BRANCH  22  25
ATOM     23  C   UNL     1      -3.845   3.095   6.583  0.00  0.00    +0.068 C 
ATOM     24  C   UNL     1      -4.628   3.073   7.870  0.00  0.00    +0.065 A 
ATOM     25  C   UNL     1      -5.505   4.068   8.314  0.00  0.00    +0.013 A 
ATOM     26  C   UNL     1      -6.012   3.675   9.505  0.00  0.00    +0.041 A 
ATOM     27  N   UNL     1      -5.471   2.476   9.807  0.00  0.00    -0.271 N 
ATOM     28  N   UNL     1      -4.602   2.121   8.767  0.00  0.00    -0.176 NA
ATOM     29  C   UNL     1      -5.744   1.685  11.010  0.00  0.00    +0.172 C 
ATOM     30  C   UNL     1      -7.003   4.438  10.345  0.00  0.00    +0.065 C 
ENDBRANCH  22  25
ENDBRANCH   1  22
TORSDOF 5
