REMARK  Name = ZINC31776249
REMARK  8 active torsions:
REMARK  status: ('A' for Active; 'I' for Inactive)
REMARK    1  A    between atoms: C_1  and  C_2
REMARK    2  A    between atoms: C_2  and  O_3
REMARK    3  A    between atoms: O_3  and  C_4
REMARK    4  A    between atoms: C_4  and  C_6
REMARK    5  A    between atoms: C_7  and  C_25
REMARK    6  A    between atoms: N_9  and  C_13
REMARK    7  A    between atoms: C_10  and  N_12
REMARK    8  A    between atoms: C_16  and  C_20
REMARK                            x       y       z     vdW  Elec       q    Type
REMARK                         _______ _______ _______ _____ _____    ______ ____
ROOT
ATOM      1  C   UNL     1      -3.625   4.403   6.538  0.00  0.00    +0.099 C 
ATOM      2  C   UNL     1      -3.847   3.073   6.542  0.00  0.00    +0.138 C 
ATOM      3  N   UNL     1      -3.305   2.470   5.454  0.00  0.00    -0.258 N 
ATOM      4  N   UNL     1      -2.657   3.404   4.634  0.00  0.00    -0.229 N 
ATOM      5  C   UNL     1      -2.830   4.712   5.287  0.00  0.00    +0.198 C 
ATOM      6  H   UNL     1      -3.320   1.407   5.171  0.00  0.00    +0.170 HD
ENDROOT
BRANCH   4   7
ATOM      7  C   UNL     1      -1.987   3.146   3.434  0.00  0.00    +0.086 A 
ATOM      8  C   UNL     1      -0.629   2.849   3.445  0.00  0.00    +0.065 A 
ATOM      9  C   UNL     1       0.030   2.595   2.257  0.00  0.00    +0.034 A 
ATOM     10  C   UNL     1      -0.659   2.637   1.059  0.00  0.00    +0.058 A 
ATOM     11  C   UNL     1      -2.009   2.937   1.044  0.00  0.00    +0.034 A 
ATOM     12  C   UNL     1      -2.676   3.186   2.228  0.00  0.00    +0.065 A 
ATOM     13 CL   UNL     1      -4.372   3.557   2.209  0.00  0.00    -0.082 Cl
ATOM     14 CL   UNL     1       0.237   2.796   4.948  0.00  0.00    -0.082 Cl
BRANCH  10  15
ATOM     15  C   UNL     1       0.063   2.360  -0.234  0.00  0.00    +0.418 C 
ATOM     16  F   UNL     1       0.006   0.992  -0.517  0.00  0.00    -0.166 F 
ATOM     17  F   UNL     1       1.400   2.756  -0.116  0.00  0.00    -0.166 F 
ATOM     18  F   UNL     1      -0.545   3.077  -1.271  0.00  0.00    -0.166 F 
ENDBRANCH  10  15
ENDBRANCH   4   7
BRANCH   2  19
ATOM     19  C   UNL     1      -4.608   2.346   7.621  0.00  0.00    +0.432 C 
ATOM     20  F   UNL     1      -5.966   2.670   7.532  0.00  0.00    -0.165 F 
ATOM     21  F   UNL     1      -4.446   0.966   7.457  0.00  0.00    -0.165 F 
ATOM     22  F   UNL     1      -4.119   2.727   8.875  0.00  0.00    -0.165 F 
ENDBRANCH   2  19
BRANCH   5  23
ATOM     23  N   UNL     1      -3.579   5.627   4.416  0.00  0.00    -0.307 NA
ATOM     24  H   UNL     1      -2.987   5.840   3.513  0.00  0.00    +0.120 HD
ATOM     25  H   UNL     1      -4.532   5.160   4.127  0.00  0.00    +0.120 HD
ENDBRANCH   5  23
BRANCH   1  26
ATOM     26  C   UNL     1      -4.052   5.330   7.513  0.00  0.00    +0.340 C 
ATOM     27  O   UNL     1      -4.687   4.948   8.479  0.00  0.00    -0.245 OA
BRANCH  26  28
ATOM     28  O   UNL     1      -3.756   6.639   7.375  0.00  0.00    -0.462 OA
BRANCH  28  30
ATOM     29  C   UNL     1      -3.792   8.953   8.073  0.00  0.00    +0.048 C 
ATOM     30  C   UNL     1      -4.220   7.521   8.400  0.00  0.00    +0.229 C 
ENDBRANCH  28  30
ENDBRANCH  26  28
ENDBRANCH   1  26
TORSDOF 7
