REMARK  Name = ZINC02336636
REMARK  9 active torsions:
REMARK  status: ('A' for Active; 'I' for Inactive)
REMARK    1  A    between atoms: C_1  and  C_2
REMARK    2  A    between atoms: C_10  and  C_18
REMARK    3  A    between atoms: C_21  and  O_24
REMARK    4  A    between atoms: O_24  and  C_25
REMARK    5  A    between atoms: C_26  and  C_29
REMARK    6  A    between atoms: C_33  and  O_37
REMARK    7  A    between atoms: C_34  and  O_35
REMARK    8  A    between atoms: O_35  and  C_36
REMARK    9  A    between atoms: O_37  and  C_38
REMARK                            x       y       z     vdW  Elec       q    Type
REMARK                         _______ _______ _______ _____ _____    ______ ____
ROOT
ATOM      1  C   UNL     1      -0.072   1.750   2.070  0.00  0.00    +0.044 C 
ATOM      2  C   UNL     1      -0.033   0.333   1.559  0.00  0.00    -0.050 A 
ATOM      3  C   UNL     1      -0.035   0.090   0.197  0.00  0.00    +0.007 A 
ATOM      4  C   UNL     1       0.001  -1.205  -0.287  0.00  0.00    +0.046 A 
ATOM      5  C   UNL     1       0.040  -2.269   0.597  0.00  0.00    +0.131 A 
ATOM      6  C   UNL     1       0.043  -2.024   1.976  0.00  0.00    +0.043 A 
ATOM      7  C   UNL     1       0.011  -0.721   2.453  0.00  0.00    +0.017 A 
ATOM      8  C   UNL     1       0.090  -3.187   2.898  0.00  0.00    +0.083 C 
ATOM      9  C   UNL     1       0.451  -4.378   2.378  0.00  0.00    +0.027 C 
ATOM     10  C   UNL     1       0.495  -5.574   3.302  0.00  0.00    +0.159 C 
ATOM     11  N   UNL     1       0.136  -5.318   4.702  0.00  0.00    -0.208 N 
ATOM     12  C   UNL     1      -0.208  -4.035   5.079  0.00  0.00    +0.237 C 
ATOM     13  N   UNL     1      -0.220  -3.051   4.210  0.00  0.00    -0.213 NA
ATOM     14  N   UNL     1      -0.489  -4.076   6.401  0.00  0.00    -0.205 NA
ATOM     15  C   UNL     1      -0.343  -5.288   6.859  0.00  0.00    +0.203 C 
ATOM     16  N   UNL     1       0.045  -6.113   5.847  0.00  0.00    -0.251 N 
ATOM     17  C   UNL     1       0.805  -4.502   0.925  0.00  0.00    +0.238 C 
ATOM     18  O   UNL     1       0.073  -3.551   0.150  0.00  0.00    -0.479 OA
ATOM     19  H   UNL     1       0.224  -7.064   5.909  0.00  0.00    +0.171 HD
ENDROOT
BRANCH  10  20
ATOM     20  C   UNL     1       1.893  -6.138   3.276  0.00  0.00    -0.021 A 
ATOM     21  C   UNL     1       2.933  -5.433   3.854  0.00  0.00    +0.009 A 
ATOM     22  C   UNL     1       4.214  -5.948   3.830  0.00  0.00    +0.046 A 
ATOM     23  C   UNL     1       4.458  -7.173   3.226  0.00  0.00    +0.120 A 
ATOM     24  C   UNL     1       3.413  -7.878   2.647  0.00  0.00    +0.046 A 
ATOM     25  C   UNL     1       2.132  -7.362   2.678  0.00  0.00    +0.009 A 
BRANCH  23  26
ATOM     26  O   UNL     1       5.718  -7.681   3.201  0.00  0.00    -0.495 OA
ATOM     27  C   UNL     1       5.895  -8.947   2.563  0.00  0.00    +0.277 C 
ENDBRANCH  23  26
ENDBRANCH  10  20
BRANCH  17  28
ATOM     28  C   UNL     1       2.281  -4.252   0.748  0.00  0.00    +0.042 A 
ATOM     29  C   UNL     1       2.794  -2.981   0.935  0.00  0.00    +0.011 A 
ATOM     30  C   UNL     1       4.147  -2.748   0.774  0.00  0.00    +0.004 A 
ATOM     31  C   UNL     1       4.993  -3.785   0.425  0.00  0.00    +0.049 A 
ATOM     32  C   UNL     1       4.486  -5.060   0.236  0.00  0.00    +0.162 A 
ATOM     33  C   UNL     1       3.124  -5.296   0.405  0.00  0.00    +0.168 A 
BRANCH  33  34
ATOM     34  O   UNL     1       2.622  -6.547   0.226  0.00  0.00    -0.491 OA
ATOM     35  C   UNL     1       2.295  -6.929  -1.111  0.00  0.00    +0.277 C 
ENDBRANCH  33  34
BRANCH  32  36
ATOM     36  O   UNL     1       5.317  -6.080  -0.107  0.00  0.00    -0.491 OA
ATOM     37  C   UNL     1       6.703  -5.766  -0.257  0.00  0.00    +0.277 C 
ENDBRANCH  32  36
ENDBRANCH  17  28
TORSDOF 5
