REMARK  Name = ZINC27587941
REMARK  10 active torsions:
REMARK  status: ('A' for Active; 'I' for Inactive)
REMARK    1  A    between atoms: C_1  and  C_2
REMARK    2  A    between atoms: C_4  and  O_23
REMARK    3  A    between atoms: C_5  and  S_9
REMARK    4  A    between atoms: S_9  and  N_12
REMARK    5  A    between atoms: N_12  and  C_13
REMARK    6  A    between atoms: C_15  and  C_21
REMARK    7  A    between atoms: C_15  and  C_22
REMARK    8  A    between atoms: C_17  and  C_19
REMARK    9  A    between atoms: C_17  and  C_20
REMARK   10  A    between atoms: O_23  and  C_24
REMARK                            x       y       z     vdW  Elec       q    Type
REMARK                         _______ _______ _______ _____ _____    ______ ____
ROOT
ATOM      1  N   UNL     1       0.974   3.001  -3.370  0.00  0.00    -0.187 NA
ATOM      2  H   UNL     1       1.621   2.435  -4.056  0.00  0.00    +0.148 HD
ENDROOT
BRANCH   1   3
ATOM      3  C   UNL     1       0.675   2.469  -2.035  0.00  0.00    +0.074 C 
ATOM      4  C   UNL     1       1.817   1.556  -1.589  0.00  0.00    +0.007 C 
ATOM      5  C   UNL     1       1.523   0.971  -0.210  0.00  0.00    -0.072 C 
ATOM      6  N   UNL     1       0.198   0.394  -0.113  0.00  0.00    +0.386 N 
ATOM      7  C   UNL     1      -0.933   1.056  -0.726  0.00  0.00    -0.072 C 
ATOM      8  C   UNL     1      -0.610   1.643  -2.098  0.00  0.00    +0.007 C 
ATOM      9  C   UNL     1      -2.057   0.013  -0.919  0.00  0.00    -0.010 C 
ATOM     10  C   UNL     1      -1.490   2.158   0.184  0.00  0.00    -0.010 C 
ATOM     11  C   UNL     1       1.738   2.048   0.860  0.00  0.00    -0.010 C 
ATOM     12  C   UNL     1       2.557  -0.147   0.051  0.00  0.00    -0.010 C 
ATOM     13  H   UNL     1       0.199  -0.606  -0.573  0.00  0.00    -0.084 HD
ATOM     14  H   UNL     1      -0.088   0.310   0.946  0.00  0.00    -0.084 HD
ENDBRANCH   1   3
BRANCH   1  15
ATOM     15  S   UNL     1       0.548   4.554  -3.756  0.00  0.00    +0.062 S 
ATOM     16  O   UNL     1       1.019   5.379  -2.700  0.00  0.00    -0.153 OA
ATOM     17  O   UNL     1       0.933   4.756  -5.109  0.00  0.00    -0.153 OA
BRANCH  15  22
ATOM     18  C   UNL     1      -5.481   4.845  -3.614  0.00  0.00    +0.045 C 
ATOM     19  C   UNL     1      -3.976   4.770  -3.651  0.00  0.00    -0.033 A 
ATOM     20  C   UNL     1      -3.347   3.984  -4.598  0.00  0.00    +0.052 A 
ATOM     21  C   UNL     1      -1.962   3.920  -4.635  0.00  0.00    +0.147 A 
ATOM     22  C   UNL     1      -1.211   4.637  -3.715  0.00  0.00    +0.148 A 
ATOM     23  C   UNL     1      -1.844   5.422  -2.771  0.00  0.00    +0.047 A 
ATOM     24  C   UNL     1      -3.226   5.489  -2.739  0.00  0.00    +0.023 A 
ATOM     25 BR   UNL     1      -4.089   6.564  -1.445  0.00  0.00    -0.050 Br
BRANCH  21  26
ATOM     26  O   UNL     1      -1.341   3.152  -5.569  0.00  0.00    -0.493 OA
ATOM     27  C   UNL     1      -2.171   2.525  -6.549  0.00  0.00    +0.277 C 
ENDBRANCH  21  26
ENDBRANCH  15  22
ENDBRANCH   1  15
TORSDOF 4
