REMARK  Name = ZINC05324421
REMARK  4 active torsions:
REMARK  status: ('A' for Active; 'I' for Inactive)
REMARK    1  A    between atoms: C_4  and  O_29
REMARK    2  A    between atoms: C_5  and  C_7
REMARK    3  A    between atoms: CA_13  and  C_15
REMARK    4  A    between atoms: N_19  and  C_22
REMARK                            x       y       z     vdW  Elec       q    Type
REMARK                         _______ _______ _______ _____ _____    ______ ____
ROOT
ATOM      1  C   UNL     1       0.833   3.766  -0.127  0.00  0.00    -0.024 C 
ATOM      2  C   UNL     1       1.258   4.079   1.323  0.00  0.00    +0.077 C 
ATOM      3  C   UNL     1       0.552   5.419   1.664  0.00  0.00    +0.083 C 
ATOM      4  CA  UNL     1      -0.220   5.797   0.383  0.00  0.00    +0.057 C 
ATOM      5  C   UNL     1      -0.422   5.032   2.755  0.00  0.00    +0.229 C 
ATOM      6  O   UNL     1      -1.184   5.791   3.314  0.00  0.00    -0.275 OA
ATOM      7  N   UNL     1      -0.311   3.723   3.005  0.00  0.00    -0.210 N 
ATOM      8  C   UNL     1       0.602   3.090   2.259  0.00  0.00    +0.229 C 
ATOM      9  O   UNL     1       0.862   1.908   2.324  0.00  0.00    -0.275 OA
ATOM     10  N   UNL     1      -0.414   4.508  -0.294  0.00  0.00    +0.394 N 
ATOM     11  H1  UNL     1      -1.194   3.995   0.134  0.00  0.00    -0.084 HD
ATOM     12  H2  UNL     1      -0.609   4.656  -1.291  0.00  0.00    -0.084 HD
ENDROOT
BRANCH   7  13
ATOM     13  C   UNL     1      -1.088   3.067   3.971  0.00  0.00    +0.044 A 
ATOM     14  C   UNL     1      -0.488   2.549   5.111  0.00  0.00    +0.025 A 
ATOM     15  C   UNL     1      -1.257   1.909   6.064  0.00  0.00    +0.022 A 
ATOM     16  C   UNL     1      -2.621   1.774   5.877  0.00  0.00    +0.041 A 
ATOM     17  C   UNL     1      -3.220   2.284   4.739  0.00  0.00    +0.022 A 
ATOM     18  C   UNL     1      -2.457   2.930   3.786  0.00  0.00    +0.025 A 
ATOM     19 CL   UNL     1      -3.583   0.963   7.073  0.00  0.00    -0.084 Cl
ENDBRANCH   7  13
BRANCH   1  24
ATOM     20  C   UNL     1      -0.845   0.396  -0.408  0.00  0.00    +0.000 A 
ATOM     21  C   UNL     1       0.236  -0.438  -0.629  0.00  0.00    +0.004 A 
ATOM     22  C   UNL     1       1.513   0.087  -0.688  0.00  0.00    +0.045 A 
ATOM     23  C   UNL     1       1.710   1.450  -0.525  0.00  0.00    +0.118 A 
ATOM     24  C   UNL     1       0.623   2.284  -0.303  0.00  0.00    -0.019 A 
ATOM     25  C   UNL     1      -0.652   1.755  -0.246  0.00  0.00    +0.005 A 
BRANCH  23  26
ATOM     26  O   UNL     1       2.965   1.969  -0.583  0.00  0.00    -0.507 OA
ATOM     27  H   UNL     1       3.239   2.236  -1.471  0.00  0.00    +0.292 HD
ENDBRANCH  23  26
ENDBRANCH   1  24
BRANCH   4  28
ATOM     28  C   UNL     1      -1.544   6.425   0.735  0.00  0.00    +0.343 C 
ATOM     29  O   UNL     1      -2.556   5.765   0.692  0.00  0.00    -0.248 OA
ATOM     30  OXT UNL     1      -1.600   7.716   1.095  0.00  0.00    -0.248 OA
ENDBRANCH   4  28
TORSDOF 4
