REMARK  Name = ZINC14548023
REMARK  6 active torsions:
REMARK  status: ('A' for Active; 'I' for Inactive)
REMARK    1  A    between atoms: C_4  and  C_7
REMARK    2  A    between atoms: C_7  and  N_8
REMARK    3  A    between atoms: N_8  and  S_9
REMARK    4  A    between atoms: S_9  and  C_12
REMARK    5  A    between atoms: C_25  and  C_28
REMARK    6  A    between atoms: C_37  and  O_38
REMARK                            x       y       z     vdW  Elec       q    Type
REMARK                         _______ _______ _______ _____ _____    ______ ____
ROOT
ATOM      1  C   UNL     1       1.335   2.575   0.134  0.00  0.00    +0.106 A 
ATOM      2  C   UNL     1       1.192   1.199   0.133  0.00  0.00    +0.030 A 
ATOM      3  C   UNL     1      -0.071   0.643   0.109  0.00  0.00    +0.025 A 
ATOM      4  C   UNL     1      -1.192   1.465   0.082  0.00  0.00    +0.031 A 
ATOM      5  C   UNL     1      -1.053   2.841   0.087  0.00  0.00    -0.018 A 
ATOM      6  C   UNL     1       0.223   3.390   0.111  0.00  0.00    +0.034 A 
ATOM      7  C   UNL     1      -2.227   3.782   0.056  0.00  0.00    +0.049 C 
ATOM      8  C   UNL     1      -2.091   4.632  -1.213  0.00  0.00    -0.023 C 
ATOM      9  C   UNL     1      -2.807   4.129  -2.186  0.00  0.00    -0.030 C 
ATOM     10  C   UNL     1      -3.526   2.875  -1.722  0.00  0.00    +0.033 C 
ATOM     11  C   UNL     1      -3.560   3.046  -0.185  0.00  0.00    +0.029 C 
ATOM     12  C   UNL     1      -3.596   1.699   0.512  0.00  0.00    +0.109 C 
ATOM     13  N   UNL     1      -2.464   0.882   0.061  0.00  0.00    -0.336 N 
ATOM     14  H   UNL     1      -2.593  -0.030  -0.242  0.00  0.00    +0.147 HD
ENDROOT
BRANCH  12  15
ATOM     15  C   UNL     1      -3.506   1.902   2.003  0.00  0.00    +0.022 A 
ATOM     16  C   UNL     1      -3.159   0.831   2.842  0.00  0.00    -0.009 A 
ATOM     17  C   UNL     1      -2.890  -0.447   2.320  0.00  0.00    +0.009 A 
ATOM     18  C   UNL     1      -2.557  -1.462   3.163  0.00  0.00    +0.001 A 
ATOM     19  C   UNL     1      -2.479  -1.256   4.539  0.00  0.00    +0.001 A 
ATOM     20  C   UNL     1      -2.722  -0.030   5.079  0.00  0.00    +0.008 A 
ATOM     21  C   UNL     1      -3.075   1.041   4.241  0.00  0.00    -0.017 A 
ATOM     22  C   UNL     1      -3.350   2.317   4.766  0.00  0.00    +0.012 A 
ATOM     23  C   UNL     1      -3.688   3.332   3.927  0.00  0.00    +0.046 A 
ATOM     24  C   UNL     1      -3.767   3.128   2.546  0.00  0.00    +0.122 A 
BRANCH  24  25
ATOM     25  O   UNL     1      -4.108   4.162   1.733  0.00  0.00    -0.506 OA
ATOM     26  H   UNL     1      -5.061   4.299   1.649  0.00  0.00    +0.292 HD
ENDBRANCH  24  25
ENDBRANCH  12  15
BRANCH   1  27
ATOM     27  S   UNL     1       2.946   3.289   0.167  0.00  0.00    +0.059 S 
ATOM     28  O   UNL     1       2.801   4.592   0.713  0.00  0.00    -0.153 OA
ATOM     29  O   UNL     1       3.810   2.315   0.736  0.00  0.00    -0.153 OA
BRANCH  27  30
ATOM     30  N   UNL     1       3.426   3.486  -1.406  0.00  0.00    -0.186 NA
ATOM     31  H   UNL     1       4.183   2.985  -1.749  0.00  0.00    +0.148 HD
BRANCH  30  32
ATOM     32  C   UNL     1       2.707   4.417  -2.280  0.00  0.00    +0.141 C 
BRANCH  32  36
ATOM     33  C   UNL     1       5.052   5.198  -5.764  0.00  0.00    +0.000 A 
ATOM     34  C   UNL     1       4.154   4.147  -5.757  0.00  0.00    +0.000 A 
ATOM     35  C   UNL     1       3.395   3.895  -4.630  0.00  0.00    +0.005 A 
ATOM     36  C   UNL     1       3.534   4.692  -3.509  0.00  0.00    -0.032 A 
ATOM     37  C   UNL     1       4.429   5.746  -3.518  0.00  0.00    +0.005 A 
ATOM     38  C   UNL     1       5.191   5.996  -4.644  0.00  0.00    +0.000 A 
ENDBRANCH  32  36
ENDBRANCH  30  32
ENDBRANCH  27  30
ENDBRANCH   1  27
TORSDOF 6
