REMARK  Name = ZINC39794110
REMARK  6 active torsions:
REMARK  status: ('A' for Active; 'I' for Inactive)
REMARK    1  A    between atoms: C_1  and  N_2
REMARK    2  A    between atoms: C_12  and  S_15
REMARK    3  A    between atoms: S_15  and  C_16
REMARK    4  A    between atoms: C_16  and  C_17
REMARK    5  A    between atoms: C_23  and  C_25
REMARK    6  A    between atoms: C_25  and  C_26
REMARK                            x       y       z     vdW  Elec       q    Type
REMARK                         _______ _______ _______ _____ _____    ______ ____
ROOT
ATOM      1  C   UNL     1       0.099  -2.806   5.806  0.00  0.00    +0.173 C 
ENDROOT
BRANCH   1   2
ATOM      2  C   UNL     1       0.112  -2.645   7.305  0.00  0.00    +0.229 C 
ATOM      3  O   UNL     1       0.102  -1.536   7.795  0.00  0.00    -0.275 OA
ATOM      4  N   UNL     1       0.135  -3.733   8.100  0.00  0.00    -0.264 N 
ATOM      5  C   UNL     1       0.147  -3.584   9.482  0.00  0.00    +0.165 A 
ATOM      6  N   UNL     1       0.133  -2.472  10.184  0.00  0.00    -0.233 NA
ATOM      7  C   UNL     1       0.148  -2.499  11.504  0.00  0.00    +0.124 A 
ATOM      8  C   UNL     1       0.178  -3.718  12.095  0.00  0.00    +0.015 A 
ATOM      9  S   UNL     1       0.175  -4.783  10.662  0.00  0.00    -0.057 S 
ATOM     10  H   UNL     1       0.143  -4.620   7.707  0.00  0.00    +0.157 HD
BRANCH   8  11
ATOM     11  C   UNL     1       0.201  -4.077  13.559  0.00  0.00    +0.079 C 
BRANCH  11  12
ATOM     12  C   UNL     1      -1.211  -4.223  14.063  0.00  0.00    -0.042 A 
ATOM     13  C   UNL     1      -1.880  -3.126  14.573  0.00  0.00    +0.007 A 
ATOM     14  C   UNL     1      -3.175  -3.259  15.036  0.00  0.00    +0.038 A 
ATOM     15  C   UNL     1      -3.804  -4.491  14.987  0.00  0.00    +0.123 A 
ATOM     16  C   UNL     1      -3.134  -5.589  14.476  0.00  0.00    +0.038 A 
ATOM     17  C   UNL     1      -1.840  -5.453  14.009  0.00  0.00    +0.007 A 
ATOM     18  F   UNL     1      -5.071  -4.622  15.439  0.00  0.00    -0.205 F 
ENDBRANCH  11  12
ENDBRANCH   8  11
ENDBRANCH   1   2
BRANCH   1  19
ATOM     19  S   UNL     1       0.069  -1.171   5.022  0.00  0.00    -0.075 S 
BRANCH  19  31
ATOM     20  C   UNL     1      -0.018   1.461   0.010  0.00  0.00    +0.151 C 
ATOM     21  N   UNL     1       0.002  -0.004   0.002  0.00  0.00    -0.327 N 
ATOM     22  C   UNL     1       0.007  -0.789  -1.141  0.00  0.00    +0.053 A 
ATOM     23  C   UNL     1      -0.003  -0.471  -2.494  0.00  0.00    +0.028 A 
ATOM     24  C   UNL     1       0.007  -1.474  -3.440  0.00  0.00    +0.022 A 
ATOM     25  C   UNL     1       0.026  -2.806  -3.055  0.00  0.00    +0.042 A 
ATOM     26  C   UNL     1       0.037  -3.141  -1.717  0.00  0.00    +0.032 A 
ATOM     27  C   UNL     1       0.028  -2.137  -0.752  0.00  0.00    +0.031 A 
ATOM     28  C   UNL     1       0.035  -2.145   0.721  0.00  0.00    +0.138 A 
ATOM     29  C   UNL     1       0.024  -0.794   1.125  0.00  0.00    +0.165 A 
ATOM     30  N   UNL     1       0.034  -0.524   2.427  0.00  0.00    -0.201 NA
ATOM     31  C   UNL     1       0.056  -1.526   3.296  0.00  0.00    +0.212 A 
ATOM     32  N   UNL     1       0.070  -2.791   2.891  0.00  0.00    -0.122 NA
ATOM     33  N   UNL     1       0.052  -3.099   1.640  0.00  0.00    -0.143 NA
ATOM     34 CL   UNL     1       0.037  -4.055  -4.260  0.00  0.00    -0.084 Cl
ENDBRANCH  19  31
ENDBRANCH   1  19
TORSDOF 5
