REMARK  Name = ZINC12889436
REMARK  10 active torsions:
REMARK  status: ('A' for Active; 'I' for Inactive)
REMARK    1  A    between atoms: C_1  and  C_2
REMARK    2  A    between atoms: C_2  and  C_3
REMARK    3  A    between atoms: C_3  and  C_5
REMARK    4  A    between atoms: C_3  and  N_6
REMARK    5  A    between atoms: C_7  and  C_9
REMARK    6  A    between atoms: C_9  and  C_11
REMARK    7  A    between atoms: C_9  and  N_14
REMARK    8  A    between atoms: C_11  and  C_12
REMARK    9  A    between atoms: C_11  and  C_13
REMARK   10  A    between atoms: C_15  and  C_17
REMARK                            x       y       z     vdW  Elec       q    Type
REMARK                         _______ _______ _______ _____ _____    ______ ____
ROOT
ATOM      1  C   UNL     1       2.154  -3.754   1.190  0.00  0.00    +0.167 C 
ATOM      2  C   UNL     1       2.576  -3.945   2.654  0.00  0.00    +0.069 C 
ATOM      3  C   UNL     1       3.237  -5.288   2.835  0.00  0.00    -0.015 A 
ATOM      4  C   UNL     1       3.491  -5.980   4.086  0.00  0.00    +0.003 A 
ATOM      5  C   UNL     1       3.216  -5.652   5.418  0.00  0.00    +0.010 A 
ATOM      6  C   UNL     1       3.606  -6.560   6.372  0.00  0.00    +0.001 A 
ATOM      7  C   UNL     1       4.241  -7.746   6.043  0.00  0.00    +0.002 A 
ATOM      8  C   UNL     1       4.526  -8.094   4.734  0.00  0.00    +0.026 A 
ATOM      9  C   UNL     1       4.141  -7.192   3.744  0.00  0.00    +0.047 A 
ATOM     10  N   UNL     1       4.261  -7.218   2.385  0.00  0.00    -0.356 N 
ATOM     11  H   UNL     1       4.673  -7.932   1.874  0.00  0.00    +0.166 HD
ATOM     12  C   UNL     1       3.713  -6.083   1.851  0.00  0.00    +0.046 A 
ATOM     13  C   UNL     1       3.608  -5.731   0.387  0.00  0.00    +0.155 C 
ATOM     14  N   UNL     1       3.218  -4.302   0.342  0.00  0.00    -0.273 N 
ATOM     15  C   UNL     1       4.044  -3.680  -0.537  0.00  0.00    +0.248 C 
ATOM     16  O   UNL     1       3.883  -2.552  -0.961  0.00  0.00    -0.270 OA
ATOM     17  C   UNL     1       5.146  -4.573  -0.910  0.00  0.00    +0.042 A 
ATOM     18  C   UNL     1       4.913  -5.834  -0.325  0.00  0.00    -0.009 A 
ATOM     19  C   UNL     1       5.808  -6.871  -0.468  0.00  0.00    +0.006 A 
ATOM     20  C   UNL     1       6.947  -6.623  -1.228  0.00  0.00    +0.000 A 
ATOM     21  C   UNL     1       7.178  -5.396  -1.816  0.00  0.00    +0.001 A 
ATOM     22  C   UNL     1       6.290  -4.339  -1.675  0.00  0.00    +0.013 A 
ENDROOT
BRANCH   1  24
ATOM     23  N   UNL     1       0.737  -1.787   0.700  0.00  0.00    -0.302 N 
ATOM     24  C   UNL     1       1.972  -2.287   0.898  0.00  0.00    +0.235 C 
ATOM     25  O   UNL     1       2.939  -1.556   0.842  0.00  0.00    -0.274 OA
ATOM     26  H   UNL     1      -0.036  -2.371   0.745  0.00  0.00    +0.150 HD
BRANCH  23  27
ATOM     27  C   UNL     1       0.561  -0.360   0.416  0.00  0.00    +0.161 C 
BRANCH  27  29
ATOM     28  N   UNL     1      -1.052   1.344   1.199  0.00  0.00    -0.311 N 
ATOM     29  C   UNL     1      -0.823   0.067   0.832  0.00  0.00    +0.234 C 
ATOM     30  O   UNL     1      -1.731  -0.737   0.836  0.00  0.00    -0.274 OA
ATOM     31  H   UNL     1      -0.344   2.003   1.127  0.00  0.00    +0.149 HD
BRANCH  28  32
ATOM     32  C   UNL     1      -2.369   1.735   1.706  0.00  0.00    +0.070 C 
ATOM     33  C   UNL     1      -2.445   1.444   3.206  0.00  0.00    +0.028 C 
BRANCH  32  35
ATOM     34  C   UNL     1      -2.634   3.503  -0.040  0.00  0.00    +0.005 C 
ATOM     35  C   UNL     1      -2.585   3.231   1.465  0.00  0.00    +0.018 C 
ENDBRANCH  32  35
ENDBRANCH  28  32
ENDBRANCH  27  29
BRANCH  27  36
ATOM     36  C   UNL     1       0.742  -0.112  -1.083  0.00  0.00    +0.012 C 
ATOM     37  C   UNL     1       0.523   1.371  -1.385  0.00  0.00    +0.009 C 
ATOM     38  C   UNL     1      -0.273  -0.948  -1.865  0.00  0.00    +0.009 C 
ENDBRANCH  27  36
ENDBRANCH  23  27
ENDBRANCH   1  24
TORSDOF 6
