REMARK  Name = ZINC14185898
REMARK  8 active torsions:
REMARK  status: ('A' for Active; 'I' for Inactive)
REMARK    1  A    between atoms: C_1  and  S_2
REMARK    2  A    between atoms: S_2  and  N_5
REMARK    3  A    between atoms: N_5  and  C_6
REMARK    4  A    between atoms: N_5  and  C_22
REMARK    5  A    between atoms: C_6  and  C_7
REMARK    6  A    between atoms: N_9  and  N_10
REMARK    7  A    between atoms: C_11  and  C_12
REMARK    8  A    between atoms: C_14  and  N_19
REMARK                            x       y       z     vdW  Elec       q    Type
REMARK                         _______ _______ _______ _____ _____    ______ ____
ROOT
ATOM      1  C   UNL     1      -0.074   1.239   3.458  0.00  0.00    +0.251 C 
ATOM      2  O   UNL     1       1.116   1.298   3.228  0.00  0.00    -0.272 OA
ATOM      3  N   UNL     1      -0.512   0.672   4.599  0.00  0.00    -0.206 N 
ATOM      4  H   UNL     1      -1.464   0.625   4.782  0.00  0.00    +0.177 HD
ENDROOT
BRANCH   3   5
ATOM      5  N   UNL     1       0.405   0.149   5.519  0.00  0.00    -0.188 NA
ATOM      6  C   UNL     1      -0.017  -0.397   6.618  0.00  0.00    +0.139 C 
BRANCH   6   7
ATOM      7  C   UNL     1       0.949  -0.947   7.587  0.00  0.00    +0.015 A 
ATOM      8  C   UNL     1       0.498  -1.531   8.773  0.00  0.00    +0.043 A 
ATOM      9  C   UNL     1       1.407  -2.047   9.673  0.00  0.00    +0.127 A 
ATOM     10  C   UNL     1       2.763  -1.979   9.408  0.00  0.00    +0.034 A 
ATOM     11  C   UNL     1       3.218  -1.398   8.238  0.00  0.00    +0.023 A 
ATOM     12  C   UNL     1       2.320  -0.882   7.326  0.00  0.00    +0.050 A 
ATOM     13 CL   UNL     1       2.893  -0.152   5.858  0.00  0.00    -0.083 Cl
BRANCH   9  14
ATOM     14  N   UNL     1       0.930  -2.670  10.928  0.00  0.00    +0.056 N 
ATOM     15  O   UNL     1       1.731  -3.122  11.726  0.00  0.00    -0.126 OA
ATOM     16  O   UNL     1      -0.264  -2.731  11.163  0.00  0.00    -0.126 OA
ENDBRANCH   9  14
ENDBRANCH   6   7
ENDBRANCH   3   5
BRANCH   1  17
ATOM     17  C   UNL     1      -1.061   1.801   2.467  0.00  0.00    +0.228 C 
BRANCH  17  18
ATOM     18  N   UNL     1      -0.339   2.357   1.320  0.00  0.00    -0.198 N 
BRANCH  18  19
ATOM     19  C   UNL     1       0.151   3.665   1.371  0.00  0.00    +0.065 A 
ATOM     20  C   UNL     1       1.395   3.921   1.933  0.00  0.00    +0.026 A 
ATOM     21  C   UNL     1       1.879   5.213   1.977  0.00  0.00    +0.002 A 
ATOM     22  C   UNL     1       1.122   6.255   1.471  0.00  0.00    +0.001 A 
ATOM     23  C   UNL     1      -0.119   6.005   0.916  0.00  0.00    +0.017 A 
ATOM     24  C   UNL     1      -0.607   4.713   0.864  0.00  0.00    +0.040 A 
ATOM     25 BR   UNL     1      -2.305   4.372   0.104  0.00  0.00    -0.048 Br
ENDBRANCH  18  19
BRANCH  18  27
ATOM     26  C   UNL     1       1.385   0.462   0.315  0.00  0.00    +0.218 C 
ATOM     27  S   UNL     1      -0.104   1.436  -0.036  0.00  0.00    +0.043 S 
ATOM     28  O   UNL     1       0.157   2.375  -1.070  0.00  0.00    -0.155 OA
ATOM     29  O   UNL     1      -1.241   0.587  -0.099  0.00  0.00    -0.155 OA
ENDBRANCH  18  27
ENDBRANCH  17  18
ENDBRANCH   1  17
TORSDOF 7
