REMARK  Name = ZINC65080674
REMARK  7 active torsions:
REMARK  status: ('A' for Active; 'I' for Inactive)
REMARK    1  A    between atoms: C_1  and  C_2
REMARK    2  A    between atoms: C_2  and  C_3
REMARK    3  A    between atoms: C_3  and  C_5
REMARK    4  A    between atoms: C_3  and  N_6
REMARK    5  A    between atoms: C_7  and  C_9
REMARK    6  A    between atoms: C_21  and  C_31
REMARK    7  A    between atoms: N_23  and  C_24
REMARK                            x       y       z     vdW  Elec       q    Type
REMARK                         _______ _______ _______ _____ _____    ______ ____
ROOT
ATOM      1  C   UNL     1       4.271   0.470  -2.304  0.00  0.00    +0.092 C 
ATOM      2  C   UNL     1       4.826   0.555  -3.728  0.00  0.00    +0.016 C 
ATOM      3  C   UNL     1       6.287   1.011  -3.681  0.00  0.00    +0.020 C 
ATOM      4  C   UNL     1       7.113  -0.015  -2.900  0.00  0.00    +0.107 C 
ATOM      5  N   UNL     1       6.500  -0.211  -1.579  0.00  0.00    -0.309 N 
ATOM      6  C   UNL     1       5.075  -0.562  -1.507  0.00  0.00    +0.119 C 
ATOM      7  C   UNL     1       7.249  -0.067  -0.426  0.00  0.00    +0.164 A 
ATOM      8  N   UNL     1       8.521   0.247  -0.297  0.00  0.00    -0.205 NA
ATOM      9  C   UNL     1       9.115   0.351   0.898  0.00  0.00    +0.173 A 
ATOM     10  C   UNL     1       8.314   0.109   2.017  0.00  0.00    +0.082 A 
ATOM     11  S   UNL     1       6.739  -0.249   1.278  0.00  0.00    -0.049 S 
ATOM     12  C   UNL     1       9.075   0.257   3.164  0.00  0.00    +0.076 A 
ATOM     13  N   UNL     1      10.295   0.575   2.814  0.00  0.00    -0.169 NA
ATOM     14  N   UNL     1      10.367   0.645   1.420  0.00  0.00    -0.213 N 
ATOM     15  C   UNL     1       8.581   0.082   4.578  0.00  0.00    +0.069 C 
ENDROOT
BRANCH  14  16
ATOM     16  C   UNL     1      11.512   0.958   0.675  0.00  0.00    +0.068 A 
ATOM     17  C   UNL     1      11.729   0.351  -0.554  0.00  0.00    +0.029 A 
ATOM     18  C   UNL     1      12.858   0.661  -1.287  0.00  0.00    +0.022 A 
ATOM     19  C   UNL     1      13.772   1.577  -0.796  0.00  0.00    +0.041 A 
ATOM     20  C   UNL     1      13.558   2.183   0.429  0.00  0.00    +0.022 A 
ATOM     21  C   UNL     1      12.428   1.880   1.163  0.00  0.00    +0.029 A 
ATOM     22 CL   UNL     1      15.190   1.966  -1.720  0.00  0.00    -0.084 Cl
ENDBRANCH  14  16
BRANCH   1  24
ATOM     23  N   UNL     1       2.125  -0.091  -1.209  0.00  0.00    -0.312 N 
ATOM     24  C   UNL     1       2.824   0.051  -2.353  0.00  0.00    +0.218 C 
ATOM     25  O   UNL     1       2.289  -0.157  -3.421  0.00  0.00    -0.275 OA
ATOM     26  H   UNL     1       2.553   0.075  -0.355  0.00  0.00    +0.149 HD
BRANCH  23  27
ATOM     27  C   UNL     1       0.718  -0.497  -1.257  0.00  0.00    +0.070 C 
ATOM     28  C   UNL     1       0.630  -2.023  -1.329  0.00  0.00    +0.028 C 
BRANCH  27  30
ATOM     29  C   UNL     1      -0.019   1.526   0.010  0.00  0.00    +0.005 C 
ATOM     30  C   UNL     1       0.002  -0.004   0.002  0.00  0.00    +0.018 C 
ENDBRANCH  27  30
ENDBRANCH  23  27
ENDBRANCH   1  24
TORSDOF 4
