REMARK  Name = ZINC15065632
REMARK  7 active torsions:
REMARK  status: ('A' for Active; 'I' for Inactive)
REMARK    1  A    between atoms: C_1  and  C_2
REMARK    2  A    between atoms: C_2  and  C_3
REMARK    3  A    between atoms: C_2  and  C_4
REMARK    4  A    between atoms: C_4  and  C_5
REMARK    5  A    between atoms: C_5  and  N_57
REMARK    6  A    between atoms: C_11  and  C_13
REMARK    7  A    between atoms: C_13  and  C_14
REMARK                            x       y       z     vdW  Elec       q    Type
REMARK                         _______ _______ _______ _____ _____    ______ ____
ROOT
ATOM      1  C   UNL     1      -0.686  -0.641   2.287  0.00  0.00    +0.090 C 
ENDROOT
BRANCH   1   2
ATOM      2  C   UNL     1      -2.176  -0.705   2.069  0.00  0.00    +0.215 C 
ATOM      3  O   UNL     1      -2.811   0.318   1.922  0.00  0.00    -0.276 OA
ATOM      4  N   UNL     1      -2.802  -1.898   2.039  0.00  0.00    -0.299 N 
ATOM      5  C   UNL     1      -2.050  -3.150   2.209  0.00  0.00    +0.126 C 
ATOM      6  C   UNL     1      -2.740  -3.981   3.303  0.00  0.00    +0.127 C 
ATOM      7  N   UNL     1      -4.158  -4.151   2.960  0.00  0.00    -0.297 N 
ATOM      8  C   UNL     1      -4.857  -2.859   2.930  0.00  0.00    +0.127 C 
ATOM      9  C   UNL     1      -4.255  -1.982   1.827  0.00  0.00    +0.126 C 
ATOM     10  C   UNL     1      -4.777  -5.030   3.831  0.00  0.00    +0.218 A 
ATOM     11  N   UNL     1      -5.852  -4.632   4.497  0.00  0.00    -0.223 NA
ATOM     12  C   UNL     1      -6.471  -5.449   5.333  0.00  0.00    +0.116 A 
ATOM     13  C   UNL     1      -5.975  -6.730   5.517  0.00  0.00    +0.039 A 
ATOM     14  C   UNL     1      -4.846  -7.112   4.809  0.00  0.00    +0.116 A 
ATOM     15  N   UNL     1      -4.279  -6.248   3.985  0.00  0.00    -0.223 NA
ENDBRANCH   1   2
BRANCH   1  21
ATOM     16  C   UNL     1      -0.435   2.987   1.356  0.00  0.00    -0.059 C 
ATOM     17  C   UNL     1      -1.454   3.506   2.373  0.00  0.00    +0.085 C 
ATOM     18  N   UNL     1      -1.431   2.675   3.573  0.00  0.00    -0.318 N 
ATOM     19  C   UNL     1      -0.902   1.447   3.597  0.00  0.00    +0.200 C 
ATOM     20  O   UNL     1      -0.952   0.813   4.629  0.00  0.00    -0.278 OA
ATOM     21  C   UNL     1      -0.248   0.820   2.398  0.00  0.00    +0.028 C 
ATOM     22  H   UNL     1      -1.816   3.030   4.390  0.00  0.00    +0.149 HD
ATOM     23  N   UNL     1      -0.664   1.539   1.179  0.00  0.00    +0.389 N 
ATOM     24  H   UNL     1      -1.664   1.374   1.017  0.00  0.00    -0.081 HD
BRANCH  23  25
ATOM     25  C   UNL     1       0.102   1.043   0.013  0.00  0.00    -0.077 C 
BRANCH  25  26
ATOM     26  C   UNL     1      -0.588   1.515  -1.269  0.00  0.00    -0.016 C 
BRANCH  26  28
ATOM     27  C   UNL     1      -0.572   1.362  -3.763  0.00  0.00    +0.007 C 
ATOM     28  C   UNL     1       0.185   0.996  -2.484  0.00  0.00    -0.019 C 
ATOM     29  C   UNL     1       1.575   1.634  -2.514  0.00  0.00    +0.007 C 
ENDBRANCH  26  28
ENDBRANCH  25  26
ENDBRANCH  23  25
ENDBRANCH   1  21
TORSDOF 5
