REMARK  Name = ZINC40742571
REMARK  14 active torsions:
REMARK  status: ('A' for Active; 'I' for Inactive)
REMARK    1  A    between atoms: C_1  and  O_2
REMARK    2  A    between atoms: O_2  and  C_3
REMARK    3  A    between atoms: C_6  and  C_11
REMARK    4  A    between atoms: C_8  and  O_9
REMARK    5  A    between atoms: O_9  and  C_10
REMARK    6  A    between atoms: C_11  and  C_12
REMARK    7  A    between atoms: C_12  and  N_13
REMARK    8  A    between atoms: N_13  and  C_14
REMARK    9  A    between atoms: C_14  and  C_15
REMARK   10  A    between atoms: C_17  and  O_32
REMARK   11  A    between atoms: C_18  and  O_22
REMARK   12  A    between atoms: O_22  and  C_23
REMARK   13  A    between atoms: C_23  and  C_24
REMARK   14  A    between atoms: O_32  and  C_33
REMARK                            x       y       z     vdW  Elec       q    Type
REMARK                         _______ _______ _______ _____ _____    ______ ____
ROOT
ATOM      1  C   UNL     1      -8.530  -4.468  -2.769  0.00  0.00    -0.059 A 
ATOM      2  C   UNL     1      -8.585  -5.849  -2.764  0.00  0.00    +0.051 A 
ATOM      3  C   UNL     1      -9.811  -6.494  -2.756  0.00  0.00    +0.163 A 
ATOM      4  C   UNL     1     -10.986  -5.748  -2.753  0.00  0.00    +0.181 A 
ATOM      5  C   UNL     1     -10.924  -4.364  -2.757  0.00  0.00    +0.086 A 
ATOM      6  C   UNL     1      -9.696  -3.726  -2.760  0.00  0.00    +0.025 A 
ATOM      7 CL   UNL     1     -12.387  -3.429  -2.753  0.00  0.00    -0.080 Cl
ENDROOT
BRANCH   3   8
ATOM      8  O   UNL     1      -9.867  -7.853  -2.753  0.00  0.00    -0.491 OA
ATOM      9  C   UNL     1      -8.621  -8.553  -2.757  0.00  0.00    +0.277 C 
ENDBRANCH   3   8
BRANCH   1  10
ATOM     10  C   UNL     1      -7.195  -3.769  -2.778  0.00  0.00    -0.047 C 
BRANCH  10  11
ATOM     11  N   UNL     1      -6.751  -3.543  -1.396  0.00  0.00    +0.382 N 
ATOM     12  H   UNL     1      -6.663  -4.429  -0.922  0.00  0.00    -0.085 HD
ATOM     13  H   UNL     1      -7.427  -2.970  -0.914  0.00  0.00    -0.085 HD
BRANCH  11  14
ATOM     14  C   UNL     1      -5.449  -2.862  -1.404  0.00  0.00    -0.077 C 
BRANCH  14  15
ATOM     15  C   UNL     1      -4.987  -2.627   0.035  0.00  0.00    +0.016 C 
BRANCH  15  19
ATOM     16  C   UNL     1      -1.201  -0.638   0.010  0.00  0.00    +0.161 A 
ATOM     17  C   UNL     1      -2.374   0.099   0.019  0.00  0.00    +0.049 A 
ATOM     18  C   UNL     1      -3.596  -0.546   0.027  0.00  0.00    +0.007 A 
ATOM     19  C   UNL     1      -3.652  -1.928   0.026  0.00  0.00    -0.045 A 
ATOM     20  C   UNL     1      -2.485  -2.669   0.017  0.00  0.00    +0.053 A 
ATOM     21  C   UNL     1      -1.257  -2.028   0.003  0.00  0.00    +0.162 A 
BRANCH  16  23
ATOM     22  C   UNL     1      -0.017   1.425   0.010  0.00  0.00    +0.277 C 
ATOM     23  O   UNL     1       0.002  -0.004   0.002  0.00  0.00    -0.491 OA
ENDBRANCH  16  23
BRANCH  21  24
ATOM     24  O   UNL     1      -0.108  -2.756  -0.012  0.00  0.00    -0.491 OA
ATOM     25  C   UNL     1      -0.242  -4.179  -0.018  0.00  0.00    +0.277 C 
ENDBRANCH  21  24
ENDBRANCH  15  19
ENDBRANCH  14  15
ENDBRANCH  11  14
ENDBRANCH  10  11
ENDBRANCH   1  10
BRANCH   4  26
ATOM     26  O   UNL     1     -12.192  -6.377  -2.746  0.00  0.00    -0.482 OA
BRANCH  26  27
ATOM     27  C   UNL     1     -12.762  -6.673  -1.469  0.00  0.00    +0.266 C 
BRANCH  27  28
ATOM     28  C   UNL     1     -14.088  -7.364  -1.659  0.00  0.00    +0.008 A 
ATOM     29  C   UNL     1     -14.559  -7.617  -2.933  0.00  0.00    +0.011 A 
ATOM     30  C   UNL     1     -15.775  -8.250  -3.109  0.00  0.00    +0.039 A 
ATOM     31  C   UNL     1     -16.521  -8.632  -2.007  0.00  0.00    +0.125 A 
ATOM     32  C   UNL     1     -16.049  -8.380  -0.730  0.00  0.00    +0.058 A 
ATOM     33  C   UNL     1     -14.829  -7.751  -0.557  0.00  0.00    +0.050 A 
ATOM     34 CL   UNL     1     -14.233  -7.440   1.044  0.00  0.00    -0.083 Cl
ATOM     35  F   UNL     1     -17.710  -9.251  -2.178  0.00  0.00    -0.205 F 
ENDBRANCH  27  28
ENDBRANCH  26  27
ENDBRANCH   4  26
TORSDOF 11
