REMARK  Name = ZINC20303370
REMARK  5 active torsions:
REMARK  status: ('A' for Active; 'I' for Inactive)
REMARK    1  A    between atoms: C_1  and  C_2
REMARK    2  A    between atoms: C_8  and  N_10
REMARK    3  A    between atoms: N_10  and  S_11
REMARK    4  A    between atoms: S_11  and  C_14
REMARK    5  A    between atoms: C_16  and  C_21
REMARK                            x       y       z     vdW  Elec       q    Type
REMARK                         _______ _______ _______ _____ _____    ______ ____
ROOT
ATOM      1  S   UNL     1      -2.923   4.019   0.098  0.00  0.00    +0.060 S 
ATOM      2  O   UNL     1      -3.890   3.486   0.993  0.00  0.00    -0.153 OA
ATOM      3  O   UNL     1      -2.509   5.378   0.145  0.00  0.00    -0.153 OA
ENDROOT
BRANCH   1   4
ATOM      4  C   UNL     1      -1.469   3.042   0.286  0.00  0.00    +0.120 A 
ATOM      5  C   UNL     1      -1.455   1.996   1.185  0.00  0.00    +0.044 A 
ATOM      6  C   UNL     1      -0.302   1.223   1.333  0.00  0.00    +0.065 A 
ATOM      7  C   UNL     1       0.831   1.515   0.570  0.00  0.00    +0.016 A 
ATOM      8  C   UNL     1       0.804   2.563  -0.325  0.00  0.00    +0.018 A 
ATOM      9  C   UNL     1      -0.341   3.330  -0.464  0.00  0.00    +0.044 A 
ATOM     10 BR   UNL     1      -0.367   4.771  -1.687  0.00  0.00    -0.048 Br
BRANCH   6  11
ATOM     11  C   UNL     1      -0.280   0.101   2.293  0.00  0.00    +0.387 C 
ATOM     12  O   UNL     1      -1.266  -0.151   2.956  0.00  0.00    -0.241 OA
ATOM     13  O   UNL     1       0.835  -0.643   2.435  0.00  0.00    -0.241 OA
ENDBRANCH   6  11
ENDBRANCH   1   4
BRANCH   1  14
ATOM     14  N   UNL     1      -3.497   3.753  -1.433  0.00  0.00    -0.187 NA
ATOM     15  H   UNL     1      -3.344   4.520  -2.205  0.00  0.00    +0.148 HD
BRANCH  14  22
ATOM     16  C   UNL     1      -2.157   2.192  -3.472  0.00  0.00    +0.009 C 
ATOM     17  C   UNL     1      -3.674   2.152  -3.273  0.00  0.00    +0.005 C 
ATOM     18  C   UNL     1      -4.202   0.770  -3.662  0.00  0.00    +0.005 C 
ATOM     19  C   UNL     1      -5.719   0.729  -3.463  0.00  0.00    +0.000 C 
ATOM     20  C   UNL     1      -6.048   1.007  -1.995  0.00  0.00    +0.002 C 
ATOM     21  C   UNL     1      -5.520   2.389  -1.606  0.00  0.00    +0.020 C 
ATOM     22  C   UNL     1      -4.003   2.429  -1.805  0.00  0.00    +0.079 C 
ENDBRANCH  14  22
ENDBRANCH   1  14
TORSDOF 4
