REMARK  Name = ZINC59922260
REMARK  9 active torsions:
REMARK  status: ('A' for Active; 'I' for Inactive)
REMARK    1  A    between atoms: C_1  and  C_2
REMARK    2  A    between atoms: C_5  and  C_8
REMARK    3  A    between atoms: C_9  and  S_10
REMARK    4  A    between atoms: S_10  and  N_13
REMARK    5  A    between atoms: N_13  and  C_14
REMARK    6  A    between atoms: C_14  and  C_15
REMARK    7  A    between atoms: N_17  and  C_18
REMARK    8  A    between atoms: C_18  and  C_25
REMARK    9  A    between atoms: C_27  and  C_30
REMARK                            x       y       z     vdW  Elec       q    Type
REMARK                         _______ _______ _______ _____ _____    ______ ____
ROOT
ATOM      1  C   UNL     1       3.010  -7.697   3.627  0.00  0.00    +0.229 C 
ATOM      2  O   UNL     1       3.546  -8.459   2.850  0.00  0.00    -0.274 OA
ATOM      3  N   UNL     1       3.463  -7.594   4.892  0.00  0.00    -0.302 N 
ATOM      4  H   UNL     1       3.034  -6.985   5.513  0.00  0.00    +0.150 HD
ENDROOT
BRANCH   3   5
ATOM      5  C   UNL     1       4.603  -8.403   5.330  0.00  0.00    +0.097 C 
ATOM      6  C   UNL     1       4.264  -9.864   5.204  0.00  0.00    +0.034 C 
ATOM      7  C   UNL     1       2.748 -10.126   5.283  0.00  0.00    +0.003 C 
ATOM      8  C   UNL     1       2.051  -9.285   6.370  0.00  0.00    +0.000 C 
ATOM      9  C   UNL     1       2.851  -9.214   7.643  0.00  0.00    +0.000 C 
ATOM     10  C   UNL     1       3.713  -7.935   7.609  0.00  0.00    +0.003 C 
ATOM     11  C   UNL     1       4.917  -8.099   6.809  0.00  0.00    +0.034 C 
BRANCH   5  12
ATOM     12  C   UNL     1       5.806  -8.084   4.480  0.00  0.00    +0.195 A 
ATOM     13  N   UNL     1       5.853  -8.142   3.144  0.00  0.00    -0.194 NA
ATOM     14  C   UNL     1       7.040  -7.804   2.723  0.00  0.00    +0.224 A 
ATOM     15  O   UNL     1       7.797  -7.517   3.789  0.00  0.00    -0.338 OA
ATOM     16  N   UNL     1       6.968  -7.702   4.927  0.00  0.00    -0.059 NA
ATOM     17  C   UNL     1       7.483  -7.747   1.284  0.00  0.00    +0.112 C 
ENDBRANCH   5  12
ENDBRANCH   3   5
BRANCH   1  18
ATOM     18  C   UNL     1       1.837  -6.864   3.177  0.00  0.00    +0.201 C 
BRANCH  18  19
ATOM     19  N   UNL     1       1.542  -7.156   1.772  0.00  0.00    -0.182 NA
ATOM     20  H   UNL     1       2.192  -7.627   1.227  0.00  0.00    +0.149 HD
BRANCH  19  21
ATOM     21  S   UNL     1       0.098  -6.682   1.113  0.00  0.00    +0.052 S 
ATOM     22  O   UNL     1      -0.917  -7.106   2.012  0.00  0.00    -0.154 OA
ATOM     23  O   UNL     1       0.123  -7.080  -0.251  0.00  0.00    -0.154 OA
BRANCH  21  25
ATOM     24  C   UNL     1       0.060  -4.251  -0.021  0.00  0.00    +0.028 C 
ATOM     25  C   UNL     1       0.074  -4.920   1.123  0.00  0.00    +0.153 C 
BRANCH  24  30
ATOM     26  C   UNL     1      -0.018   1.503   0.010  0.00  0.00    +0.044 C 
ATOM     27  C   UNL     1       0.002  -0.004   0.002  0.00  0.00    -0.050 A 
ATOM     28  C   UNL     1       0.006  -0.686  -1.202  0.00  0.00    +0.004 A 
ATOM     29  C   UNL     1       0.024  -2.066  -1.216  0.00  0.00    +0.008 A 
ATOM     30  C   UNL     1       0.040  -2.773  -0.013  0.00  0.00    -0.024 A 
ATOM     31  C   UNL     1       0.037  -2.079   1.197  0.00  0.00    +0.008 A 
ATOM     32  C   UNL     1       0.023  -0.699   1.198  0.00  0.00    +0.004 A 
ENDBRANCH  24  30
ENDBRANCH  21  25
ENDBRANCH  19  21
ENDBRANCH  18  19
ENDBRANCH   1  18
TORSDOF 7
