REMARK  Name = ZINC20708749
REMARK  8 active torsions:
REMARK  status: ('A' for Active; 'I' for Inactive)
REMARK    1  A    between atoms: C_1  and  N_2
REMARK    2  A    between atoms: N_2  and  C_3
REMARK    3  A    between atoms: N_2  and  S_10
REMARK    4  A    between atoms: C_3  and  C_4
REMARK    5  A    between atoms: S_10  and  C_13
REMARK    6  A    between atoms: C_26  and  C_29
REMARK    7  A    between atoms: C_31  and  N_36
REMARK    8  A    between atoms: C_34  and  O_35
REMARK                            x       y       z     vdW  Elec       q    Type
REMARK                         _______ _______ _______ _____ _____    ______ ____
ROOT
ATOM      1  C   UNL     1       1.294   1.923  -0.021  0.00  0.00    +0.106 A 
ATOM      2  C   UNL     1       0.134   1.170  -0.017  0.00  0.00    +0.030 A 
ATOM      3  C   UNL     1      -1.093   1.803  -0.004  0.00  0.00    +0.025 A 
ATOM      4  C   UNL     1      -1.158   3.192   0.018  0.00  0.00    +0.031 A 
ATOM      5  C   UNL     1       0.000   3.949   0.011  0.00  0.00    -0.018 A 
ATOM      6  C   UNL     1       1.229   3.301  -0.007  0.00  0.00    +0.034 A 
ATOM      7  C   UNL     1      -0.006   5.454   0.018  0.00  0.00    +0.049 C 
ATOM      8  C   UNL     1       0.715   5.918  -1.240  0.00  0.00    -0.023 C 
ATOM      9  C   UNL     1      -0.147   6.186  -2.188  0.00  0.00    -0.030 C 
ATOM     10  C   UNL     1      -1.564   5.944  -1.701  0.00  0.00    +0.033 C 
ATOM     11  C   UNL     1      -1.421   6.034  -0.164  0.00  0.00    +0.029 C 
ATOM     12  C   UNL     1      -2.477   5.197   0.533  0.00  0.00    +0.108 C 
ATOM     13  N   UNL     1      -2.410   3.815   0.043  0.00  0.00    -0.336 N 
ATOM     14  H   UNL     1      -3.326   3.305  -0.290  0.00  0.00    +0.147 HD
ENDROOT
BRANCH  12  15
ATOM     15  C   UNL     1      -2.231   5.214   2.019  0.00  0.00    +0.017 A 
ATOM     16  C   UNL     1      -1.637   4.129   2.635  0.00  0.00    +0.041 A 
ATOM     17  C   UNL     1      -1.412   4.145   3.999  0.00  0.00    +0.127 A 
ATOM     18  C   UNL     1      -1.779   5.246   4.750  0.00  0.00    +0.036 A 
ATOM     19  C   UNL     1      -2.373   6.333   4.140  0.00  0.00    +0.048 A 
ATOM     20  C   UNL     1      -2.596   6.322   2.770  0.00  0.00    +0.122 A 
BRANCH  17  21
ATOM     21  N   UNL     1      -0.776   2.981   4.656  0.00  0.00    +0.056 N 
ATOM     22  O   UNL     1      -0.451   2.011   3.995  0.00  0.00    -0.126 OA
ATOM     23  O   UNL     1      -0.576   2.994   5.857  0.00  0.00    -0.126 OA
ENDBRANCH  17  21
BRANCH  20  24
ATOM     24  O   UNL     1      -3.175   7.393   2.166  0.00  0.00    -0.506 OA
ATOM     25  H   UNL     1      -3.464   8.271   2.762  0.00  0.00    +0.292 HD
ENDBRANCH  20  24
ENDBRANCH  12  15
BRANCH   1  26
ATOM     26  S   UNL     1       2.861   1.119  -0.044  0.00  0.00    +0.061 S 
ATOM     27  O   UNL     1       3.797   2.036   0.507  0.00  0.00    -0.153 OA
ATOM     28  O   UNL     1       2.660  -0.180   0.495  0.00  0.00    -0.153 OA
BRANCH  26  30
ATOM     29  C   UNL     1       2.888  -0.309  -2.341  0.00  0.00    +0.132 C 
ATOM     30  N   UNL     1       3.281   0.912  -1.633  0.00  0.00    -0.175 NA
BRANCH  30  31
ATOM     31  C   UNL     1       4.046   1.949  -2.330  0.00  0.00    +0.144 C 
BRANCH  31  32
ATOM     32  C   UNL     1       5.515   1.615  -2.271  0.00  0.00    -0.032 A 
ATOM     33  C   UNL     1       6.289   2.080  -1.225  0.00  0.00    +0.005 A 
ATOM     34  C   UNL     1       7.635   1.770  -1.169  0.00  0.00    +0.000 A 
ATOM     35  C   UNL     1       8.209   1.002  -2.165  0.00  0.00    +0.000 A 
ATOM     36  C   UNL     1       7.436   0.540  -3.214  0.00  0.00    +0.000 A 
ATOM     37  C   UNL     1       6.089   0.847  -3.267  0.00  0.00    +0.005 A 
ENDBRANCH  31  32
ENDBRANCH  30  31
ENDBRANCH  26  30
ENDBRANCH   1  26
TORSDOF 7
