REMARK  Name = ZINC12993606
REMARK  9 active torsions:
REMARK  status: ('A' for Active; 'I' for Inactive)
REMARK    1  A    between atoms: C_1  and  C_2
REMARK    2  A    between atoms: C_2  and  O_3
REMARK    3  A    between atoms: O_3  and  C_4
REMARK    4  A    between atoms: C_7  and  S_10
REMARK    5  A    between atoms: S_10  and  N_13
REMARK    6  A    between atoms: C_19  and  C_21
REMARK    7  A    between atoms: C_22  and  C_34
REMARK    8  A    between atoms: N_24  and  C_27
REMARK    9  A    between atoms: C_25  and  C_26
REMARK                            x       y       z     vdW  Elec       q    Type
REMARK                         _______ _______ _______ _____ _____    ______ ____
ROOT
ATOM      1  N   UNL     1      -0.950   2.654  -1.357  0.00  0.00    -0.174 NA
ATOM      2  C   UNL     1      -1.885   1.614  -1.809  0.00  0.00    +0.128 C 
ATOM      3  C   UNL     1      -3.275   2.251  -1.976  0.00  0.00    +0.125 C 
ATOM      4  N   UNL     1      -3.136   3.475  -2.777  0.00  0.00    -0.295 N 
ATOM      5  C   UNL     1      -2.197   4.513  -2.328  0.00  0.00    +0.125 C 
ATOM      6  C   UNL     1      -0.811   3.878  -2.158  0.00  0.00    +0.128 C 
ATOM      7  C   UNL     1      -3.857   3.643  -3.904  0.00  0.00    +0.250 C 
ATOM      8  O   UNL     1      -3.733   4.661  -4.558  0.00  0.00    -0.270 OA
ENDROOT
BRANCH   7   9
ATOM      9  C   UNL     1      -4.795   2.594  -4.342  0.00  0.00    +0.080 A 
ATOM     10  C   UNL     1      -6.157   2.483  -3.983  0.00  0.00    +0.073 A 
ATOM     11  N   UNL     1      -6.647   1.429  -4.574  0.00  0.00    -0.171 NA
ATOM     12  N   UNL     1      -5.635   0.816  -5.322  0.00  0.00    -0.236 N 
ATOM     13  C   UNL     1      -4.505   1.533  -5.176  0.00  0.00    +0.054 A 
ATOM     14  C   UNL     1      -3.170   1.232  -5.808  0.00  0.00    +0.066 C 
ATOM     15  C   UNL     1      -6.913   3.422  -3.078  0.00  0.00    +0.068 C 
BRANCH  12  16
ATOM     16  C   UNL     1      -5.774  -0.346  -6.093  0.00  0.00    +0.066 A 
ATOM     17  C   UNL     1      -6.905  -0.530  -6.876  0.00  0.00    +0.030 A 
ATOM     18  C   UNL     1      -7.039  -1.674  -7.638  0.00  0.00    +0.040 A 
ATOM     19  C   UNL     1      -6.050  -2.643  -7.613  0.00  0.00    +0.124 A 
ATOM     20  C   UNL     1      -4.923  -2.464  -6.828  0.00  0.00    +0.040 A 
ATOM     21  C   UNL     1      -4.783  -1.319  -6.069  0.00  0.00    +0.030 A 
ATOM     22  F   UNL     1      -6.185  -3.764  -8.355  0.00  0.00    -0.205 F 
ENDBRANCH  12  16
ENDBRANCH   7   9
BRANCH   1  23
ATOM     23  S   UNL     1      -0.064   2.447   0.027  0.00  0.00    +0.061 S 
ATOM     24  O   UNL     1       0.025   1.046   0.246  0.00  0.00    -0.153 OA
ATOM     25  O   UNL     1       1.086   3.272  -0.100  0.00  0.00    -0.153 OA
BRANCH  23  29
ATOM     26  C   UNL     1      -2.503   4.141   3.445  0.00  0.00    +0.121 A 
ATOM     27  C   UNL     1      -2.640   2.808   3.088  0.00  0.00    +0.047 A 
ATOM     28  C   UNL     1      -1.895   2.293   2.045  0.00  0.00    +0.032 A 
ATOM     29  C   UNL     1      -1.013   3.106   1.357  0.00  0.00    +0.106 A 
ATOM     30  C   UNL     1      -0.870   4.434   1.715  0.00  0.00    +0.032 A 
ATOM     31  C   UNL     1      -1.617   4.954   2.754  0.00  0.00    +0.047 A 
BRANCH  26  32
ATOM     32  O   UNL     1      -3.235   4.649   4.471  0.00  0.00    -0.492 OA
BRANCH  32  34
ATOM     33  C   UNL     1      -3.945   6.419   5.957  0.00  0.00    +0.048 C 
ATOM     34  C   UNL     1      -3.042   6.030   4.784  0.00  0.00    +0.225 C 
ENDBRANCH  32  34
ENDBRANCH  26  32
ENDBRANCH  23  29
ENDBRANCH   1  23
TORSDOF 6
