REMARK  Name = ZINC39566458
REMARK  6 active torsions:
REMARK  status: ('A' for Active; 'I' for Inactive)
REMARK    1  A    between atoms: C_6  and  C_7
REMARK    2  A    between atoms: C_7  and  N_8
REMARK    3  A    between atoms: C_9  and  C_11
REMARK    4  A    between atoms: C_11  and  O_12
REMARK    5  A    between atoms: O_12  and  C_13
REMARK    6  A    between atoms: C_13  and  C_15
REMARK                            x       y       z     vdW  Elec       q    Type
REMARK                         _______ _______ _______ _____ _____    ______ ____
ROOT
ATOM      1  C   UNL     1      -5.077  -2.980  -4.215  0.00  0.00    +0.340 C 
ATOM      2  O   UNL     1      -4.518  -2.636  -5.237  0.00  0.00    -0.245 OA
ENDROOT
BRANCH   1   3
ATOM      3  C   UNL     1      -6.344  -3.732  -4.284  0.00  0.00    +0.060 A 
ATOM      4  C   UNL     1      -7.001  -4.129  -3.114  0.00  0.00    +0.017 A 
ATOM      5  C   UNL     1      -8.178  -4.828  -3.167  0.00  0.00    +0.025 A 
ATOM      6  C   UNL     1      -8.765  -5.169  -4.401  0.00  0.00    +0.050 A 
ATOM      7  C   UNL     1      -8.088  -4.761  -5.557  0.00  0.00    +0.038 A 
ATOM      8  C   UNL     1      -6.913  -4.057  -5.521  0.00  0.00    +0.032 A 
ATOM      9  S   UNL     1      -9.118  -5.366  -6.872  0.00  0.00    -0.051 S 
ATOM     10  C   UNL     1     -10.373  -6.123  -5.864  0.00  0.00    +0.186 C 
ATOM     11  N   UNL     1     -11.422  -6.757  -6.291  0.00  0.00    -0.110 NA
ATOM     12  S   UNL     1     -12.480  -7.397  -5.180  0.00  0.00    +0.073 S 
ATOM     13  O   UNL     1     -12.871  -8.651  -5.723  0.00  0.00    -0.151 OA
ATOM     14  O   UNL     1     -13.437  -6.373  -4.948  0.00  0.00    -0.151 OA
ATOM     15  C   UNL     1     -11.440  -7.641  -3.708  0.00  0.00    +0.212 C 
ATOM     16  C   UNL     1     -10.732  -6.322  -3.388  0.00  0.00    +0.137 C 
ATOM     17  N   UNL     1      -9.959  -5.875  -4.574  0.00  0.00    -0.276 N 
ENDBRANCH   1   3
BRANCH   1  18
ATOM     18  O   UNL     1      -4.540  -2.673  -3.017  0.00  0.00    -0.452 OA
BRANCH  18  19
ATOM     19  C   UNL     1      -3.312  -1.942  -3.025  0.00  0.00    +0.328 C 
BRANCH  19  21
ATOM     20  N   UNL     1      -1.726  -1.017  -1.368  0.00  0.00    -0.308 N 
ATOM     21  C   UNL     1      -2.867  -1.693  -1.607  0.00  0.00    +0.251 C 
ATOM     22  O   UNL     1      -3.535  -2.101  -0.681  0.00  0.00    -0.272 OA
ATOM     23  H   UNL     1      -1.191  -0.691  -2.109  0.00  0.00    +0.149 HD
BRANCH  20  24
ATOM     24  C   UNL     1      -1.293  -0.775   0.010  0.00  0.00    +0.139 C 
BRANCH  24  30
ATOM     25  C   UNL     1      -0.017   1.378   0.010  0.00  0.00    +0.008 A 
ATOM     26  C   UNL     1       1.170   2.086   0.002  0.00  0.00    +0.038 A 
ATOM     27  C   UNL     1       2.379   1.410  -0.013  0.00  0.00    +0.123 A 
ATOM     28  C   UNL     1       2.396   0.026  -0.021  0.00  0.00    +0.038 A 
ATOM     29  C   UNL     1       1.208  -0.680  -0.013  0.00  0.00    +0.008 A 
ATOM     30  C   UNL     1       0.002  -0.004   0.002  0.00  0.00    -0.030 A 
ATOM     31  F   UNL     1       3.540   2.101  -0.021  0.00  0.00    -0.205 F 
ENDBRANCH  24  30
ENDBRANCH  20  24
ENDBRANCH  19  21
ENDBRANCH  18  19
ENDBRANCH   1  18
TORSDOF 6
