REMARK  Name = ZINC08872010
REMARK  3 active torsions:
REMARK  status: ('A' for Active; 'I' for Inactive)
REMARK    1  A    between atoms: C_5  and  O_28
REMARK    2  A    between atoms: C_6  and  C_7
REMARK    3  A    between atoms: N_8  and  N_9
REMARK                            x       y       z     vdW  Elec       q    Type
REMARK                         _______ _______ _______ _____ _____    ______ ____
ROOT
ATOM      1  N   UNL     1      -2.442  -2.780   0.011  0.00  0.00    -0.205 N 
ATOM      2  C   UNL     1      -2.419  -4.161   0.004  0.00  0.00    +0.241 A 
ATOM      3  N   UNL     1      -1.256  -4.807  -0.006  0.00  0.00    -0.180 NA
ATOM      4  C   UNL     1      -1.235  -6.136  -0.013  0.00  0.00    +0.224 A 
ATOM      5  N   UNL     1      -2.375  -6.819  -0.011  0.00  0.00    -0.181 NA
ATOM      6  C   UNL     1      -3.537  -6.174  -0.002  0.00  0.00    +0.224 A 
ATOM      7  N   UNL     1      -3.559  -4.845   0.011  0.00  0.00    -0.180 NA
ATOM      8  N   UNL     1      -4.721  -6.884   0.001  0.00  0.00    -0.299 N 
ATOM      9  C   UNL     1      -4.712  -8.353  -0.001  0.00  0.00    +0.108 C 
ATOM     10  C   UNL     1      -5.567  -8.853   1.168  0.00  0.00    +0.019 C 
ATOM     11  C   UNL     1      -6.963  -8.232   1.076  0.00  0.00    +0.003 C 
ATOM     12  C   UNL     1      -6.853  -6.709   1.174  0.00  0.00    +0.019 C 
ATOM     13  C   UNL     1      -6.013  -6.185   0.011  0.00  0.00    +0.108 C 
ATOM     14  N   UNL     1      -0.028  -6.806  -0.024  0.00  0.00    -0.299 N 
ATOM     15  C   UNL     1       0.012  -8.275  -0.038  0.00  0.00    +0.108 C 
ATOM     16  C   UNL     1       0.882  -8.733  -1.213  0.00  0.00    +0.019 C 
ATOM     17  C   UNL     1       2.257  -8.067  -1.114  0.00  0.00    +0.003 C 
ATOM     18  C   UNL     1       2.096  -6.547  -1.195  0.00  0.00    +0.019 C 
ATOM     19  C   UNL     1       1.240  -6.064  -0.026  0.00  0.00    +0.108 C 
ATOM     20  H   UNL     1      -3.290  -2.310   0.022  0.00  0.00    +0.177 HD
ENDROOT
BRANCH   1  22
ATOM     21  C   UNL     1      -1.262  -0.762   0.011  0.00  0.00    +0.142 C 
ATOM     22  N   UNL     1      -1.240  -2.060   0.003  0.00  0.00    -0.187 NA
BRANCH  21  28
ATOM     23  C   UNL     1      -0.017   1.392   0.010  0.00  0.00    +0.028 A 
ATOM     24  C   UNL     1       1.170   2.097   0.002  0.00  0.00    +0.020 A 
ATOM     25  C   UNL     1       2.381   1.424  -0.013  0.00  0.00    +0.039 A 
ATOM     26  C   UNL     1       2.412   0.041  -0.021  0.00  0.00    +0.084 A 
ATOM     27  C   UNL     1       1.229  -0.681  -0.013  0.00  0.00    +0.144 A 
ATOM     28  C   UNL     1       0.002  -0.004   0.002  0.00  0.00    +0.038 A 
ATOM     29 CL   UNL     1       3.935  -0.791  -0.041  0.00  0.00    -0.080 Cl
ATOM     30 BR   UNL     1       1.143   3.987   0.013  0.00  0.00    -0.050 Br
BRANCH  27  31
ATOM     31  O   UNL     1       1.259  -2.039  -0.021  0.00  0.00    -0.505 OA
ATOM     32  H   UNL     1       1.276  -2.437   0.860  0.00  0.00    +0.292 HD
ENDBRANCH  27  31
ENDBRANCH  21  28
ENDBRANCH   1  22
TORSDOF 3
