REMARK  Name = ZINC39596700
REMARK  5 active torsions:
REMARK  status: ('A' for Active; 'I' for Inactive)
REMARK    1  A    between atoms: C_1  and  C_2
REMARK    2  A    between atoms: C_2  and  C_4
REMARK    3  A    between atoms: C_2  and  N_10
REMARK    4  A    between atoms: C_11  and  C_13
REMARK    5  A    between atoms: C_24  and  C_26
REMARK                            x       y       z     vdW  Elec       q    Type
REMARK                         _______ _______ _______ _____ _____    ______ ____
ROOT
ATOM      1  C   UNL     1      -3.675  -1.275  -0.995  0.00  0.00    +0.100 C 
ATOM      2  C   UNL     1      -4.539  -0.301  -0.163  0.00  0.00    +0.121 C 
ATOM      3  N   UNL     1      -5.068   0.668  -1.151  0.00  0.00    -0.296 N 
ATOM      4  C   UNL     1      -5.387  -0.156  -2.341  0.00  0.00    +0.115 C 
ATOM      5  C   UNL     1      -4.238  -1.180  -2.423  0.00  0.00    -0.004 C 
ATOM      6  C   UNL     1      -4.771  -2.537  -2.873  0.00  0.00    -0.010 C 
ATOM      7  C   UNL     1      -5.271  -2.432  -4.316  0.00  0.00    -0.082 C 
ATOM      8  N   UNL     1      -4.170  -2.002  -5.187  0.00  0.00    +0.379 N 
ATOM      9  C   UNL     1      -3.726  -0.656  -4.806  0.00  0.00    -0.082 C 
ATOM     10  C   UNL     1      -3.160  -0.687  -3.384  0.00  0.00    -0.010 C 
ATOM     11  C   UNL     1      -5.223   1.999  -1.002  0.00  0.00    +0.247 C 
ATOM     12  O   UNL     1      -5.756   2.651  -1.879  0.00  0.00    -0.270 OA
ATOM     13  H   UNL     1      -3.400  -2.648  -5.096  0.00  0.00    -0.086 HD
ATOM     14  H   UNL     1      -4.486  -1.992  -6.146  0.00  0.00    -0.086 HD
ENDROOT
BRANCH  11  15
ATOM     15  C   UNL     1      -4.747   2.665   0.228  0.00  0.00    +0.045 A 
ATOM     16  C   UNL     1      -5.105   2.161   1.484  0.00  0.00    +0.014 A 
ATOM     17  C   UNL     1      -4.661   2.780   2.632  0.00  0.00    +0.001 A 
ATOM     18  C   UNL     1      -3.857   3.907   2.557  0.00  0.00    +0.012 A 
ATOM     19  C   UNL     1      -3.490   4.423   1.320  0.00  0.00    +0.031 A 
ATOM     20  C   UNL     1      -3.930   3.799   0.142  0.00  0.00    +0.006 A 
ATOM     21  C   UNL     1      -3.391   4.546  -1.022  0.00  0.00    -0.006 A 
ATOM     22  C   UNL     1      -3.527   4.354  -2.391  0.00  0.00    +0.009 A 
ATOM     23  C   UNL     1      -2.904   5.217  -3.278  0.00  0.00    +0.001 A 
ATOM     24  C   UNL     1      -2.145   6.272  -2.811  0.00  0.00    +0.001 A 
ATOM     25  C   UNL     1      -1.999   6.478  -1.448  0.00  0.00    +0.012 A 
ATOM     26  C   UNL     1      -2.619   5.620  -0.548  0.00  0.00    +0.030 A 
ATOM     27  C   UNL     1      -2.660   5.589   0.933  0.00  0.00    +0.194 C 
ATOM     28  O   UNL     1      -2.107   6.363   1.688  0.00  0.00    -0.287 OA
ENDBRANCH  11  15
BRANCH   1  30
ATOM     29  N   UNL     1      -1.253  -1.770  -1.078  0.00  0.00    -0.308 N 
ATOM     30  C   UNL     1      -2.230  -0.848  -0.971  0.00  0.00    +0.219 C 
ATOM     31  O   UNL     1      -1.947   0.326  -0.854  0.00  0.00    -0.275 OA
ATOM     32  H   UNL     1      -1.480  -2.708  -1.171  0.00  0.00    +0.149 HD
BRANCH  29  34
ATOM     33  C   UNL     1       0.624  -1.236   0.396  0.00  0.00    +0.033 C 
ATOM     34  C   UNL     1       0.151  -1.355  -1.055  0.00  0.00    +0.100 C 
BRANCH  34  35
ATOM     35  C   UNL     1       0.990  -2.379  -1.775  0.00  0.00    -0.027 A 
ATOM     36  C   UNL     1       0.721  -3.726  -1.619  0.00  0.00    +0.005 A 
ATOM     37  C   UNL     1       1.490  -4.665  -2.280  0.00  0.00    +0.000 A 
ATOM     38  C   UNL     1       2.529  -4.258  -3.096  0.00  0.00    +0.000 A 
ATOM     39  C   UNL     1       2.798  -2.911  -3.252  0.00  0.00    +0.000 A 
ATOM     40  C   UNL     1       2.026  -1.971  -2.595  0.00  0.00    +0.005 A 
ENDBRANCH  34  35
ENDBRANCH  29  34
ENDBRANCH   1  30
TORSDOF 4
