REMARK  Name = ZINC04519782
REMARK  4 active torsions:
REMARK  status: ('A' for Active; 'I' for Inactive)
REMARK    1  A    between atoms: C_4  and  C_7
REMARK    2  A    between atoms: C_7  and  C_8
REMARK    3  A    between atoms: C_17  and  C_20
REMARK    4  A    between atoms: C_25  and  C_28
REMARK                            x       y       z     vdW  Elec       q    Type
REMARK                         _______ _______ _______ _____ _____    ______ ____
ROOT
ATOM      1  C   UNL     1       2.814   0.488  -2.177  0.00  0.00    +0.145 A 
ATOM      2  N   UNL     1       2.040   1.085  -1.302  0.00  0.00    -0.208 NA
ATOM      3  C   UNL     1       0.726   1.029  -1.472  0.00  0.00    +0.181 A 
ATOM      4  S   UNL     1       0.606   0.105  -2.936  0.00  0.00    +0.049 S 
ATOM      5  N   UNL     1       2.281  -0.137  -3.199  0.00  0.00    -0.192 NA
ATOM      6  N   UNL     1      -0.281   1.569  -0.693  0.00  0.00    -0.308 N 
ATOM      7  C   UNL     1      -0.183   1.097   0.694  0.00  0.00    +0.107 C 
ATOM      8  C   UNL     1      -1.392   1.596   1.490  0.00  0.00    +0.020 C 
ATOM      9  C   UNL     1      -1.426   3.126   1.452  0.00  0.00    +0.016 C 
ATOM     10  C   UNL     1      -1.479   3.592  -0.005  0.00  0.00    +0.092 C 
ATOM     11  C   UNL     1      -0.268   3.035  -0.758  0.00  0.00    +0.119 C 
ENDROOT
BRANCH  10  12
ATOM     12  C   UNL     1      -1.454   5.098  -0.054  0.00  0.00    +0.220 C 
ATOM     13  O   UNL     1      -1.009   5.727   0.883  0.00  0.00    -0.275 OA
ATOM     14  N   UNL     1      -1.924   5.745  -1.138  0.00  0.00    -0.301 N 
ATOM     15  C   UNL     1      -1.825   7.208  -1.238  0.00  0.00    +0.108 C 
ATOM     16  C   UNL     1      -3.211   7.782  -1.526  0.00  0.00    +0.032 C 
ATOM     17  C   UNL     1      -3.793   7.105  -2.768  0.00  0.00    +0.078 C 
ATOM     18  C   UNL     1      -3.935   5.602  -2.513  0.00  0.00    +0.032 C 
ATOM     19  C   UNL     1      -2.552   5.003  -2.239  0.00  0.00    +0.108 C 
BRANCH  17  20
ATOM     20  C   UNL     1      -5.148   7.692  -3.071  0.00  0.00    +0.214 C 
ATOM     21  O   UNL     1      -6.129   6.980  -3.082  0.00  0.00    -0.276 OA
ATOM     22  N   UNL     1      -5.268   9.009  -3.330  0.00  0.00    -0.329 N 
ATOM     23  H   UNL     1      -4.484   9.579  -3.321  0.00  0.00    +0.145 HD
ATOM     24  H   UNL     1      -6.140   9.387  -3.525  0.00  0.00    +0.145 HD
ENDBRANCH  17  20
ENDBRANCH  10  12
BRANCH   1  25
ATOM     25  C   UNL     1       4.311   0.526  -2.012  0.00  0.00    +0.112 C 
BRANCH  25  29
ATOM     26  C   UNL     1       5.879   3.958  -4.015  0.00  0.00    +0.000 A 
ATOM     27  C   UNL     1       5.498   4.045  -2.689  0.00  0.00    +0.000 A 
ATOM     28  C   UNL     1       4.991   2.935  -2.041  0.00  0.00    +0.004 A 
ATOM     29  C   UNL     1       4.864   1.737  -2.719  0.00  0.00    -0.040 A 
ATOM     30  C   UNL     1       5.250   1.648  -4.043  0.00  0.00    +0.004 A 
ATOM     31  C   UNL     1       5.753   2.760  -4.693  0.00  0.00    +0.000 A 
ENDBRANCH  25  29
ENDBRANCH   1  25
TORSDOF 4
