REMARK  Name = ZINC05324017
REMARK  5 active torsions:
REMARK  status: ('A' for Active; 'I' for Inactive)
REMARK    1  A    between atoms: C_1  and  C_2
REMARK    2  A    between atoms: C_2  and  C_23
REMARK    3  A    between atoms: C_6  and  N_16
REMARK    4  A    between atoms: C_9  and  N_15
REMARK    5  A    between atoms: C_10  and  C_12
REMARK                            x       y       z     vdW  Elec       q    Type
REMARK                         _______ _______ _______ _____ _____    ______ ____
ROOT
ATOM      1  C   UNL     1      -8.237   1.933  -1.883  0.00  0.00    +0.041 C 
ATOM      2  C   UNL     1      -8.113   2.223  -0.387  0.00  0.00    +0.068 C 
ATOM      3  C   UNL     1      -6.644   2.142   0.035  0.00  0.00    +0.070 C 
ATOM      4  C   UNL     1      -6.188   0.707   0.008  0.00  0.00    -0.025 A 
ATOM      5  C   UNL     1      -7.066  -0.327  -0.011  0.00  0.00    +0.020 A 
ATOM      6  C   UNL     1      -6.593  -1.646  -0.020  0.00  0.00    +0.105 A 
ATOM      7  C   UNL     1      -4.412  -0.918   0.004  0.00  0.00    +0.089 A 
ATOM      8  C   UNL     1      -4.792   0.442   0.013  0.00  0.00    +0.031 A 
ATOM      9  C   UNL     1      -3.691   1.391   0.027  0.00  0.00    +0.054 A 
ATOM     10  C   UNL     1      -2.403   0.899   0.032  0.00  0.00    +0.097 A 
ATOM     11  S   UNL     1      -2.637  -0.867   0.009  0.00  0.00    -0.064 S 
ATOM     12  C   UNL     1      -8.556  -0.095  -0.029  0.00  0.00    +0.199 C 
ATOM     13  O   UNL     1      -8.851   1.247   0.357  0.00  0.00    -0.369 OA
ATOM     14  C   UNL     1      -8.658   3.621  -0.085  0.00  0.00    +0.041 C 
ATOM     15  N   UNL     1      -5.269  -1.967  -0.011  0.00  0.00    -0.337 N 
ATOM     16  H   UNL     1      -4.942  -2.941  -0.015  0.00  0.00    +0.168 HD
ENDROOT
BRANCH  10  17
ATOM     17  C   UNL     1      -1.187   1.624   0.045  0.00  0.00    +0.250 C 
ATOM     18  O   UNL     1      -1.204   2.841   0.053  0.00  0.00    -0.270 OA
ATOM     19  N   UNL     1      -0.011   0.966   0.047  0.00  0.00    -0.325 N 
ATOM     20  H   UNL     1       0.002  -0.004   0.040  0.00  0.00    +0.145 HD
ATOM     21  H   UNL     1       0.822   1.462   0.052  0.00  0.00    +0.145 HD
ENDBRANCH  10  17
BRANCH   6  22
ATOM     22  N   UNL     1      -7.495  -2.700  -0.038  0.00  0.00    -0.316 N 
ATOM     23  C   UNL     1      -8.315  -2.678  -1.276  0.00  0.00    +0.106 C 
ATOM     24  C   UNL     1      -8.841  -4.131  -1.379  0.00  0.00    +0.020 C 
ATOM     25  C   UNL     1      -7.639  -4.970  -0.888  0.00  0.00    +0.020 C 
ATOM     26  C   UNL     1      -6.790  -4.000  -0.044  0.00  0.00    +0.106 C 
ENDBRANCH   6  22
BRANCH   9  27
ATOM     27  N   UNL     1      -3.931   2.758   0.036  0.00  0.00    -0.356 N 
ATOM     28  H   UNL     1      -3.266   3.369  -0.319  0.00  0.00    +0.142 HD
ATOM     29  H   UNL     1      -4.762   3.103   0.397  0.00  0.00    +0.142 HD
ENDBRANCH   9  27
TORSDOF 3
