REMARK  Name = ZINC20790600
REMARK  8 active torsions:
REMARK  status: ('A' for Active; 'I' for Inactive)
REMARK    1  A    between atoms: C_1  and  C_2
REMARK    2  A    between atoms: C_9  and  N_13
REMARK    3  A    between atoms: C_10  and  C_11
REMARK    4  A    between atoms: C_14  and  C_16
REMARK    5  A    between atoms: C_16  and  S_17
REMARK    6  A    between atoms: S_17  and  C_18
REMARK    7  A    between atoms: N_28  and  C_29
REMARK    8  A    between atoms: C_29  and  C_30
REMARK                            x       y       z     vdW  Elec       q    Type
REMARK                         _______ _______ _______ _____ _____    ______ ____
ROOT
ATOM      1  N   UNL     1      -5.424  -3.608   1.473  0.00  0.00    -0.278 N 
ATOM      2  C   UNL     1      -4.540  -2.591   1.500  0.00  0.00    +0.228 C 
ATOM      3  O   UNL     1      -3.933  -2.341   2.520  0.00  0.00    -0.275 OA
ATOM      4  H   UNL     1      -5.974  -3.834   0.548  0.00  0.00    +0.155 HD
ENDROOT
BRANCH   1  12
ATOM      5  C   UNL     1      -6.280  -7.716   8.076  0.00  0.00    +0.008 C 
ATOM      6  C   UNL     1      -6.164  -7.368   6.591  0.00  0.00    -0.009 C 
ATOM      7  C   UNL     1      -7.555  -7.364   5.951  0.00  0.00    +0.008 C 
ATOM      8  C   UNL     1      -7.428  -7.265   4.430  0.00  0.00    +0.037 C 
ATOM      9  C   UNL     1      -6.538  -6.077   4.088  0.00  0.00    -0.018 A 
ATOM     10  C   UNL     1      -5.716  -5.534   5.014  0.00  0.00    -0.004 A 
ATOM     11  S   UNL     1      -4.901  -4.207   4.172  0.00  0.00    -0.077 S 
ATOM     12  C   UNL     1      -5.639  -4.370   2.613  0.00  0.00    +0.090 A 
ATOM     13  C   UNL     1      -6.503  -5.442   2.783  0.00  0.00    +0.084 A 
ATOM     14  C   UNL     1      -5.544  -5.972   6.436  0.00  0.00    +0.046 C 
BRANCH  13  15
ATOM     15  C   UNL     1      -7.327  -5.908   1.708  0.00  0.00    +0.102 C 
ATOM     16  N   UNL     1      -7.980  -6.278   0.856  0.00  0.00    -0.191 NA
ENDBRANCH  13  15
ENDBRANCH   1  12
BRANCH   2  17
ATOM     17  C   UNL     1      -4.305  -1.764   0.262  0.00  0.00    +0.173 C 
BRANCH  17  18
ATOM     18  S   UNL     1      -3.072  -0.487   0.614  0.00  0.00    -0.078 S 
BRANCH  18  19
ATOM     19  C   UNL     1      -2.996   0.307  -0.957  0.00  0.00    +0.173 A 
ATOM     20  N   UNL     1      -3.756  -0.146  -1.923  0.00  0.00    -0.223 NA
ATOM     21  C   UNL     1      -3.748   0.412  -3.150  0.00  0.00    +0.079 A 
ATOM     22  C   UNL     1      -4.559  -0.072  -4.181  0.00  0.00    +0.028 A 
ATOM     23  C   UNL     1      -4.519   0.525  -5.410  0.00  0.00    +0.002 A 
ATOM     24  C   UNL     1      -3.682   1.607  -5.652  0.00  0.00    +0.001 A 
ATOM     25  C   UNL     1      -2.878   2.103  -4.664  0.00  0.00    +0.015 A 
ATOM     26  C   UNL     1      -2.898   1.513  -3.401  0.00  0.00    +0.065 A 
ATOM     27  C   UNL     1      -2.059   2.007  -2.300  0.00  0.00    +0.263 A 
ATOM     28  O   UNL     1      -1.310   2.954  -2.453  0.00  0.00    -0.267 OA
ATOM     29  N   UNL     1      -2.146   1.365  -1.112  0.00  0.00    -0.283 N 
BRANCH  29  30
ATOM     30  C   UNL     1      -1.328   1.812   0.018  0.00  0.00    +0.154 C 
BRANCH  30  31
ATOM     31  C   UNL     1      -0.013   1.076   0.008  0.00  0.00    -0.013 C 
ATOM     32  C   UNL     1       1.113   1.746   0.001  0.00  0.00    +0.005 C 
ENDBRANCH  30  31
ENDBRANCH  29  30
ENDBRANCH  18  19
ENDBRANCH  17  18
ENDBRANCH   2  17
TORSDOF 7
