REMARK  Name = ZINC45506051
REMARK  9 active torsions:
REMARK  status: ('A' for Active; 'I' for Inactive)
REMARK    1  A    between atoms: C_1  and  N_2
REMARK    2  A    between atoms: C_3  and  N_9
REMARK    3  A    between atoms: C_15  and  C_17
REMARK    4  A    between atoms: C_17  and  C_18
REMARK    5  A    between atoms: C_18  and  N_19
REMARK    6  A    between atoms: N_19  and  C_20
REMARK    7  A    between atoms: N_19  and  C_21
REMARK    8  A    between atoms: C_21  and  C_22
REMARK    9  A    between atoms: C_22  and  C_23
REMARK                            x       y       z     vdW  Elec       q    Type
REMARK                         _______ _______ _______ _____ _____    ______ ____
ROOT
ATOM      1  C   UNL     1      -8.449   1.366  -0.977  0.00  0.00    -0.070 C 
ENDROOT
BRANCH   1   2
ATOM      2  N   UNL     1      -9.654   0.544  -0.802  0.00  0.00    +0.378 N 
ATOM      3  C   UNL     1      -9.804  -0.356  -1.954  0.00  0.00    -0.096 C 
ATOM      4  H   UNL     1      -9.569  -0.002   0.042  0.00  0.00    -0.082 HD
BRANCH   2   5
ATOM      5  C   UNL     1     -10.832   1.416  -0.705  0.00  0.00    -0.078 C 
BRANCH   5   6
ATOM      6  C   UNL     1     -12.069   0.570  -0.399  0.00  0.00    -0.006 C 
BRANCH   6   7
ATOM      7  C   UNL     1     -13.296   1.479  -0.298  0.00  0.00    +0.048 C 
ATOM      8  C   UNL     1     -13.630   2.053  -1.653  0.00  0.00    -0.032 A 
ATOM      9  C   UNL     1     -12.919   2.858  -2.518  0.00  0.00    +0.005 A 
ATOM     10  C   UNL     1     -13.479   3.244  -3.723  0.00  0.00    +0.000 A 
ATOM     11  C   UNL     1     -14.753   2.823  -4.062  0.00  0.00    +0.001 A 
ATOM     12  C   UNL     1     -15.471   2.017  -3.203  0.00  0.00    +0.009 A 
ATOM     13  C   UNL     1     -14.912   1.624  -1.986  0.00  0.00    -0.014 A 
ATOM     14  C   UNL     1     -15.449   0.777  -0.892  0.00  0.00    -0.014 A 
ATOM     15  C   UNL     1     -14.502   0.677   0.124  0.00  0.00    -0.032 A 
ATOM     16  C   UNL     1     -14.773  -0.062   1.256  0.00  0.00    +0.005 A 
ATOM     17  C   UNL     1     -15.988  -0.710   1.387  0.00  0.00    +0.000 A 
ATOM     18  C   UNL     1     -16.935  -0.617   0.382  0.00  0.00    +0.001 A 
ATOM     19  C   UNL     1     -16.673   0.121  -0.753  0.00  0.00    +0.009 A 
ENDBRANCH   6   7
ENDBRANCH   5   6
ENDBRANCH   2   5
ENDBRANCH   1   2
BRANCH   1  20
ATOM     20  C   UNL     1      -7.210   0.467  -0.953  0.00  0.00    +0.077 C 
BRANCH  20  27
ATOM     21  N   UNL     1      -2.462  -0.192   0.018  0.00  0.00    -0.313 N 
ATOM     22  C   UNL     1      -2.598   1.263  -0.144  0.00  0.00    +0.125 C 
ATOM     23  C   UNL     1      -3.544   1.539  -1.319  0.00  0.00    +0.126 C 
ATOM     24  N   UNL     1      -4.758   0.729  -1.145  0.00  0.00    -0.299 N 
ATOM     25  C   UNL     1      -4.623  -0.725  -0.983  0.00  0.00    +0.126 C 
ATOM     26  C   UNL     1      -3.677  -1.002   0.187  0.00  0.00    +0.125 C 
ATOM     27  C   UNL     1      -5.974   1.310  -1.133  0.00  0.00    +0.214 C 
ATOM     28  O   UNL     1      -6.074   2.511  -1.267  0.00  0.00    -0.276 OA
BRANCH  21  31
ATOM     29  C   UNL     1      -1.065  -0.345   2.405  0.00  0.00    +0.154 C 
ATOM     30  N   UNL     1      -0.505  -0.878   1.161  0.00  0.00    -0.300 N 
ATOM     31  C   UNL     1      -1.221  -0.784   0.006  0.00  0.00    +0.104 A 
ATOM     32  C   UNL     1      -0.711  -1.281  -1.175  0.00  0.00    +0.042 A 
ATOM     33  C   UNL     1       0.547  -1.881  -1.184  0.00  0.00    +0.009 A 
ATOM     34  C   UNL     1       1.261  -1.969  -0.007  0.00  0.00    +0.070 A 
ATOM     35  C   UNL     1       0.714  -1.450   1.171  0.00  0.00    +0.252 A 
ATOM     36  O   UNL     1       1.343  -1.520   2.216  0.00  0.00    -0.268 OA
ENDBRANCH  21  31
ENDBRANCH  20  27
ENDBRANCH   1  20
TORSDOF 7
