REMARK  Name = ZINC09137751
REMARK  6 active torsions:
REMARK  status: ('A' for Active; 'I' for Inactive)
REMARK    1  A    between atoms: C_1  and  C_2
REMARK    2  A    between atoms: C_2  and  C_4
REMARK    3  A    between atoms: C_2  and  S_18
REMARK    4  A    between atoms: C_9  and  C_12
REMARK    5  A    between atoms: S_18  and  C_19
REMARK    6  A    between atoms: N_31  and  C_32
REMARK                            x       y       z     vdW  Elec       q    Type
REMARK                         _______ _______ _______ _____ _____    ______ ____
ROOT
ATOM      1  C   UNL     1       3.449   3.739  -1.318  0.00  0.00    +0.029 C 
ATOM      2  C   UNL     1       2.832   4.217  -0.002  0.00  0.00    +0.137 C 
ENDROOT
BRANCH   2   3
ATOM      3  C   UNL     1       3.018   5.707   0.128  0.00  0.00    +0.232 C 
ATOM      4  O   UNL     1       2.103   6.458  -0.139  0.00  0.00    -0.274 OA
ATOM      5  N   UNL     1       4.200   6.205   0.540  0.00  0.00    -0.264 N 
ATOM      6  C   UNL     1       4.371   7.579   0.660  0.00  0.00    +0.165 A 
ATOM      7  N   UNL     1       5.437   8.258   1.043  0.00  0.00    -0.225 NA
ATOM      8  C   UNL     1       5.425   9.581   1.100  0.00  0.00    +0.080 A 
ATOM      9  C   UNL     1       4.288  10.257   0.757  0.00  0.00    +0.076 A 
ATOM     10  S   UNL     1       3.209   8.896   0.330  0.00  0.00    -0.060 S 
ATOM     11  H   UNL     1       4.931   5.605   0.754  0.00  0.00    +0.157 HD
BRANCH   8  12
ATOM     12  C   UNL     1       6.635  10.322   1.534  0.00  0.00    +0.001 A 
ATOM     13  C   UNL     1       6.620  11.714   1.588  0.00  0.00    +0.010 A 
ATOM     14  C   UNL     1       7.747  12.398   1.997  0.00  0.00    +0.001 A 
ATOM     15  C   UNL     1       8.893  11.705   2.341  0.00  0.00    +0.000 A 
ATOM     16  C   UNL     1       8.915  10.323   2.285  0.00  0.00    +0.001 A 
ATOM     17  C   UNL     1       7.792   9.628   1.883  0.00  0.00    +0.010 A 
ENDBRANCH   8  12
ENDBRANCH   2   3
BRANCH   2  18
ATOM     18  S   UNL     1       1.065   3.826   0.013  0.00  0.00    -0.075 S 
BRANCH  18  19
ATOM     19  C   UNL     1       1.141   2.066   0.002  0.00  0.00    +0.173 A 
ATOM     20  N   UNL     1       2.315   1.466  -0.013  0.00  0.00    -0.216 NA
ATOM     21  C   UNL     1       2.400   0.141  -0.021  0.00  0.00    +0.117 A 
ATOM     22  C   UNL     1       1.263  -0.679  -0.014  0.00  0.00    +0.076 A 
ATOM     23  C   UNL     1       1.513  -2.130  -0.024  0.00  0.00    -0.023 A 
ATOM     24  C   UNL     1       2.796  -2.525  -0.042  0.00  0.00    -0.004 A 
ATOM     25  S   UNL     1       3.741  -1.019  -0.042  0.00  0.00    -0.073 S 
ATOM     26  C   UNL     1       2.929  -4.024  -0.054  0.00  0.00    +0.043 C 
ATOM     27  C   UNL     1       1.533  -4.534  -0.477  0.00  0.00    +0.010 C 
ATOM     28  C   UNL     1       0.625  -3.378  -0.015  0.00  0.00    +0.037 C 
ATOM     29  C   UNL     1       0.002  -0.004   0.002  0.00  0.00    +0.263 A 
ATOM     30  O   UNL     1      -1.040  -0.637   0.009  0.00  0.00    -0.267 OA
ATOM     31  N   UNL     1      -0.016   1.342   0.009  0.00  0.00    -0.290 N 
ATOM     32  C   UNL     1      -1.302   2.043   0.019  0.00  0.00    +0.154 C 
ENDBRANCH  18  19
ENDBRANCH   2  18
TORSDOF 4
