REMARK  Name = ZINC49523474
REMARK  9 active torsions:
REMARK  status: ('A' for Active; 'I' for Inactive)
REMARK    1  A    between atoms: C_1  and  C_2
REMARK    2  A    between atoms: C_4  and  S_10
REMARK    3  A    between atoms: S_10  and  N_13
REMARK    4  A    between atoms: N_13  and  C_14
REMARK    5  A    between atoms: C_14  and  C_15
REMARK    6  A    between atoms: N_18  and  C_21
REMARK    7  A    between atoms: C_21  and  C_22
REMARK    8  A    between atoms: C_27  and  S_28
REMARK    9  A    between atoms: S_28  and  C_29
REMARK                            x       y       z     vdW  Elec       q    Type
REMARK                         _______ _______ _______ _____ _____    ______ ____
ROOT
ATOM      1  C   UNL     1       2.800  -6.078  -2.663  0.00  0.00    +0.001 C 
ATOM      2  C   UNL     1       3.947  -5.064  -2.660  0.00  0.00    -0.014 C 
ATOM      3  C   UNL     1       5.253  -5.778  -3.018  0.00  0.00    -0.078 C 
ATOM      4  N   UNL     1       5.525  -6.831  -2.032  0.00  0.00    +0.382 N 
ATOM      5  C   UNL     1       4.465  -7.845  -2.080  0.00  0.00    -0.078 C 
ATOM      6  C   UNL     1       3.129  -7.210  -1.686  0.00  0.00    -0.014 C 
ATOM      7  H   UNL     1       5.559  -6.425  -1.109  0.00  0.00    -0.081 HD
ENDROOT
BRANCH   1   8
ATOM      8  C   UNL     1       1.506  -5.387  -2.229  0.00  0.00    +0.109 C 
BRANCH   8   9
ATOM      9  N   UNL     1       1.128  -4.385  -3.228  0.00  0.00    -0.190 NA
ATOM     10  H   UNL     1       1.773  -4.095  -3.892  0.00  0.00    +0.148 HD
BRANCH   9  11
ATOM     11  S   UNL     1      -0.400  -3.746  -3.224  0.00  0.00    +0.060 S 
ATOM     12  O   UNL     1      -1.299  -4.843  -3.146  0.00  0.00    -0.153 OA
ATOM     13  O   UNL     1      -0.446  -2.797  -4.280  0.00  0.00    -0.153 OA
BRANCH  11  17
ATOM     14  C   UNL     1      -1.084   0.739  -0.628  0.00  0.00    +0.045 C 
ATOM     15  C   UNL     1      -0.896  -0.756  -0.586  0.00  0.00    -0.030 A 
ATOM     16  C   UNL     1      -0.753  -1.468  -1.762  0.00  0.00    +0.034 A 
ATOM     17  C   UNL     1      -0.581  -2.839  -1.724  0.00  0.00    +0.124 A 
ATOM     18  C   UNL     1      -0.551  -3.499  -0.508  0.00  0.00    +0.069 A 
ATOM     19  C   UNL     1      -0.694  -2.787   0.669  0.00  0.00    +0.042 A 
ATOM     20  C   UNL     1      -0.861  -1.414   0.630  0.00  0.00    +0.045 A 
ATOM     21 CL   UNL     1      -1.035  -0.519   2.107  0.00  0.00    -0.083 Cl
ATOM     22 CL   UNL     1      -0.336  -5.221  -0.461  0.00  0.00    -0.081 Cl
ENDBRANCH  11  17
ENDBRANCH   9  11
ENDBRANCH   8   9
ENDBRANCH   1   8
BRANCH   4  23
ATOM     23  C   UNL     1       6.817  -7.461  -2.335  0.00  0.00    -0.042 C 
BRANCH  23  24
ATOM     24  C   UNL     1       7.166  -8.440  -1.244  0.00  0.00    -0.051 A 
ATOM     25  C   UNL     1       6.996  -9.795  -1.450  0.00  0.00    +0.003 A 
ATOM     26  C   UNL     1       7.317 -10.694  -0.450  0.00  0.00    +0.000 A 
ATOM     27  C   UNL     1       7.809 -10.240   0.761  0.00  0.00    +0.001 A 
ATOM     28  C   UNL     1       7.981  -8.887   0.974  0.00  0.00    +0.015 A 
ATOM     29  C   UNL     1       7.666  -7.981  -0.031  0.00  0.00    +0.009 A 
BRANCH  29  30
ATOM     30  S   UNL     1       7.891  -6.254   0.234  0.00  0.00    -0.128 S 
ATOM     31  C   UNL     1       8.548  -6.151   1.922  0.00  0.00    +0.090 C 
ENDBRANCH  29  30
ENDBRANCH  23  24
ENDBRANCH   4  23
TORSDOF 7
