REMARK  Name = ZINC09360423
REMARK  2 active torsions:
REMARK  status: ('A' for Active; 'I' for Inactive)
REMARK    1  A    between atoms: C_1  and  C_2
REMARK    2  A    between atoms: N_23  and  C_26
REMARK                            x       y       z     vdW  Elec       q    Type
REMARK                         _______ _______ _______ _____ _____    ______ ____
ROOT
ATOM      1  C   UNL     1      -0.880   5.492   1.121  0.00  0.00    +0.047 C 
ATOM      2  C   UNL     1      -0.670   4.017   0.894  0.00  0.00    -0.011 A 
ATOM      3  C   UNL     1       0.609   3.497   0.889  0.00  0.00    +0.046 A 
ATOM      4  C   UNL     1       0.812   2.144   0.682  0.00  0.00    +0.020 A 
ATOM      5  C   UNL     1      -0.272   1.309   0.478  0.00  0.00    +0.006 A 
ATOM      6  C   UNL     1      -1.548   1.825   0.476  0.00  0.00    -0.027 A 
ATOM      7  C   UNL     1      -1.766   3.183   0.690  0.00  0.00    +0.040 A 
ATOM      8  N   UNL     1      -3.133   3.465   0.652  0.00  0.00    -0.286 N 
ATOM      9  C   UNL     1      -3.872   2.365   0.410  0.00  0.00    +0.212 C 
ATOM     10  O   UNL     1      -5.080   2.310   0.322  0.00  0.00    -0.277 OA
ATOM     11  C   UNL     1      -2.909   1.216   0.283  0.00  0.00    +0.053 C 
ATOM     12  C   UNL     1      -3.028   0.537  -1.087  0.00  0.00    +0.089 C 
ATOM     13  C   UNL     1      -3.912  -0.714  -0.832  0.00  0.00    +0.074 C 
ATOM     14  C   UNL     1      -4.247  -0.671   0.670  0.00  0.00    -0.054 C 
ATOM     15  C   UNL     1      -2.008  -0.729   1.401  0.00  0.00    -0.076 C 
ATOM     16  C   UNL     1      -2.592  -2.107   1.772  0.00  0.00    -0.020 C 
ATOM     17  C   UNL     1      -4.051  -2.073   1.276  0.00  0.00    -0.016 C 
ATOM     18  C   UNL     1      -5.162  -0.427  -1.634  0.00  0.00    +0.228 C 
ATOM     19  O   UNL     1      -6.126  -1.158  -1.714  0.00  0.00    -0.275 OA
ATOM     20  N   UNL     1      -5.038   0.758  -2.241  0.00  0.00    -0.210 N 
ATOM     21  C   UNL     1      -3.880   1.386  -2.004  0.00  0.00    +0.229 C 
ATOM     22  O   UNL     1      -3.564   2.466  -2.454  0.00  0.00    -0.275 OA
ATOM     23 CL   UNL     1       1.969   4.545   1.145  0.00  0.00    -0.083 Cl
ATOM     24  H   UNL     1      -3.506   4.351   0.775  0.00  0.00    +0.155 HD
ATOM     25  N   UNL     1      -3.190   0.134   1.238  0.00  0.00    +0.395 N 
ATOM     26  H   UNL     1      -3.472   0.523   2.145  0.00  0.00    -0.079 HD
ENDROOT
BRANCH  20  27
ATOM     27  C   UNL     1      -6.039   1.298  -3.061  0.00  0.00    +0.044 A 
ATOM     28  C   UNL     1      -5.817   1.448  -4.423  0.00  0.00    +0.024 A 
ATOM     29  C   UNL     1      -6.806   1.976  -5.229  0.00  0.00    +0.002 A 
ATOM     30  C   UNL     1      -8.014   2.365  -4.678  0.00  0.00    +0.000 A 
ATOM     31  C   UNL     1      -8.236   2.223  -3.321  0.00  0.00    +0.002 A 
ATOM     32  C   UNL     1      -7.252   1.690  -2.511  0.00  0.00    +0.024 A 
ENDBRANCH  20  27
TORSDOF 1
