REMARK  Name = ZINC41584592
REMARK  7 active torsions:
REMARK  status: ('A' for Active; 'I' for Inactive)
REMARK    1  A    between atoms: C_1  and  C_2
REMARK    2  A    between atoms: C_5  and  C_7
REMARK    3  A    between atoms: C_12  and  C_33
REMARK    4  A    between atoms: C_14  and  O_32
REMARK    5  A    between atoms: C_15  and  C_18
REMARK    6  A    between atoms: C_18  and  N_19
REMARK    7  A    between atoms: C_24  and  C_26
REMARK                            x       y       z     vdW  Elec       q    Type
REMARK                         _______ _______ _______ _____ _____    ______ ____
ROOT
ATOM      1  C   UNL     1       1.170  -2.564  -1.324  0.00  0.00    +0.096 C 
ATOM      2  C   UNL     1       2.525  -2.437  -1.228  0.00  0.00    +0.179 C 
ATOM      3  C   UNL     1       3.477  -3.445  -1.539  0.00  0.00    +0.232 C 
ATOM      4  O   UNL     1       3.256  -4.576  -1.939  0.00  0.00    -0.283 OA
ATOM      5  C   UNL     1       4.790  -2.830  -1.276  0.00  0.00    +0.071 A 
ATOM      6  C   UNL     1       6.104  -3.287  -1.383  0.00  0.00    -0.033 A 
ATOM      7  C   UNL     1       7.140  -2.459  -1.056  0.00  0.00    +0.050 A 
ATOM      8  C   UNL     1       6.889  -1.161  -0.617  0.00  0.00    +0.122 A 
ATOM      9  C   UNL     1       5.590  -0.694  -0.505  0.00  0.00    +0.020 A 
ATOM     10  C   UNL     1       4.526  -1.523  -0.834  0.00  0.00    +0.145 A 
ATOM     11  O   UNL     1       3.189  -1.329  -0.825  0.00  0.00    -0.451 OA
ATOM     12  C   UNL     1       6.379  -4.690  -1.857  0.00  0.00    +0.045 C 
ENDROOT
BRANCH   1  17
ATOM     13  C   UNL     1      -0.270   2.095  -0.430  0.00  0.00    +0.086 C 
ATOM     14  C   UNL     1      -0.317   0.613  -0.700  0.00  0.00    +0.103 A 
ATOM     15  C   UNL     1      -1.441  -0.130  -0.805  0.00  0.00    +0.045 A 
ATOM     16  C   UNL     1      -1.043  -1.451  -1.058  0.00  0.00    +0.049 A 
ATOM     17  C   UNL     1       0.338  -1.445  -1.095  0.00  0.00    +0.132 A 
ATOM     18  O   UNL     1       0.750  -0.178  -0.879  0.00  0.00    -0.460 OA
ENDBRANCH   1  17
BRANCH   8  19
ATOM     19  O   UNL     1       7.927  -0.347  -0.295  0.00  0.00    -0.506 OA
ATOM     20  H   UNL     1       8.260   0.177  -1.036  0.00  0.00    +0.292 HD
ENDBRANCH   8  19
BRANCH   9  21
ATOM     21  C   UNL     1       5.331   0.712  -0.028  0.00  0.00    -0.035 C 
BRANCH  21  22
ATOM     22  N   UNL     1       5.344   0.740   1.441  0.00  0.00    +0.387 N 
ATOM     23  C   UNL     1       4.236  -0.075   1.954  0.00  0.00    -0.078 C 
ATOM     24  C   UNL     1       4.293  -0.115   3.482  0.00  0.00    -0.019 C 
ATOM     25  C   UNL     1       4.175   1.310   4.029  0.00  0.00    -0.003 C 
ATOM     26  C   UNL     1       5.291   2.170   3.430  0.00  0.00    -0.011 C 
ATOM     27  C   UNL     1       5.198   2.126   1.903  0.00  0.00    -0.036 C 
ATOM     28  H   UNL     1       6.218   0.365   1.776  0.00  0.00    -0.080 HD
BRANCH  27  29
ATOM     29  C   UNL     1       6.294   2.971   1.308  0.00  0.00    -0.043 A 
ATOM     30  C   UNL     1       6.002   4.200   0.737  0.00  0.00    +0.005 A 
ATOM     31  C   UNL     1       7.042   4.944   0.202  0.00  0.00    +0.020 A 
ATOM     32  C   UNL     1       8.328   4.439   0.255  0.00  0.00    +0.111 A 
ATOM     33  N   UNL     1       8.569   3.265   0.805  0.00  0.00    -0.263 NA
ATOM     34  C   UNL     1       7.605   2.533   1.329  0.00  0.00    +0.112 A 
ENDBRANCH  27  29
ENDBRANCH  21  22
ENDBRANCH   9  21
TORSDOF 5
