REMARK  Name = ZINC17194532
REMARK  3 active torsions:
REMARK  status: ('A' for Active; 'I' for Inactive)
REMARK    1  A    between atoms: C_1  and  C_2
REMARK    2  A    between atoms: C_6  and  N_8
REMARK    3  A    between atoms: C_11  and  C_18
REMARK                            x       y       z     vdW  Elec       q    Type
REMARK                         _______ _______ _______ _____ _____    ______ ____
ROOT
ATOM      1  N   UNL     1       0.051  -2.798   2.394  0.00  0.00    -0.229 N 
ATOM      2  C   UNL     1      -0.028  -4.144   2.381  0.00  0.00    +0.267 A 
ATOM      3  O   UNL     1      -0.112  -4.743   1.323  0.00  0.00    -0.267 OA
ATOM      4  C   UNL     1      -0.013  -4.851   3.596  0.00  0.00    +0.073 A 
ATOM      5  C   UNL     1       0.082  -4.157   4.766  0.00  0.00    +0.260 A 
ATOM      6  N   UNL     1       0.160  -2.787   4.734  0.00  0.00    -0.274 N 
ATOM      7  H   UNL     1       0.228  -2.289   5.563  0.00  0.00    +0.173 HD
ATOM      8  C   UNL     1       0.150  -2.131   3.559  0.00  0.00    +0.337 A 
ATOM      9  O   UNL     1       0.225  -0.918   3.550  0.00  0.00    -0.246 OA
ATOM     10  O   UNL     1       0.098  -4.811   5.946  0.00  0.00    -0.267 OA
ENDROOT
BRANCH   4  11
ATOM     11  C   UNL     1      -0.101  -6.355   3.606  0.00  0.00    +0.018 C 
ATOM     12  C   UNL     1       1.123  -6.939   2.941  0.00  0.00    +0.011 A 
ATOM     13  C   UNL     1       1.065  -7.977   2.075  0.00  0.00    -0.022 A 
ATOM     14  C   UNL     1       2.417  -8.252   1.646  0.00  0.00    +0.003 A 
ATOM     15  C   UNL     1       2.964  -9.195   0.770  0.00  0.00    +0.010 A 
ATOM     16  C   UNL     1       4.326  -9.165   0.596  0.00  0.00    +0.001 A 
ATOM     17  C   UNL     1       5.132  -8.249   1.251  0.00  0.00    +0.002 A 
ATOM     18  C   UNL     1       4.618  -7.305   2.123  0.00  0.00    +0.026 A 
ATOM     19  C   UNL     1       3.239  -7.311   2.320  0.00  0.00    +0.047 A 
ATOM     20  N   UNL     1       2.422  -6.536   3.093  0.00  0.00    -0.359 N 
ATOM     21  H   UNL     1       2.718  -5.810   3.663  0.00  0.00    +0.166 HD
ATOM     22  C   UNL     1      -0.223  -8.661   1.692  0.00  0.00    +0.018 C 
ATOM     23  C   UNL     1      -1.296  -8.246   2.708  0.00  0.00    -0.076 C 
ATOM     24  N   UNL     1      -1.294  -6.785   2.861  0.00  0.00    +0.388 N 
ATOM     25  H   UNL     1      -2.122  -6.497   3.361  0.00  0.00    -0.084 HD
ATOM     26  H   UNL     1      -1.291  -6.355   1.948  0.00  0.00    -0.084 HD
ENDBRANCH   4  11
BRANCH   1  32
ATOM     27  C   UNL     1      -2.490  -0.510  -1.141  0.00  0.00    +0.044 C 
ATOM     28  C   UNL     1      -1.181  -0.969  -0.549  0.00  0.00    -0.048 A 
ATOM     29  C   UNL     1       0.006  -0.689  -1.200  0.00  0.00    +0.003 A 
ATOM     30  C   UNL     1       1.209  -1.108  -0.661  0.00  0.00    +0.002 A 
ATOM     31  C   UNL     1       1.227  -1.807   0.530  0.00  0.00    +0.026 A 
ATOM     32  C   UNL     1       0.036  -2.089   1.186  0.00  0.00    +0.055 A 
ATOM     33  C   UNL     1      -1.169  -1.662   0.645  0.00  0.00    +0.029 A 
ENDBRANCH   1  32
TORSDOF 2
