REMARK  Name = ZINC38649150
REMARK  9 active torsions:
REMARK  status: ('A' for Active; 'I' for Inactive)
REMARK    1  A    between atoms: C_1  and  C_2
REMARK    2  A    between atoms: C_5  and  C_8
REMARK    3  A    between atoms: C_13  and  O_22
REMARK    4  A    between atoms: C_17  and  N_21
REMARK    5  A    between atoms: C_18  and  C_19
REMARK    6  A    between atoms: O_22  and  C_23
REMARK    7  A    between atoms: C_23  and  C_25
REMARK    8  A    between atoms: C_28  and  O_31
REMARK    9  A    between atoms: O_31  and  C_32
REMARK                            x       y       z     vdW  Elec       q    Type
REMARK                         _______ _______ _______ _____ _____    ______ ____
ROOT
ATOM      1  C   UNL     1       0.022  -4.236  -0.058  0.00  0.00    +0.098 C 
ATOM      2  C   UNL     1      -1.192  -4.766   0.659  0.00  0.00    +0.008 A 
ATOM      3  C   UNL     1      -2.435  -4.660   0.062  0.00  0.00    +0.012 A 
ATOM      4  C   UNL     1      -3.559  -5.140   0.704  0.00  0.00    +0.047 A 
ATOM      5  C   UNL     1      -3.443  -5.733   1.954  0.00  0.00    +0.135 A 
ATOM      6  C   UNL     1      -2.200  -5.840   2.555  0.00  0.00    +0.093 A 
ATOM      7  C   UNL     1      -1.070  -5.356   1.908  0.00  0.00    +0.138 A 
ATOM      8  O   UNL     1       0.140  -5.468   2.509  0.00  0.00    -0.441 OA
ATOM      9  C   UNL     1       1.263  -5.376   1.778  0.00  0.00    +0.199 C 
ATOM     10  C   UNL     1       1.272  -4.802   0.554  0.00  0.00    +0.098 C 
ENDROOT
BRANCH   1  15
ATOM     11  C   UNL     1       0.124   1.527   0.361  0.00  0.00    +0.044 C 
ATOM     12  C   UNL     1       0.097   0.024   0.252  0.00  0.00    -0.050 A 
ATOM     13  C   UNL     1       0.037  -0.578  -0.992  0.00  0.00    +0.003 A 
ATOM     14  C   UNL     1       0.013  -1.956  -1.092  0.00  0.00    +0.005 A 
ATOM     15  C   UNL     1       0.049  -2.733   0.051  0.00  0.00    -0.035 A 
ATOM     16  C   UNL     1       0.110  -2.131   1.294  0.00  0.00    +0.005 A 
ATOM     17  C   UNL     1       0.139  -0.753   1.394  0.00  0.00    +0.003 A 
ENDBRANCH   1  15
BRANCH   9  18
ATOM     18  N   UNL     1       2.434  -5.878   2.289  0.00  0.00    -0.328 N 
ATOM     19  H   UNL     1       2.442  -6.292   3.166  0.00  0.00    +0.145 HD
ATOM     20  H   UNL     1       3.253  -5.818   1.772  0.00  0.00    +0.145 HD
ENDBRANCH   9  18
BRANCH  10  21
ATOM     21  C   UNL     1       2.503  -4.734  -0.174  0.00  0.00    +0.101 C 
ATOM     22  N   UNL     1       3.480  -4.680  -0.752  0.00  0.00    -0.191 NA
ENDBRANCH  10  21
BRANCH   5  23
ATOM     23  O   UNL     1      -4.548  -6.206   2.588  0.00  0.00    -0.422 OA
BRANCH  23  24
ATOM     24  C   UNL     1      -5.154  -7.295   2.075  0.00  0.00    +0.344 C 
ATOM     25  O   UNL     1      -4.652  -7.886   1.139  0.00  0.00    -0.245 OA
BRANCH  24  26
ATOM     26  C   UNL     1      -6.426  -7.771   2.651  0.00  0.00    +0.060 A 
ATOM     27  C   UNL     1      -7.008  -7.091   3.724  0.00  0.00    +0.018 A 
ATOM     28  C   UNL     1      -8.195  -7.538   4.257  0.00  0.00    +0.046 A 
ATOM     29  C   UNL     1      -8.816  -8.665   3.730  0.00  0.00    +0.120 A 
ATOM     30  C   UNL     1      -8.240  -9.345   2.663  0.00  0.00    +0.046 A 
ATOM     31  C   UNL     1      -7.055  -8.901   2.120  0.00  0.00    +0.018 A 
BRANCH  29  32
ATOM     32  O   UNL     1      -9.986  -9.103   4.259  0.00  0.00    -0.495 OA
ATOM     33  C   UNL     1     -10.569 -10.267   3.670  0.00  0.00    +0.277 C 
ENDBRANCH  29  32
ENDBRANCH  24  26
ENDBRANCH  23  24
ENDBRANCH   5  23
TORSDOF 7
