REMARK  Name = ZINC09079912
REMARK  11 active torsions:
REMARK  status: ('A' for Active; 'I' for Inactive)
REMARK    1  A    between atoms: C_1  and  N_2
REMARK    2  A    between atoms: N_2  and  C_3
REMARK    3  A    between atoms: N_2  and  C_4
REMARK    4  A    between atoms: C_7  and  C_10
REMARK    5  A    between atoms: C_10  and  C_12
REMARK    6  A    between atoms: C_10  and  S_29
REMARK    7  A    between atoms: C_12  and  N_13
REMARK    8  A    between atoms: C_14  and  C_16
REMARK    9  A    between atoms: C_16  and  C_17
REMARK   10  A    between atoms: C_17  and  N_18
REMARK   11  A    between atoms: S_29  and  C_32
REMARK                            x       y       z     vdW  Elec       q    Type
REMARK                         _______ _______ _______ _____ _____    ______ ____
ROOT
ATOM      1  C   UNL     1       2.490   1.045  -0.022  0.00  0.00    +0.183 C 
ENDROOT
BRANCH   1   5
ATOM      2  C   UNL     1      -1.236   3.138   0.029  0.00  0.00    +0.029 A 
ATOM      3  C   UNL     1      -1.218   1.749   0.029  0.00  0.00    +0.023 A 
ATOM      4  C   UNL     1      -0.012   1.076   0.018  0.00  0.00    +0.007 A 
ATOM      5  C   UNL     1       1.176   1.783  -0.004  0.00  0.00    -0.021 A 
ATOM      6  C   UNL     1       1.161   3.166  -0.010  0.00  0.00    +0.007 A 
ATOM      7  C   UNL     1      -0.041   3.845   0.006  0.00  0.00    +0.023 A 
BRANCH   2   9
ATOM      8  C   UNL     1      -2.472   5.282   0.166  0.00  0.00    +0.129 C 
ATOM      9  N   UNL     1      -2.454   3.822   0.046  0.00  0.00    -0.336 N 
ATOM     10  C   UNL     1      -3.712   3.080  -0.056  0.00  0.00    +0.129 C 
ENDBRANCH   2   9
ENDBRANCH   1   5
BRANCH   1  11
ATOM     11  S   UNL     1       3.412   1.488  -1.520  0.00  0.00    +0.005 S 
ATOM     12  O   UNL     1       4.723   0.943  -1.468  0.00  0.00    -0.169 OA
ATOM     13  O   UNL     1       2.596   1.304  -2.670  0.00  0.00    -0.169 OA
BRANCH  11  14
ATOM     14  C   UNL     1       3.645   3.231  -1.410  0.00  0.00    +0.089 A 
ATOM     15  C   UNL     1       2.708   4.090  -1.954  0.00  0.00    +0.027 A 
ATOM     16  C   UNL     1       2.889   5.457  -1.863  0.00  0.00    +0.002 A 
ATOM     17  C   UNL     1       4.011   5.966  -1.236  0.00  0.00    +0.000 A 
ATOM     18  C   UNL     1       4.950   5.107  -0.697  0.00  0.00    +0.002 A 
ATOM     19  C   UNL     1       4.767   3.740  -0.783  0.00  0.00    +0.027 A 
ENDBRANCH  11  14
ENDBRANCH   1  11
BRANCH   1  20
ATOM     20  C   UNL     1       3.308   1.429   1.212  0.00  0.00    +0.135 C 
BRANCH  20  21
ATOM     21  N   UNL     1       4.585   0.712   1.194  0.00  0.00    -0.313 N 
ATOM     22  C   UNL     1       5.474   0.895   2.190  0.00  0.00    +0.215 C 
ATOM     23  O   UNL     1       5.218   1.653   3.101  0.00  0.00    -0.276 OA
ATOM     24  H   UNL     1       4.790   0.105   0.466  0.00  0.00    +0.149 HD
BRANCH  22  25
ATOM     25  C   UNL     1       6.788   0.157   2.172  0.00  0.00    +0.115 C 
BRANCH  25  26
ATOM     26  C   UNL     1       7.606   0.541   3.407  0.00  0.00    +0.126 C 
BRANCH  26  27
ATOM     27  N   UNL     1       8.883  -0.177   3.389  0.00  0.00    -0.234 N 
ATOM     28  C   UNL     1       9.087  -1.382   3.950  0.00  0.00    +0.254 C 
ATOM     29  O   UNL     1       8.254  -2.038   4.543  0.00  0.00    -0.270 OA
ATOM     30  C   UNL     1      10.494  -1.776   3.723  0.00  0.00    +0.049 A 
ATOM     31  C   UNL     1      11.255  -2.883   4.061  0.00  0.00    +0.014 A 
ATOM     32  C   UNL     1      12.589  -2.939   3.688  0.00  0.00    +0.001 A 
ATOM     33  C   UNL     1      13.164  -1.899   2.983  0.00  0.00    +0.001 A 
ATOM     34  C   UNL     1      12.415  -0.785   2.639  0.00  0.00    +0.014 A 
ATOM     35  C   UNL     1      11.080  -0.715   3.004  0.00  0.00    +0.049 A 
ATOM     36  C   UNL     1      10.008   0.285   2.814  0.00  0.00    +0.254 C 
ATOM     37  O   UNL     1      10.124   1.347   2.236  0.00  0.00    -0.270 OA
ENDBRANCH  26  27
ENDBRANCH  25  26
ENDBRANCH  22  25
ENDBRANCH  20  21
ENDBRANCH   1  20
TORSDOF 9
