REMARK  Name = ZINC43735685
REMARK  9 active torsions:
REMARK  status: ('A' for Active; 'I' for Inactive)
REMARK    1  A    between atoms: C_1  and  C_2
REMARK    2  A    between atoms: C_19  and  C_21
REMARK    3  A    between atoms: C_21  and  N_22
REMARK    4  A    between atoms: N_22  and  C_23
REMARK    5  A    between atoms: N_22  and  C_30
REMARK    6  A    between atoms: C_23  and  C_24
REMARK    7  A    between atoms: C_30  and  C_31
REMARK    8  A    between atoms: C_34  and  O_37
REMARK    9  A    between atoms: O_37  and  C_38
REMARK                            x       y       z     vdW  Elec       q    Type
REMARK                         _______ _______ _______ _____ _____    ______ ____
ROOT
ATOM      1  N   UNL     1      -1.408  -6.369   0.886  0.00  0.00    +0.386 N 
ATOM      2  H   UNL     1      -1.340  -6.430  -0.118  0.00  0.00    -0.081 HD
ENDROOT
BRANCH   1   3
ATOM      3  C   UNL     1      -1.593  -4.966   1.280  0.00  0.00    -0.063 C 
BRANCH   3  19
ATOM      4  C   UNL     1       0.264   1.481   0.006  0.00  0.00    +0.012 C 
ATOM      5  C   UNL     1       0.226  -0.049  -0.007  0.00  0.00    -0.022 C 
ATOM      6  C   UNL     1       0.995  -0.562  -1.222  0.00  0.00    +0.007 C 
ATOM      7  C   UNL     1       2.412   0.015  -1.212  0.00  0.00    +0.005 C 
ATOM      8  C   UNL     1       3.158  -0.472   0.033  0.00  0.00    +0.030 C 
ATOM      9  C   UNL     1       2.333  -0.143   1.258  0.00  0.00    -0.073 C 
ATOM     10  C   UNL     1       2.856   0.501   2.272  0.00  0.00    +0.008 C 
ATOM     11  C   UNL     1       0.881  -0.583   1.273  0.00  0.00    +0.021 C 
ATOM     12  C   UNL     1       0.858  -2.110   1.230  0.00  0.00    +0.016 C 
ATOM     13  C   UNL     1      -0.575  -2.641   1.178  0.00  0.00    +0.042 C 
ATOM     14  C   UNL     1      -1.348  -1.999   0.008  0.00  0.00    +0.181 C 
ATOM     15  C   UNL     1      -1.223  -0.515  -0.064  0.00  0.00    +0.052 C 
ATOM     16  O   UNL     1      -0.810  -2.648  -1.150  0.00  0.00    -0.461 OA
ATOM     17  C   UNL     1      -0.672  -3.959  -0.850  0.00  0.00    +0.309 C 
ATOM     18  O   UNL     1      -0.698  -4.867  -1.646  0.00  0.00    -0.251 OA
ATOM     19  C   UNL     1      -0.479  -4.113   0.671  0.00  0.00    +0.088 C 
ENDBRANCH   3  19
ENDBRANCH   1   3
BRANCH   1  20
ATOM     20  C   UNL     1      -2.554  -7.163   1.349  0.00  0.00    -0.043 C 
BRANCH  20  21
ATOM     21  C   UNL     1      -3.798  -6.719   0.624  0.00  0.00    -0.064 A 
ATOM     22  C   UNL     1      -4.639  -5.787   1.202  0.00  0.00    +0.002 A 
ATOM     23  C   UNL     1      -5.781  -5.380   0.537  0.00  0.00    +0.000 A 
ATOM     24  C   UNL     1      -6.080  -5.904  -0.707  0.00  0.00    +0.000 A 
ATOM     25  C   UNL     1      -5.238  -6.835  -1.286  0.00  0.00    +0.000 A 
ATOM     26  C   UNL     1      -4.095  -7.239  -0.622  0.00  0.00    +0.002 A 
ENDBRANCH  20  21
ENDBRANCH   1  20
BRANCH   1  27
ATOM     27  C   UNL     1      -0.175  -6.889   1.493  0.00  0.00    -0.043 C 
BRANCH  27  28
ATOM     28  C   UNL     1       0.081  -8.287   0.992  0.00  0.00    -0.064 A 
ATOM     29  C   UNL     1      -0.443  -9.370   1.672  0.00  0.00    +0.005 A 
ATOM     30  C   UNL     1      -0.210 -10.653   1.214  0.00  0.00    +0.046 A 
ATOM     31  C   UNL     1       0.551 -10.853   0.071  0.00  0.00    +0.120 A 
ATOM     32  C   UNL     1       1.075  -9.764  -0.609  0.00  0.00    +0.046 A 
ATOM     33  C   UNL     1       0.834  -8.483  -0.151  0.00  0.00    +0.005 A 
BRANCH  31  34
ATOM     34  O   UNL     1       0.782 -12.114  -0.380  0.00  0.00    -0.495 OA
ATOM     35  C   UNL     1       1.573 -12.244  -1.563  0.00  0.00    +0.277 C 
ENDBRANCH  31  34
ENDBRANCH  27  28
ENDBRANCH   1  27
TORSDOF 7
