REMARK  Name = ZINC38960030
REMARK  4 active torsions:
REMARK  status: ('A' for Active; 'I' for Inactive)
REMARK    1  A    between atoms: C_10  and  N_11
REMARK    2  A    between atoms: C_12  and  S_37
REMARK    3  A    between atoms: C_15  and  O_36
REMARK    4  A    between atoms: C_17  and  C_21
REMARK                            x       y       z     vdW  Elec       q    Type
REMARK                         _______ _______ _______ _____ _____    ______ ____
ROOT
ATOM      1  N   UNL     1       4.878   0.139  -0.004  0.00  0.00    -0.245 N 
ATOM      2  C   UNL     1       5.522   0.473   1.261  0.00  0.00    +0.208 C 
ATOM      3  N   UNL     1       6.943   0.776   1.053  0.00  0.00    -0.264 NA
ATOM      4  C   UNL     1       7.103   1.793   0.001  0.00  0.00    +0.198 C 
ATOM      5  C   UNL     1       6.709   1.169  -1.341  0.00  0.00    +0.141 C 
ATOM      6  C   UNL     1       5.393   0.456  -1.196  0.00  0.00    +0.230 C 
ATOM      7  O   UNL     1       4.774   0.163  -2.197  0.00  0.00    -0.275 OA
ATOM      8  H   UNL     1       7.380   1.073   1.913  0.00  0.00    +0.127 HD
ENDROOT
BRANCH   5   9
ATOM      9  C   UNL     1       6.585   2.268  -2.398  0.00  0.00    +0.117 C 
ATOM     10  C   UNL     1       7.889   3.022  -2.502  0.00  0.00    +0.038 A 
ATOM     11  H   UNL     1       9.362   1.548  -2.481  0.00  0.00    +0.166 HD
ATOM     12  C   UNL     1       7.956   4.371  -2.585  0.00  0.00    -0.016 A 
ATOM     13  C   UNL     1       9.356   4.725  -2.668  0.00  0.00    +0.003 A 
ATOM     14  C   UNL     1      10.021   5.950  -2.770  0.00  0.00    +0.010 A 
ATOM     15  C   UNL     1      11.393   5.909  -2.828  0.00  0.00    +0.001 A 
ATOM     16  C   UNL     1      12.095   4.716  -2.787  0.00  0.00    +0.002 A 
ATOM     17  C   UNL     1      11.462   3.489  -2.687  0.00  0.00    +0.026 A 
ATOM     18  C   UNL     1      10.071   3.499  -2.627  0.00  0.00    +0.047 A 
ATOM     19  N   UNL     1       9.152   2.494  -2.527  0.00  0.00    -0.356 N 
ATOM     20  C   UNL     1       6.742   5.265  -2.588  0.00  0.00    +0.052 C 
ATOM     21  C   UNL     1       5.513   4.395  -2.881  0.00  0.00    +0.086 C 
ATOM     22  N   UNL     1       5.525   3.212  -2.007  0.00  0.00    -0.307 NA
ATOM     23  H   UNL     1       4.624   2.759  -1.994  0.00  0.00    +0.123 HD
ENDBRANCH   5   9
BRANCH   1  33
ATOM     24  C   UNL     1       0.019   1.498   0.152  0.00  0.00    +0.001 A 
ATOM     25  C   UNL     1       1.218   2.207   0.117  0.00  0.00    +0.001 A 
ATOM     26  C   UNL     1       2.415   1.558   0.078  0.00  0.00    +0.010 A 
ATOM     27  C   UNL     1       2.444   0.154   0.072  0.00  0.00    +0.004 A 
ATOM     28  C   UNL     1       1.226  -0.568   0.108  0.00  0.00    -0.016 A 
ATOM     29  C   UNL     1       0.010   0.137   0.147  0.00  0.00    +0.008 A 
ATOM     30  C   UNL     1       1.254  -1.972   0.102  0.00  0.00    +0.008 A 
ATOM     31  C   UNL     1       2.446  -2.628   0.064  0.00  0.00    +0.002 A 
ATOM     32  C   UNL     1       3.650  -1.930   0.029  0.00  0.00    +0.024 A 
ATOM     33  C   UNL     1       3.665  -0.552   0.032  0.00  0.00    +0.046 A 
ENDBRANCH   1  33
BRANCH   4  34
ATOM     34  O   UNL     1       6.258   2.911   0.282  0.00  0.00    -0.376 OA
ATOM     35  H   UNL     1       6.445   3.344   1.126  0.00  0.00    +0.211 HD
ENDBRANCH   4  34
BRANCH   2  36
ATOM     36  S   UNL     1       4.703   1.920   1.986  0.00  0.00    -0.140 S 
ATOM     37  H   UNL     1       5.373   2.133   3.133  0.00  0.00    +0.105 HD
ENDBRANCH   2  36
TORSDOF 4
