REMARK  Name = ZINC64170455
REMARK  7 active torsions:
REMARK  status: ('A' for Active; 'I' for Inactive)
REMARK    1  A    between atoms: C_1  and  C_2
REMARK    2  A    between atoms: C_2  and  C_4
REMARK    3  A    between atoms: C_2  and  O_15
REMARK    4  A    between atoms: C_4  and  C_6
REMARK    5  A    between atoms: O_15  and  C_16
REMARK    6  A    between atoms: C_16  and  C_18
REMARK    7  A    between atoms: C_18  and  C_19
REMARK                            x       y       z     vdW  Elec       q    Type
REMARK                         _______ _______ _______ _____ _____    ______ ____
ROOT
ATOM      1  O   UNL     1       0.693  -0.477   1.160  0.00  0.00    -0.453 OA
ENDROOT
BRANCH   1   3
ATOM      2  C   UNL     1      -0.019   1.526   0.010  0.00  0.00    +0.061 C 
ATOM      3  C   UNL     1       0.002  -0.004   0.002  0.00  0.00    +0.244 C 
BRANCH   3   4
ATOM      4  C   UNL     1       0.707  -0.490  -1.238  0.00  0.00    +0.201 C 
ATOM      5  O   UNL     1       1.835  -0.934  -1.160  0.00  0.00    -0.288 OA
BRANCH   4   6
ATOM      6  C   UNL     1       0.058  -0.429  -2.489  0.00  0.00    +0.027 C 
ATOM      7  C   UNL     1       0.559  -0.836  -3.712  0.00  0.00    +0.006 A 
ATOM      8  C   UNL     1       1.792  -1.406  -4.106  0.00  0.00    +0.010 A 
ATOM      9  C   UNL     1       2.019  -1.712  -5.403  0.00  0.00    +0.001 A 
ATOM     10  C   UNL     1       1.065  -1.486  -6.408  0.00  0.00    +0.002 A 
ATOM     11  C   UNL     1      -0.143  -0.946  -6.139  0.00  0.00    +0.026 A 
ATOM     12  C   UNL     1      -0.471  -0.584  -4.750  0.00  0.00    +0.043 A 
ATOM     13  N   UNL     1      -1.538  -0.059  -4.217  0.00  0.00    -0.380 N 
ATOM     14  C   UNL     1      -1.335   0.089  -2.772  0.00  0.00    +0.152 C 
ATOM     15  H   UNL     1      -2.341   0.191  -4.699  0.00  0.00    +0.160 HD
ENDBRANCH   4   6
ENDBRANCH   3   4
ENDBRANCH   1   3
BRANCH   1  16
ATOM     16  C   UNL     1      -0.042  -0.697   2.261  0.00  0.00    +0.312 C 
ATOM     17  O   UNL     1      -1.233  -0.493   2.243  0.00  0.00    -0.250 OA
BRANCH  16  18
ATOM     18  C   UNL     1       0.618  -1.196   3.521  0.00  0.00    +0.155 C 
BRANCH  18  19
ATOM     19  C   UNL     1      -0.420  -1.359   4.601  0.00  0.00    -0.032 A 
ATOM     20  C   UNL     1      -0.711  -0.301   5.442  0.00  0.00    +0.053 A 
ATOM     21  C   UNL     1      -1.667  -0.447   6.437  0.00  0.00    +0.164 A 
ATOM     22  C   UNL     1      -2.331  -1.659   6.585  0.00  0.00    +0.180 A 
ATOM     23  C   UNL     1      -2.033  -2.717   5.739  0.00  0.00    +0.086 A 
ATOM     24  C   UNL     1      -1.082  -2.563   4.746  0.00  0.00    +0.028 A 
ATOM     25 CL   UNL     1      -2.857  -4.234   5.923  0.00  0.00    -0.080 Cl
ATOM     26  O   UNL     1      -3.277  -1.821   7.550  0.00  0.00    -0.483 OA
ATOM     27  C   UNL     1      -3.283  -0.862   8.614  0.00  0.00    +0.270 C 
ATOM     28  C   UNL     1      -3.165   0.539   7.998  0.00  0.00    +0.270 C 
ATOM     29  O   UNL     1      -1.940   0.602   7.260  0.00  0.00    -0.485 OA
ENDBRANCH  18  19
ENDBRANCH  16  18
ENDBRANCH   1  16
TORSDOF 6
