REMARK  Name = ZINC23259436
REMARK  7 active torsions:
REMARK  status: ('A' for Active; 'I' for Inactive)
REMARK    1  A    between atoms: C_1  and  C_2
REMARK    2  A    between atoms: C_2  and  C_4
REMARK    3  A    between atoms: C_2  and  N_24
REMARK    4  A    between atoms: C_7  and  C_19
REMARK    5  A    between atoms: C_10  and  C_12
REMARK    6  A    between atoms: N_27  and  C_30
REMARK    7  A    between atoms: C_30  and  C_31
REMARK                            x       y       z     vdW  Elec       q    Type
REMARK                         _______ _______ _______ _____ _____    ______ ____
ROOT
ATOM      1  C   UNL     1      10.244   1.184  -2.920  0.00  0.00    +0.252 C 
ATOM      2  O   UNL     1       9.907   0.576  -1.926  0.00  0.00    -0.272 OA
ATOM      3  N   UNL     1      11.472   0.997  -3.442  0.00  0.00    -0.181 N 
ATOM      4  C   UNL     1      12.501   0.091  -2.905  0.00  0.00    +0.173 C 
ATOM      5  C   UNL     1      13.682   0.269  -3.880  0.00  0.00    +0.090 C 
ATOM      6  C   UNL     1      13.180   1.287  -4.878  0.00  0.00    +0.069 C 
ATOM      7  N   UNL     1      11.977   1.632  -4.574  0.00  0.00    -0.181 NA
ENDROOT
BRANCH   6   8
ATOM      8  C   UNL     1      13.950   1.806  -6.024  0.00  0.00    -0.002 A 
ATOM      9  C   UNL     1      15.255   1.361  -6.252  0.00  0.00    +0.011 A 
ATOM     10  C   UNL     1      15.967   1.845  -7.329  0.00  0.00    +0.020 A 
ATOM     11  C   UNL     1      15.396   2.780  -8.177  0.00  0.00    +0.041 A 
ATOM     12  C   UNL     1      14.105   3.229  -7.954  0.00  0.00    +0.020 A 
ATOM     13  C   UNL     1      13.380   2.748  -6.884  0.00  0.00    +0.011 A 
ATOM     14 CL   UNL     1      16.302   3.391  -9.526  0.00  0.00    -0.084 Cl
ENDBRANCH   6   8
BRANCH   4  15
ATOM     15  C   UNL     1      12.013  -1.335  -2.921  0.00  0.00    +0.128 A 
ATOM     16  C   UNL     1      12.245  -2.256  -1.968  0.00  0.00    +0.046 A 
ATOM     17  C   UNL     1      11.608  -3.446  -2.387  0.00  0.00    +0.041 A 
ATOM     18  C   UNL     1      11.025  -3.182  -3.570  0.00  0.00    +0.195 A 
ATOM     19  O   UNL     1      11.269  -1.899  -3.886  0.00  0.00    -0.466 OA
ENDBRANCH   4  15
BRANCH   1  21
ATOM     20  C   UNL     1       8.498   1.429  -4.663  0.00  0.00    +0.034 C 
ATOM     21  C   UNL     1       9.288   2.151  -3.571  0.00  0.00    +0.142 C 
BRANCH  21  22
ATOM     22  N   UNL     1       8.359   2.676  -2.561  0.00  0.00    -0.295 NA
ATOM     23  C   UNL     1       9.078   3.443  -1.533  0.00  0.00    +0.066 C 
ATOM     24  C   UNL     1       8.088   3.904  -0.460  0.00  0.00    -0.063 C 
ATOM     25  N   UNL     1       7.038   4.721  -1.085  0.00  0.00    +0.387 N 
ATOM     26  C   UNL     1       6.320   3.954  -2.112  0.00  0.00    -0.063 C 
ATOM     27  C   UNL     1       7.309   3.493  -3.185  0.00  0.00    +0.066 C 
ATOM     28  H   UNL     1       7.522   5.578  -1.576  0.00  0.00    -0.081 HD
BRANCH  25  29
ATOM     29  C   UNL     1       6.109   5.247  -0.075  0.00  0.00    +0.019 C 
BRANCH  29  30
ATOM     30  C   UNL     1       5.202   6.268  -0.711  0.00  0.00    +0.199 C 
ATOM     31  O   UNL     1       5.317   6.532  -1.889  0.00  0.00    -0.278 OA
ATOM     32  N   UNL     1       4.262   6.888   0.030  0.00  0.00    -0.303 N 
ATOM     33  C   UNL     1       4.014   6.664   1.466  0.00  0.00    +0.108 C 
ATOM     34  C   UNL     1       3.341   7.969   1.960  0.00  0.00    +0.020 C 
ATOM     35  C   UNL     1       2.454   8.342   0.743  0.00  0.00    +0.020 C 
ATOM     36  C   UNL     1       3.314   7.899  -0.460  0.00  0.00    +0.108 C 
ENDBRANCH  29  30
ENDBRANCH  25  29
ENDBRANCH  21  22
ENDBRANCH   1  21
TORSDOF 6
