REMARK  Name = ZINC23858159
REMARK  10 active torsions:
REMARK  status: ('A' for Active; 'I' for Inactive)
REMARK    1  A    between atoms: C_1  and  N_2
REMARK    2  A    between atoms: C_10  and  C_12
REMARK    3  A    between atoms: C_12  and  C_14
REMARK    4  A    between atoms: C_12  and  N_30
REMARK    5  A    between atoms: C_14  and  N_15
REMARK    6  A    between atoms: C_16  and  C_18
REMARK    7  A    between atoms: C_18  and  O_19
REMARK    8  A    between atoms: O_19  and  C_20
REMARK    9  A    between atoms: N_30  and  C_31
REMARK   10  A    between atoms: N_30  and  C_32
REMARK                            x       y       z     vdW  Elec       q    Type
REMARK                         _______ _______ _______ _____ _____    ______ ____
ROOT
ATOM      1  C   UNL     1       7.935   1.042  -2.475  0.00  0.00    +0.093 C 
ENDROOT
BRANCH   1   2
ATOM      2  N   UNL     1       8.397   0.481  -3.748  0.00  0.00    -0.314 N 
ATOM      3  C   UNL     1       7.577  -0.300  -4.478  0.00  0.00    +0.251 C 
ATOM      4  O   UNL     1       6.456  -0.539  -4.081  0.00  0.00    -0.272 OA
ATOM      5  H   UNL     1       9.414   0.698  -4.107  0.00  0.00    +0.149 HD
BRANCH   3   6
ATOM      6  C   UNL     1       8.052  -0.876  -5.786  0.00  0.00    +0.324 C 
BRANCH   6   7
ATOM      7  O   UNL     1       7.010  -1.663  -6.367  0.00  0.00    -0.483 OA
BRANCH   7   8
ATOM      8  C   UNL     1       7.278  -2.258  -7.559  0.00  0.00    +0.122 A 
ATOM      9  C   UNL     1       8.532  -2.081  -8.153  0.00  0.00    +0.046 A 
ATOM     10  C   UNL     1       8.829  -2.663  -9.345  0.00  0.00    +0.012 A 
ATOM     11  C   UNL     1       7.866  -3.456  -9.993  0.00  0.00    -0.018 A 
ATOM     12  C   UNL     1       8.140  -4.072 -11.226  0.00  0.00    +0.008 A 
ATOM     13  C   UNL     1       7.184  -4.832 -11.827  0.00  0.00    +0.001 A 
ATOM     14  C   UNL     1       5.934  -5.011 -11.236  0.00  0.00    +0.001 A 
ATOM     15  C   UNL     1       5.633  -4.430 -10.043  0.00  0.00    +0.008 A 
ATOM     16  C   UNL     1       6.596  -3.642  -9.391  0.00  0.00    -0.014 A 
ATOM     17  C   UNL     1       6.319  -3.022  -8.161  0.00  0.00    +0.054 A 
ENDBRANCH   7   8
ENDBRANCH   6   7
ENDBRANCH   3   6
ENDBRANCH   1   2
BRANCH   1  18
ATOM     18  C   UNL     1       9.091   1.774  -1.790  0.00  0.00    -0.021 C 
BRANCH  18  28
ATOM     19  C   UNL     1      12.468  -3.127   0.328  0.00  0.00    +0.129 C 
ATOM     20  N   UNL     1      13.097  -1.965  -0.313  0.00  0.00    -0.333 N 
ATOM     21  C   UNL     1      13.990  -2.382  -1.396  0.00  0.00    +0.105 C 
ATOM     22  C   UNL     1      14.595  -1.130  -2.043  0.00  0.00    +0.024 C 
ATOM     23  C   UNL     1      13.472  -0.385  -2.769  0.00  0.00    +0.038 C 
ATOM     24  C   UNL     1      12.272  -0.269  -1.863  0.00  0.00    -0.026 A 
ATOM     25  C   UNL     1      12.137  -1.039  -0.721  0.00  0.00    +0.033 A 
ATOM     26  C   UNL     1      10.999  -0.893   0.073  0.00  0.00    +0.023 A 
ATOM     27  C   UNL     1      10.021   0.016  -0.269  0.00  0.00    +0.004 A 
ATOM     28  C   UNL     1      10.160   0.782  -1.412  0.00  0.00    -0.059 A 
ATOM     29  C   UNL     1      11.283   0.640  -2.203  0.00  0.00    +0.007 A 
ENDBRANCH  18  28
BRANCH  18  30
ATOM     30  N   UNL     1       8.596   2.446  -0.581  0.00  0.00    +0.382 N 
ATOM     31  C   UNL     1       9.676   3.182   0.090  0.00  0.00    -0.096 C 
ATOM     32  C   UNL     1       7.470   3.335  -0.896  0.00  0.00    -0.096 C 
ATOM     33  H   UNL     1       8.233   1.672   0.111  0.00  0.00    -0.082 HD
ENDBRANCH  18  30
ENDBRANCH   1  18
TORSDOF 7
