REMARK  Name = ZINC08124303
REMARK  7 active torsions:
REMARK  status: ('A' for Active; 'I' for Inactive)
REMARK    1  A    between atoms: C_1  and  C_2
REMARK    2  A    between atoms: C_2  and  C_3
REMARK    3  A    between atoms: C_2  and  C_4
REMARK    4  A    between atoms: C_4  and  C_6
REMARK    5  A    between atoms: C_4  and  N_16
REMARK    6  A    between atoms: C_17  and  C_19
REMARK    7  A    between atoms: C_19  and  C_20
REMARK                            x       y       z     vdW  Elec       q    Type
REMARK                         _______ _______ _______ _____ _____    ______ ____
ROOT
ATOM      1  N   UNL     1      -4.647  -0.149   0.915  0.00  0.00    -0.308 N 
ATOM      2  C   UNL     1      -5.643  -0.864   1.476  0.00  0.00    +0.218 C 
ATOM      3  O   UNL     1      -5.749  -2.048   1.237  0.00  0.00    -0.275 OA
ATOM      4  H   UNL     1      -4.563   0.798   1.107  0.00  0.00    +0.149 HD
ENDROOT
BRANCH   1   5
ATOM      5  C   UNL     1      -3.692  -0.803   0.018  0.00  0.00    +0.106 C 
BRANCH   5   6
ATOM      6  C   UNL     1      -2.397  -0.033   0.016  0.00  0.00    -0.023 A 
ATOM      7  C   UNL     1      -2.415   1.349   0.025  0.00  0.00    +0.009 A 
ATOM      8  C   UNL     1      -1.229   2.059   0.019  0.00  0.00    +0.050 A 
ATOM      9  C   UNL     1      -0.017   1.385   0.010  0.00  0.00    +0.162 A 
ATOM     10  C   UNL     1       0.002  -0.004   0.002  0.00  0.00    +0.162 A 
ATOM     11  C   UNL     1      -1.192  -0.710   0.004  0.00  0.00    +0.055 A 
ATOM     12  O   UNL     1       1.181  -0.685  -0.007  0.00  0.00    -0.485 OA
ATOM     13  C   UNL     1       2.347   0.053  -0.387  0.00  0.00    +0.270 C 
ATOM     14  C   UNL     1       2.334   1.392   0.364  0.00  0.00    +0.270 C 
ATOM     15  O   UNL     1       1.143   2.098   0.002  0.00  0.00    -0.485 OA
ENDBRANCH   5   6
BRANCH   5  17
ATOM     16  C   UNL     1      -5.582  -1.620  -1.398  0.00  0.00    +0.009 C 
ATOM     17  C   UNL     1      -4.266  -0.838  -1.400  0.00  0.00    +0.008 C 
ATOM     18  C   UNL     1      -4.523   0.591  -1.882  0.00  0.00    +0.009 C 
ENDBRANCH   5  17
ENDBRANCH   1   5
BRANCH   2  19
ATOM     19  C   UNL     1      -6.626  -0.191   2.399  0.00  0.00    +0.133 C 
BRANCH  19  20
ATOM     20  C   UNL     1      -7.631  -1.203   2.886  0.00  0.00    -0.014 A 
ATOM     21  C   UNL     1      -8.842  -1.442   2.360  0.00  0.00    +0.087 A 
ATOM     22  N   UNL     1      -9.471  -2.432   3.066  0.00  0.00    -0.360 N 
ATOM     23  H   UNL     1     -10.355  -2.779   2.872  0.00  0.00    +0.165 HD
ATOM     24  C   UNL     1      -8.662  -2.858   4.096  0.00  0.00    +0.047 A 
ATOM     25  C   UNL     1      -7.474  -2.107   4.028  0.00  0.00    +0.003 A 
ATOM     26  C   UNL     1      -6.457  -2.327   4.959  0.00  0.00    +0.010 A 
ATOM     27  C   UNL     1      -6.621  -3.272   5.932  0.00  0.00    +0.001 A 
ATOM     28  C   UNL     1      -7.791  -4.016   6.003  0.00  0.00    +0.002 A 
ATOM     29  C   UNL     1      -8.807  -3.815   5.095  0.00  0.00    +0.026 A 
ENDBRANCH  19  20
ENDBRANCH   2  19
TORSDOF 5
