REMARK  Name = ZINC54156261
REMARK  7 active torsions:
REMARK  status: ('A' for Active; 'I' for Inactive)
REMARK    1  A    between atoms: C_1  and  C_2
REMARK    2  A    between atoms: C_2  and  C_4
REMARK    3  A    between atoms: C_2  and  C_18
REMARK    4  A    between atoms: C_4  and  N_5
REMARK    5  A    between atoms: N_5  and  S_6
REMARK    6  A    between atoms: S_6  and  C_9
REMARK    7  A    between atoms: N_19  and  O_20
REMARK                            x       y       z     vdW  Elec       q    Type
REMARK                         _______ _______ _______ _____ _____    ______ ____
ROOT
ATOM      1  N   UNL     1      -2.082  -0.162   1.273  0.00  0.00    -0.189 NA
ATOM      2  H   UNL     1      -1.546   0.147   2.021  0.00  0.00    +0.148 HD
ENDROOT
BRANCH   1   3
ATOM      3  S   UNL     1      -3.728  -0.268   1.420  0.00  0.00    +0.061 S 
ATOM      4  O   UNL     1      -4.043   0.130   2.747  0.00  0.00    -0.153 OA
ATOM      5  O   UNL     1      -4.280   0.376   0.280  0.00  0.00    -0.153 OA
BRANCH   3   6
ATOM      6  C   UNL     1      -4.153  -1.973   1.291  0.00  0.00    +0.142 A 
ATOM      7  C   UNL     1      -4.428  -2.525   0.053  0.00  0.00    +0.070 A 
ATOM      8  C   UNL     1      -4.762  -3.864  -0.048  0.00  0.00    +0.037 A 
ATOM      9  C   UNL     1      -4.821  -4.650   1.088  0.00  0.00    +0.021 A 
ATOM     10  C   UNL     1      -4.545  -4.098   2.326  0.00  0.00    +0.037 A 
ATOM     11  C   UNL     1      -4.206  -2.761   2.427  0.00  0.00    +0.070 A 
ATOM     12 CL   UNL     1      -3.854  -2.069   3.980  0.00  0.00    -0.081 Cl
ATOM     13 BR   UNL     1      -5.277  -6.480   0.950  0.00  0.00    -0.050 Br
ATOM     14 CL   UNL     1      -4.356  -1.538  -1.373  0.00  0.00    -0.081 Cl
ENDBRANCH   3   6
ENDBRANCH   1   3
BRANCH   1  15
ATOM     15  C   UNL     1      -1.433  -0.534   0.013  0.00  0.00    +0.116 C 
BRANCH  15  17
ATOM     16  C   UNL     1      -0.019   1.526   0.010  0.00  0.00    +0.017 C 
ATOM     17  C   UNL     1       0.002  -0.004   0.002  0.00  0.00    +0.068 C 
BRANCH  17  18
ATOM     18  C   UNL     1       0.707  -0.490  -1.238  0.00  0.00    +0.136 C 
ATOM     19  N   UNL     1       0.751   0.257  -2.291  0.00  0.00    -0.076 NA
ATOM     20  N   UNL     1       1.305  -1.731  -1.248  0.00  0.00    -0.344 N 
ATOM     21  H   UNL     1       1.272  -2.292  -0.458  0.00  0.00    +0.144 HD
ATOM     22  H   UNL     1       1.759  -2.043  -2.046  0.00  0.00    +0.144 HD
BRANCH  19  23
ATOM     23  O   UNL     1       1.414  -0.200  -3.456  0.00  0.00    -0.408 OA
ATOM     24  H   UNL     1       1.394   0.428  -4.191  0.00  0.00    +0.328 HD
ENDBRANCH  19  23
ENDBRANCH  17  18
ENDBRANCH  15  17
ENDBRANCH   1  15
TORSDOF 6
