REMARK  Name = ZINC63491205
REMARK  6 active torsions:
REMARK  status: ('A' for Active; 'I' for Inactive)
REMARK    1  A    between atoms: C_1  and  C_2
REMARK    2  A    between atoms: C_4  and  N_8
REMARK    3  A    between atoms: C_9  and  C_11
REMARK    4  A    between atoms: N_13  and  C_14
REMARK    5  A    between atoms: C_14  and  C_15
REMARK    6  A    between atoms: C_15  and  C_16
REMARK                            x       y       z     vdW  Elec       q    Type
REMARK                         _______ _______ _______ _____ _____    ______ ____
ROOT
ATOM      1  C   UNL     1      -2.714  -4.954  -1.667  0.00  0.00    +0.299 C 
ATOM      2  O   UNL     1      -2.911  -4.497  -2.774  0.00  0.00    -0.265 OA
ATOM      3  N   UNL     1      -3.211  -6.163  -1.339  0.00  0.00    -0.307 N 
ATOM      4  H   UNL     1      -3.053  -6.528  -0.455  0.00  0.00    +0.149 HD
ENDROOT
BRANCH   1   6
ATOM      5  N   UNL     1      -1.423  -2.967  -0.997  0.00  0.00    -0.286 N 
ATOM      6  C   UNL     1      -1.920  -4.176  -0.668  0.00  0.00    +0.300 C 
ATOM      7  O   UNL     1      -1.722  -4.633   0.438  0.00  0.00    -0.265 OA
ATOM      8  H   UNL     1      -1.581  -2.601  -1.881  0.00  0.00    +0.151 HD
BRANCH   5  12
ATOM      9  C   UNL     1      -0.018   1.503   0.010  0.00  0.00    +0.088 C 
ATOM     10  C   UNL     1       0.002  -0.004   0.002  0.00  0.00    +0.121 C 
ATOM     11  C   UNL     1      -1.081  -0.752   0.003  0.00  0.00    +0.057 C 
ATOM     12  C   UNL     1      -0.645  -2.204  -0.017  0.00  0.00    +0.205 C 
ATOM     13  N   UNL     1       0.780  -2.110  -0.429  0.00  0.00    -0.131 NA
ATOM     14  O   UNL     1       1.137  -0.743  -0.013  0.00  0.00    -0.409 OA
ATOM     15  H   UNL     1       1.342  -2.796   0.054  0.00  0.00    +0.170 HD
ENDBRANCH   5  12
ENDBRANCH   1   6
BRANCH   3  16
ATOM     16  C   UNL     1      -3.989  -6.925  -2.319  0.00  0.00    +0.109 C 
BRANCH  16  17
ATOM     17  C   UNL     1      -4.432  -8.251  -1.697  0.00  0.00    +0.052 C 
BRANCH  17  18
ATOM     18  C   UNL     1      -5.233  -9.036  -2.705  0.00  0.00    -0.040 C 
ATOM     19  C   UNL     1      -4.774  -9.999  -3.536  0.00  0.00    -0.001 A 
ATOM     20  C   UNL     1      -3.443 -10.582  -3.743  0.00  0.00    +0.010 A 
ATOM     21  C   UNL     1      -3.290 -11.555  -4.671  0.00  0.00    +0.001 A 
ATOM     22  C   UNL     1      -4.369 -12.019  -5.437  0.00  0.00    +0.002 A 
ATOM     23  C   UNL     1      -5.620 -11.532  -5.303  0.00  0.00    +0.026 A 
ATOM     24  C   UNL     1      -5.896 -10.507  -4.357  0.00  0.00    +0.043 A 
ATOM     25  N   UNL     1      -7.005  -9.881  -4.046  0.00  0.00    -0.380 N 
ATOM     26  C   UNL     1      -6.713  -8.909  -2.986  0.00  0.00    +0.144 C 
ATOM     27  H   UNL     1      -7.875 -10.038  -4.447  0.00  0.00    +0.160 HD
ENDBRANCH  17  18
ENDBRANCH  16  17
ENDBRANCH   3  16
TORSDOF 5
