REMARK  Name = ZINC20355460
REMARK  11 active torsions:
REMARK  status: ('A' for Active; 'I' for Inactive)
REMARK    1  A    between atoms: C_1  and  C_2
REMARK    2  A    between atoms: C_5  and  C_38
REMARK    3  A    between atoms: N_8  and  S_10
REMARK    4  A    between atoms: S_10  and  C_13
REMARK    5  A    between atoms: N_19  and  C_24
REMARK    6  A    between atoms: C_24  and  C_25
REMARK    7  A    between atoms: N_27  and  C_28
REMARK    8  A    between atoms: C_28  and  C_29
REMARK    9  A    between atoms: C_29  and  C_30
REMARK   10  A    between atoms: C_30  and  S_31
REMARK   11  A    between atoms: S_31  and  C_32
REMARK                            x       y       z     vdW  Elec       q    Type
REMARK                         _______ _______ _______ _____ _____    ______ ____
ROOT
ATOM      1  C   UNL     1      -2.319   4.670  -3.128  0.00  0.00    +0.107 A 
ATOM      2  C   UNL     1      -1.764   5.753  -3.785  0.00  0.00    +0.032 A 
ATOM      3  C   UNL     1      -1.994   5.942  -5.136  0.00  0.00    +0.049 A 
ATOM      4  C   UNL     1      -2.792   5.050  -5.830  0.00  0.00    +0.143 A 
ATOM      5  C   UNL     1      -3.356   3.961  -5.167  0.00  0.00    +0.081 A 
ATOM      6  C   UNL     1      -3.117   3.775  -3.816  0.00  0.00    +0.055 A 
ATOM      7  N   UNL     1      -4.164   3.066  -5.883  0.00  0.00    -0.256 N 
ATOM      8  C   UNL     1      -4.127   3.086  -7.233  0.00  0.00    +0.258 C 
ATOM      9  O   UNL     1      -4.839   2.341  -7.873  0.00  0.00    -0.271 OA
ATOM     10  C   UNL     1      -3.197   4.038  -7.941  0.00  0.00    +0.325 C 
ATOM     11  O   UNL     1      -3.034   5.223  -7.157  0.00  0.00    -0.481 OA
ENDROOT
BRANCH   1  12
ATOM     12  S   UNL     1      -2.014   4.436  -1.409  0.00  0.00    +0.061 S 
ATOM     13  O   UNL     1      -3.092   3.659  -0.908  0.00  0.00    -0.153 OA
ATOM     14  O   UNL     1      -1.682   5.711  -0.878  0.00  0.00    -0.153 OA
BRANCH  12  20
ATOM     15  C   UNL     1       0.002  -0.004   0.002  0.00  0.00    +0.009 C 
ATOM     16  C   UNL     1      -0.019   1.526   0.010  0.00  0.00    +0.002 C 
ATOM     17  C   UNL     1       1.417   2.056  -0.000  0.00  0.00    +0.009 C 
ATOM     18  C   UNL     1       1.398   3.586   0.041  0.00  0.00    +0.002 C 
ATOM     19  C   UNL     1       0.676   4.117  -1.202  0.00  0.00    +0.112 C 
ATOM     20  N   UNL     1      -0.654   3.499  -1.277  0.00  0.00    -0.176 NA
ATOM     21  C   UNL     1      -0.756   2.034  -1.232  0.00  0.00    +0.112 C 
ATOM     22  C   UNL     1       0.661   4.053   1.298  0.00  0.00    +0.009 C 
ENDBRANCH  12  20
ENDBRANCH   1  12
BRANCH   7  23
ATOM     23  C   UNL     1      -5.033   2.122  -5.177  0.00  0.00    +0.209 C 
BRANCH  23  24
ATOM     24  C   UNL     1      -6.382   2.755  -4.948  0.00  0.00    +0.231 C 
ATOM     25  O   UNL     1      -6.595   3.884  -5.337  0.00  0.00    -0.274 OA
ATOM     26  N   UNL     1      -7.350   2.067  -4.312  0.00  0.00    -0.314 N 
ATOM     27  H   UNL     1      -7.157   1.043  -3.959  0.00  0.00    +0.149 HD
BRANCH  26  28
ATOM     28  C   UNL     1      -8.661   2.683  -4.090  0.00  0.00    +0.105 C 
BRANCH  28  29
ATOM     29  C   UNL     1      -9.569   1.697  -3.353  0.00  0.00    +0.029 C 
BRANCH  29  30
ATOM     30  C   UNL     1     -10.938   2.340  -3.120  0.00  0.00    +0.071 C 
BRANCH  30  31
ATOM     31  S   UNL     1     -12.015   1.171  -2.246  0.00  0.00    -0.157 S 
BRANCH  31  32
ATOM     32  C   UNL     1     -13.576   2.074  -2.052  0.00  0.00    +0.046 C 
ATOM     33  C   UNL     1     -13.357   3.281  -1.138  0.00  0.00    +0.014 C 
ATOM     34  C   UNL     1     -14.673   4.043  -0.974  0.00  0.00    +0.001 C 
ATOM     35  C   UNL     1     -15.723   3.118  -0.354  0.00  0.00    +0.000 C 
ATOM     36  C   UNL     1     -15.943   1.911  -1.268  0.00  0.00    +0.001 C 
ATOM     37  C   UNL     1     -14.626   1.149  -1.432  0.00  0.00    +0.014 C 
ENDBRANCH  31  32
ENDBRANCH  30  31
ENDBRANCH  29  30
ENDBRANCH  28  29
ENDBRANCH  26  28
ENDBRANCH  23  24
ENDBRANCH   7  23
TORSDOF 9
