REMARK  Name = ZINC36556588
REMARK  18 active torsions:
REMARK  status: ('A' for Active; 'I' for Inactive)
REMARK    1  A    between atoms: C_1  and  C_2
REMARK    2  A    between atoms: C_7  and  C_8
REMARK    3  A    between atoms: C_8  and  C_9
REMARK    4  A    between atoms: N_11  and  C_12
REMARK    5  A    between atoms: N_11  and  C_19
REMARK    6  A    between atoms: C_12  and  C_13
REMARK    7  A    between atoms: C_16  and  C_18
REMARK    8  A    between atoms: C_19  and  C_21
REMARK    9  A    between atoms: C_19  and  C_28
REMARK   10  A    between atoms: C_26  and  O_27
REMARK   11  A    between atoms: N_30  and  C_31
REMARK   12  A    between atoms: C_31  and  C_32
REMARK   13  A    between atoms: C_31  and  C_33
REMARK   14  A    between atoms: C_31  and  C_34
REMARK   15  A    between atoms: C_34  and  C_35
REMARK   16  A    between atoms: C_35  and  C_36
REMARK   17  A    between atoms: C_35  and  C_37
REMARK   18  A    between atoms: C_35  and  C_38
REMARK                            x       y       z     vdW  Elec       q    Type
REMARK                         _______ _______ _______ _____ _____    ______ ____
ROOT
ATOM      1  C   UNL     1      -4.279   2.606   8.613  0.00  0.00    +0.196 C 
ENDROOT
BRANCH   1   2
ATOM      2  C   UNL     1      -5.258   2.741   9.751  0.00  0.00    +0.023 A 
ATOM      3  C   UNL     1      -4.824   3.179  10.987  0.00  0.00    +0.009 A 
ATOM      4  C   UNL     1      -5.722   3.303  12.031  0.00  0.00    +0.001 A 
ATOM      5  C   UNL     1      -7.055   2.990  11.841  0.00  0.00    +0.004 A 
ATOM      6  C   UNL     1      -7.494   2.552  10.607  0.00  0.00    +0.046 A 
ATOM      7  C   UNL     1      -6.596   2.432   9.555  0.00  0.00    +0.122 A 
BRANCH   7   8
ATOM      8  O   UNL     1      -7.026   2.007   8.338  0.00  0.00    -0.506 OA
ATOM      9  H   UNL     1      -6.991   1.048   8.222  0.00  0.00    +0.292 HD
ENDBRANCH   7   8
ENDBRANCH   1   2
BRANCH   1  10
ATOM     10  C   UNL     1      -4.361   3.826   7.732  0.00  0.00    +0.239 C 
ATOM     11  O   UNL     1      -3.374   4.505   7.544  0.00  0.00    -0.273 OA
ATOM     12  N   UNL     1      -5.531   4.162   7.153  0.00  0.00    -0.308 N 
ATOM     13  H   UNL     1      -6.337   3.667   7.367  0.00  0.00    +0.149 HD
BRANCH  12  14
ATOM     14  C   UNL     1      -5.584   5.273   6.200  0.00  0.00    +0.030 C 
ATOM     15  C   UNL     1      -5.226   6.577   6.916  0.00  0.00    +0.031 C 
ATOM     16  C   UNL     1      -4.585   5.022   5.068  0.00  0.00    +0.031 C 
BRANCH  14  17
ATOM     17  C   UNL     1      -6.996   5.380   5.620  0.00  0.00    +0.031 C 
BRANCH  17  18
ATOM     18  C   UNL     1      -7.268   4.177   4.715  0.00  0.00    -0.036 C 
ATOM     19  C   UNL     1      -6.707   2.912   5.366  0.00  0.00    +0.010 C 
ATOM     20  C   UNL     1      -8.777   4.021   4.514  0.00  0.00    +0.010 C 
ATOM     21  C   UNL     1      -6.593   4.395   3.359  0.00  0.00    +0.010 C 
ENDBRANCH  17  18
ENDBRANCH  14  17
ENDBRANCH  12  14
ENDBRANCH   1  10
BRANCH   1  24
ATOM     22  C   UNL     1      -2.347   3.525   9.779  0.00  0.00    +0.221 C 
ATOM     23  O   UNL     1      -2.933   4.584   9.856  0.00  0.00    -0.275 OA
ATOM     24  N   UNL     1      -2.921   2.481   9.149  0.00  0.00    -0.278 N 
BRANCH  22  25
ATOM     25  C   UNL     1      -0.976   3.376  10.388  0.00  0.00    +0.131 C 
BRANCH  25  32
ATOM     26  C   UNL     1      -1.806   3.986  13.087  0.00  0.00    +0.044 C 
ATOM     27  C   UNL     1      -0.963   4.970  12.318  0.00  0.00    -0.047 A 
ATOM     28  C   UNL     1      -0.582   6.162  12.905  0.00  0.00    +0.003 A 
ATOM     29  C   UNL     1       0.191   7.064  12.200  0.00  0.00    +0.000 A 
ATOM     30  C   UNL     1       0.583   6.775  10.906  0.00  0.00    +0.000 A 
ATOM     31  C   UNL     1       0.203   5.583  10.319  0.00  0.00    +0.004 A 
ATOM     32  C   UNL     1      -0.566   4.678  11.026  0.00  0.00    -0.036 A 
ENDBRANCH  25  32
ENDBRANCH  22  25
BRANCH  24  33
ATOM     33  C   UNL     1      -2.188   1.222   9.000  0.00  0.00    +0.183 C 
BRANCH  33  34
ATOM     34  C   UNL     1      -2.559   0.289  10.124  0.00  0.00    +0.122 A 
ATOM     35  C   UNL     1      -3.619  -0.539  10.142  0.00  0.00    +0.046 A 
ATOM     36  C   UNL     1      -3.584  -1.224  11.379  0.00  0.00    +0.045 A 
ATOM     37  C   UNL     1      -2.504  -0.773  12.043  0.00  0.00    +0.102 A 
ATOM     38  O   UNL     1      -1.884   0.139  11.276  0.00  0.00    -0.463 OA
ATOM     39  C   UNL     1      -2.063  -1.219  13.413  0.00  0.00    +0.086 C 
ENDBRANCH  33  34
ENDBRANCH  24  33
ENDBRANCH   1  24
TORSDOF 11
