REMARK  Name = ZINC40119405
REMARK  6 active torsions:
REMARK  status: ('A' for Active; 'I' for Inactive)
REMARK    1  A    between atoms: C_1  and  C_2
REMARK    2  A    between atoms: C_2  and  C_4
REMARK    3  A    between atoms: C_2  and  N_12
REMARK    4  A    between atoms: C_13  and  C_15
REMARK    5  A    between atoms: C_15  and  C_16
REMARK    6  A    between atoms: N_20  and  C_24
REMARK                            x       y       z     vdW  Elec       q    Type
REMARK                         _______ _______ _______ _____ _____    ______ ____
ROOT
ATOM      1  C   UNL     1       2.729  -1.044  -2.463  0.00  0.00    +0.127 C 
ENDROOT
BRANCH   1   2
ATOM      2  C   UNL     1       4.237  -1.101  -2.211  0.00  0.00    +0.170 C 
ATOM      3  C   UNL     1       4.960  -1.650  -3.424  0.00  0.00    +0.248 C 
ATOM      4  O   UNL     1       4.824  -2.747  -3.924  0.00  0.00    -0.273 OA
ATOM      5  N   UNL     1       5.785  -0.666  -3.833  0.00  0.00    -0.193 N 
ATOM      6  C   UNL     1       5.684   0.417  -3.055  0.00  0.00    +0.314 C 
ATOM      7  O   UNL     1       6.329   1.434  -3.224  0.00  0.00    -0.252 OA
ATOM      8  N   UNL     1       4.789   0.256  -2.059  0.00  0.00    -0.287 N 
ATOM      9  H   UNL     1       4.553   0.905  -1.377  0.00  0.00    +0.151 HD
BRANCH   5  10
ATOM     10  C   UNL     1       6.644  -0.766  -4.938  0.00  0.00    +0.046 A 
ATOM     11  C   UNL     1       7.369   0.342  -5.356  0.00  0.00    +0.027 A 
ATOM     12  C   UNL     1       8.214   0.242  -6.444  0.00  0.00    +0.040 A 
ATOM     13  C   UNL     1       8.338  -0.962  -7.118  0.00  0.00    +0.124 A 
ATOM     14  C   UNL     1       7.615  -2.067  -6.702  0.00  0.00    +0.040 A 
ATOM     15  C   UNL     1       6.774  -1.973  -5.611  0.00  0.00    +0.027 A 
ATOM     16  F   UNL     1       9.164  -1.057  -8.182  0.00  0.00    -0.205 F 
ENDBRANCH   5  10
ENDBRANCH   1   2
BRANCH   1  18
ATOM     17  N   UNL     1       0.687  -0.431  -1.208  0.00  0.00    -0.309 N 
ATOM     18  C   UNL     1       2.029  -0.561  -1.219  0.00  0.00    +0.216 C 
ATOM     19  O   UNL     1       2.673  -0.291  -0.227  0.00  0.00    -0.276 OA
ATOM     20  H   UNL     1       0.172  -0.648  -2.001  0.00  0.00    +0.149 HD
BRANCH  17  22
ATOM     21  C   UNL     1       0.009   1.567   0.028  0.00  0.00    +0.033 C 
ATOM     22  C   UNL     1       0.007   0.037   0.002  0.00  0.00    +0.100 C 
BRANCH  22  23
ATOM     23  C   UNL     1      -1.414  -0.463   0.005  0.00  0.00    -0.026 A 
ATOM     24  C   UNL     1      -2.143  -0.482  -1.170  0.00  0.00    +0.007 A 
ATOM     25  C   UNL     1      -3.446  -0.940  -1.169  0.00  0.00    +0.022 A 
ATOM     26  C   UNL     1      -4.023  -1.381   0.009  0.00  0.00    +0.059 A 
ATOM     27  C   UNL     1      -3.294  -1.363   1.185  0.00  0.00    +0.060 A 
ATOM     28  C   UNL     1      -1.987  -0.909   1.181  0.00  0.00    +0.027 A 
ATOM     29 CL   UNL     1      -4.016  -1.916   2.664  0.00  0.00    -0.082 Cl
ATOM     30 CL   UNL     1      -5.661  -1.957   0.011  0.00  0.00    -0.082 Cl
ENDBRANCH  22  23
ENDBRANCH  17  22
ENDBRANCH   1  18
TORSDOF 5
