REMARK  Name = ZINC38552743
REMARK  4 active torsions:
REMARK  status: ('A' for Active; 'I' for Inactive)
REMARK    1  A    between atoms: C_4  and  C_7
REMARK    2  A    between atoms: C_19  and  C_21
REMARK    3  A    between atoms: C_24  and  S_27
REMARK    4  A    between atoms: S_27  and  N_30
REMARK                            x       y       z     vdW  Elec       q    Type
REMARK                         _______ _______ _______ _____ _____    ______ ____
ROOT
ATOM      1  C   UNL     1       3.835  -0.591  -0.774  0.00  0.00    +0.079 C 
ATOM      2  N   UNL     1       4.930   0.052  -0.557  0.00  0.00    -0.176 NA
ATOM      3  N   UNL     1       6.119  -0.384  -0.492  0.00  0.00    -0.258 N 
ATOM      4  C   UNL     1       6.532  -1.536  -0.980  0.00  0.00    +0.151 C 
ATOM      5  S   UNL     1       5.350  -2.564  -1.806  0.00  0.00    -0.085 S 
ATOM      6  C   UNL     1       3.803  -2.091  -0.959  0.00  0.00    +0.134 C 
ATOM      7  N   UNL     1       7.841  -1.927  -0.853  0.00  0.00    -0.307 N 
ATOM      8  C   UNL     1       8.884  -0.950  -0.509  0.00  0.00    +0.126 C 
ATOM      9  C   UNL     1       9.624  -1.443   0.740  0.00  0.00    +0.127 C 
ATOM     10  N   UNL     1      10.009  -2.847   0.535  0.00  0.00    -0.295 N 
ATOM     11  C   UNL     1       8.966  -3.824   0.190  0.00  0.00    +0.127 C 
ATOM     12  C   UNL     1       8.225  -3.331  -1.053  0.00  0.00    +0.126 C 
ATOM     13  C   UNL     1      11.295  -3.231   0.659  0.00  0.00    +0.247 C 
ATOM     14  O   UNL     1      11.617  -4.372   0.392  0.00  0.00    -0.270 OA
ATOM     15  H   UNL     1       6.776   0.174  -0.047  0.00  0.00    +0.191 HD
ENDROOT
BRANCH   1  19
ATOM     16  C   UNL     1       0.192   1.573  -0.956  0.00  0.00    +0.000 A 
ATOM     17  C   UNL     1       1.380   2.245  -0.730  0.00  0.00    +0.001 A 
ATOM     18  C   UNL     1       2.569   1.548  -0.669  0.00  0.00    +0.010 A 
ATOM     19  C   UNL     1       2.571   0.160  -0.837  0.00  0.00    -0.001 A 
ATOM     20  C   UNL     1       1.365  -0.511  -1.065  0.00  0.00    +0.010 A 
ATOM     21  C   UNL     1       0.185   0.200  -1.123  0.00  0.00    +0.001 A 
ENDBRANCH   1  19
BRANCH  13  22
ATOM     22  C   UNL     1      12.313  -2.265   1.122  0.00  0.00    +0.037 A 
ATOM     23  C   UNL     1      12.024  -1.389   2.169  0.00  0.00    +0.015 A 
ATOM     24  C   UNL     1      12.980  -0.490   2.596  0.00  0.00    +0.029 A 
ATOM     25  C   UNL     1      14.222  -0.455   1.988  0.00  0.00    +0.106 A 
ATOM     26  C   UNL     1      14.515  -1.320   0.949  0.00  0.00    +0.029 A 
ATOM     27  C   UNL     1      13.570  -2.228   0.516  0.00  0.00    +0.015 A 
BRANCH  25  28
ATOM     28  S   UNL     1      15.436   0.697   2.539  0.00  0.00    +0.061 S 
ATOM     29  O   UNL     1      16.325   0.902   1.449  0.00  0.00    -0.153 OA
ATOM     30  O   UNL     1      14.732   1.764   3.159  0.00  0.00    -0.153 OA
BRANCH  28  31
ATOM     31  N   UNL     1      16.312  -0.048   3.731  0.00  0.00    -0.177 NA
ATOM     32  C   UNL     1      15.896   0.048   5.136  0.00  0.00    +0.109 C 
ATOM     33  C   UNL     1      15.783  -1.366   5.714  0.00  0.00    +0.017 C 
ATOM     34  C   UNL     1      17.103  -2.108   5.499  0.00  0.00    +0.003 C 
ATOM     35  C   UNL     1      17.389  -2.221   3.999  0.00  0.00    +0.017 C 
ATOM     36  C   UNL     1      17.517  -0.822   3.401  0.00  0.00    +0.109 C 
ENDBRANCH  28  31
ENDBRANCH  25  28
ENDBRANCH  13  22
TORSDOF 4
