REMARK  Name = ZINC13093314
REMARK  7 active torsions:
REMARK  status: ('A' for Active; 'I' for Inactive)
REMARK    1  A    between atoms: C_1  and  C_2
REMARK    2  A    between atoms: C_8  and  C_16
REMARK    3  A    between atoms: C_12  and  C_13
REMARK    4  A    between atoms: C_16  and  S_17
REMARK    5  A    between atoms: S_17  and  C_18
REMARK    6  A    between atoms: N_23  and  C_24
REMARK    7  A    between atoms: C_29  and  C_30
REMARK                            x       y       z     vdW  Elec       q    Type
REMARK                         _______ _______ _______ _____ _____    ______ ____
ROOT
ATOM      1  S   UNL     1      -0.046  -5.044  -3.980  0.00  0.00    -0.089 S 
ENDROOT
BRANCH   1   2
ATOM      2  C   UNL     1      -0.074  -6.005  -5.456  0.00  0.00    +0.160 A 
ATOM      3  N   UNL     1      -0.330  -5.629  -6.694  0.00  0.00    -0.133 NA
ATOM      4  N   UNL     1      -0.296  -6.554  -7.712  0.00  0.00    -0.125 NA
ATOM      5  C   UNL     1      -0.008  -7.813  -7.445  0.00  0.00    +0.187 A 
ATOM      6  S   UNL     1       0.245  -7.749  -5.678  0.00  0.00    -0.024 S 
ATOM      7  N   UNL     1       0.079  -8.899  -8.308  0.00  0.00    -0.292 N 
ATOM      8  H   UNL     1       0.216  -9.791  -7.953  0.00  0.00    +0.154 HD
BRANCH   7   9
ATOM      9  C   UNL     1      -0.031  -8.706  -9.688  0.00  0.00    +0.045 A 
ATOM     10  C   UNL     1      -0.044  -7.418 -10.211  0.00  0.00    +0.024 A 
ATOM     11  C   UNL     1      -0.153  -7.231 -11.575  0.00  0.00    +0.002 A 
ATOM     12  C   UNL     1      -0.248  -8.322 -12.419  0.00  0.00    +0.001 A 
ATOM     13  C   UNL     1      -0.235  -9.604 -11.902  0.00  0.00    +0.014 A 
ATOM     14  C   UNL     1      -0.121  -9.799 -10.539  0.00  0.00    +0.076 A 
BRANCH  14  15
ATOM     15  C   UNL     1      -0.102 -11.197  -9.976  0.00  0.00    +0.419 C 
ATOM     16  F   UNL     1      -0.205 -12.122 -11.021  0.00  0.00    -0.166 F 
ATOM     17  F   UNL     1       1.097 -11.405  -9.286  0.00  0.00    -0.166 F 
ATOM     18  F   UNL     1      -1.179 -11.362  -9.099  0.00  0.00    -0.166 F 
ENDBRANCH  14  15
ENDBRANCH   7   9
ENDBRANCH   1   2
BRANCH   1  19
ATOM     19  C   UNL     1      -0.468  -3.370  -4.538  0.00  0.00    +0.150 C 
BRANCH  19  27
ATOM     20  C   UNL     1      -0.748   1.429   0.061  0.00  0.00    +0.046 C 
ATOM     21  C   UNL     1      -0.454  -0.048   0.033  0.00  0.00    -0.015 A 
ATOM     22  C   UNL     1      -0.493  -0.749  -1.173  0.00  0.00    +0.076 A 
ATOM     23  C   UNL     1      -0.798  -0.249  -2.534  0.00  0.00    +0.260 A 
ATOM     24  O   UNL     1      -1.063   0.924  -2.724  0.00  0.00    -0.267 OA
ATOM     25  N   UNL     1      -0.774  -1.127  -3.556  0.00  0.00    -0.310 N 
ATOM     26  H   UNL     1      -0.971  -0.816  -4.454  0.00  0.00    +0.170 HD
ATOM     27  C   UNL     1      -0.480  -2.435  -3.357  0.00  0.00    +0.121 A 
ATOM     28  N   UNL     1      -0.207  -2.908  -2.171  0.00  0.00    -0.226 NA
ATOM     29  C   UNL     1      -0.203  -2.131  -1.095  0.00  0.00    +0.116 A 
ATOM     30  S   UNL     1       0.109  -2.390   0.633  0.00  0.00    -0.062 S 
ATOM     31  C   UNL     1      -0.139  -0.715   1.195  0.00  0.00    +0.106 A 
BRANCH  31  32
ATOM     32  C   UNL     1      -0.040  -0.199   2.513  0.00  0.00    +0.393 C 
ATOM     33  O   UNL     1      -0.247   0.990   2.722  0.00  0.00    -0.240 OA
ATOM     34  O   UNL     1       0.254  -0.942   3.441  0.00  0.00    -0.240 OA
ENDBRANCH  31  32
ENDBRANCH  19  27
ENDBRANCH   1  19
TORSDOF 6
