REMARK  Name = ZINC64480054
REMARK  6 active torsions:
REMARK  status: ('A' for Active; 'I' for Inactive)
REMARK    1  A    between atoms: C_1  and  C_2
REMARK    2  A    between atoms: C_2  and  C_4
REMARK    3  A    between atoms: C_2  and  N_14
REMARK    4  A    between atoms: C_4  and  C_5
REMARK    5  A    between atoms: C_15  and  C_17
REMARK    6  A    between atoms: C_20  and  C_24
REMARK                            x       y       z     vdW  Elec       q    Type
REMARK                         _______ _______ _______ _____ _____    ______ ____
ROOT
ATOM      1  N   UNL     1      -1.372  -0.511   0.012  0.00  0.00    -0.309 N 
ATOM      2  C   UNL     1      -2.051  -0.643  -1.145  0.00  0.00    +0.259 C 
ATOM      3  O   UNL     1      -1.524  -0.341  -2.194  0.00  0.00    -0.271 OA
ATOM      4  H   UNL     1      -1.794  -0.752   0.852  0.00  0.00    +0.149 HD
ENDROOT
BRANCH   2   5
ATOM      5  C   UNL     1      -3.465  -1.164  -1.134  0.00  0.00    +0.297 C 
ATOM      6  N   UNL     1      -3.468  -2.604  -0.789  0.00  0.00    -0.262 NA
ATOM      7  C   UNL     1      -4.540  -3.178  -1.645  0.00  0.00    +0.180 C 
ATOM      8  N   UNL     1      -4.395  -2.394  -2.901  0.00  0.00    -0.177 NA
ATOM      9  O   UNL     1      -4.043  -1.035  -2.442  0.00  0.00    -0.270 OA
ATOM     10  H   UNL     1      -2.575  -3.027  -0.994  0.00  0.00    +0.127 HD
ATOM     11  H   UNL     1      -3.668  -2.779  -3.485  0.00  0.00    +0.156 HD
BRANCH   7  12
ATOM     12  C   UNL     1      -4.300  -4.645  -1.893  0.00  0.00    -0.014 A 
ATOM     13  C   UNL     1      -3.650  -5.410  -0.942  0.00  0.00    +0.006 A 
ATOM     14  C   UNL     1      -3.430  -6.755  -1.169  0.00  0.00    +0.000 A 
ATOM     15  C   UNL     1      -3.859  -7.337  -2.348  0.00  0.00    +0.000 A 
ATOM     16  C   UNL     1      -4.510  -6.572  -3.298  0.00  0.00    +0.000 A 
ATOM     17  C   UNL     1      -4.734  -5.228  -3.069  0.00  0.00    +0.006 A 
ENDBRANCH   7  12
ENDBRANCH   2   5
BRANCH   1  19
ATOM     18  C   UNL     1      -0.019   1.526   0.010  0.00  0.00    +0.028 C 
ATOM     19  C   UNL     1       0.002  -0.004   0.002  0.00  0.00    +0.074 C 
BRANCH  19  20
ATOM     20  C   UNL     1       0.742  -0.511   1.242  0.00  0.00    +0.055 C 
BRANCH  20  21
ATOM     21  C   UNL     1       0.870  -2.011   1.172  0.00  0.00    -0.040 C 
ATOM     22  C   UNL     1       1.925  -2.716   0.704  0.00  0.00    -0.001 A 
ATOM     23  C   UNL     1       3.219  -2.313   0.141  0.00  0.00    +0.010 A 
ATOM     24  C   UNL     1       4.091  -3.271  -0.250  0.00  0.00    +0.001 A 
ATOM     25  C   UNL     1       3.790  -4.635  -0.131  0.00  0.00    +0.002 A 
ATOM     26  C   UNL     1       2.622  -5.082   0.377  0.00  0.00    +0.026 A 
ATOM     27  C   UNL     1       1.632  -4.163   0.820  0.00  0.00    +0.043 A 
ATOM     28  N   UNL     1       0.442  -4.344   1.339  0.00  0.00    -0.380 N 
ATOM     29  C   UNL     1      -0.153  -3.032   1.617  0.00  0.00    +0.144 C 
ATOM     30  H   UNL     1       0.025  -5.203   1.513  0.00  0.00    +0.160 HD
ENDBRANCH  20  21
ENDBRANCH  19  20
ENDBRANCH   1  19
TORSDOF 5
