REMARK  Name = ZINC35775949
REMARK  13 active torsions:
REMARK  status: ('A' for Active; 'I' for Inactive)
REMARK    1  A    between atoms: C_1  and  C_2
REMARK    2  A    between atoms: C_2  and  C_3
REMARK    3  A    between atoms: C_3  and  C_4
REMARK    4  A    between atoms: C_4  and  N_5
REMARK    5  A    between atoms: N_5  and  C_6
REMARK    6  A    between atoms: C_6  and  C_7
REMARK    7  A    between atoms: N_9  and  C_10
REMARK    8  A    between atoms: N_9  and  C_23
REMARK    9  A    between atoms: C_10  and  C_11
REMARK   10  A    between atoms: N_15  and  C_16
REMARK   11  A    between atoms: C_16  and  C_17
REMARK   12  A    between atoms: C_26  and  C_28
REMARK   13  A    between atoms: C_29  and  C_30
REMARK                            x       y       z     vdW  Elec       q    Type
REMARK                         _______ _______ _______ _____ _____    ______ ____
ROOT
ATOM      1  C   UNL     1      -3.562  -4.170  -1.919  0.00  0.00    +0.234 C 
ATOM      2  O   UNL     1      -2.843  -4.840  -1.208  0.00  0.00    -0.274 OA
ATOM      3  N   UNL     1      -3.983  -4.659  -3.103  0.00  0.00    -0.291 N 
ENDROOT
BRANCH   3   4
ATOM      4  C   UNL     1      -3.513  -5.968  -3.563  0.00  0.00    +0.077 C 
ATOM      5  C   UNL     1      -2.891  -6.902  -2.523  0.00  0.00    +0.024 C 
ATOM      6  C   UNL     1      -2.003  -6.217  -3.564  0.00  0.00    +0.024 C 
ENDBRANCH   3   4
BRANCH   1   7
ATOM      7  C   UNL     1      -3.984  -2.792  -1.480  0.00  0.00    +0.203 C 
BRANCH   7   8
ATOM      8  N   UNL     1      -3.307  -2.450  -0.227  0.00  0.00    -0.289 N 
ATOM      9  C   UNL     1      -3.923  -2.666   0.952  0.00  0.00    +0.240 C 
ATOM     10  O   UNL     1      -5.001  -3.230   0.982  0.00  0.00    -0.271 OA
BRANCH   9  11
ATOM     11  C   UNL     1      -3.295  -2.221   2.198  0.00  0.00    +0.068 C 
ATOM     12  C   UNL     1      -3.858  -2.528   3.384  0.00  0.00    +0.013 C 
BRANCH  12  13
ATOM     13  C   UNL     1      -3.291  -1.987   4.630  0.00  0.00    -0.025 A 
ATOM     14  C   UNL     1      -2.170  -1.151   4.588  0.00  0.00    +0.008 A 
ATOM     15  C   UNL     1      -1.644  -0.649   5.759  0.00  0.00    +0.001 A 
ATOM     16  C   UNL     1      -2.222  -0.971   6.975  0.00  0.00    +0.000 A 
ATOM     17  C   UNL     1      -3.331  -1.798   7.025  0.00  0.00    +0.001 A 
ATOM     18  C   UNL     1      -3.872  -2.303   5.862  0.00  0.00    +0.008 A 
ENDBRANCH  12  13
ENDBRANCH   9  11
BRANCH   8  19
ATOM     19  C   UNL     1      -1.961  -1.873  -0.256  0.00  0.00    +0.108 C 
BRANCH  19  20
ATOM     20  C   UNL     1      -2.060  -0.348  -0.320  0.00  0.00    +0.019 C 
BRANCH  20  22
ATOM     21  C   UNL     1      -0.754   1.779  -0.415  0.00  0.00    +0.004 C 
ATOM     22  C   UNL     1      -0.654   0.254  -0.350  0.00  0.00    -0.002 C 
ENDBRANCH  20  22
ENDBRANCH  19  20
ENDBRANCH   8  19
ENDBRANCH   7   8
ENDBRANCH   1   7
BRANCH   3  23
ATOM     23  C   UNL     1      -4.911  -3.882  -3.928  0.00  0.00    +0.161 C 
BRANCH  23  24
ATOM     24  C   UNL     1      -4.132  -3.079  -4.938  0.00  0.00    +0.036 A 
ATOM     25  C   UNL     1      -3.725  -1.802  -4.788  0.00  0.00    +0.024 A 
ATOM     26  C   UNL     1      -3.034  -1.439  -5.961  0.00  0.00    +0.019 A 
ATOM     27  C   UNL     1      -3.046  -2.508  -6.783  0.00  0.00    +0.086 A 
ATOM     28  N   UNL     1      -3.713  -3.519  -6.158  0.00  0.00    -0.345 N 
BRANCH  28  29
ATOM     29  C   UNL     1      -3.946  -4.857  -6.709  0.00  0.00    +0.156 C 
BRANCH  29  30
ATOM     30  C   UNL     1      -5.245  -4.867  -7.473  0.00  0.00    -0.028 A 
ATOM     31  C   UNL     1      -6.436  -5.095  -6.809  0.00  0.00    +0.005 A 
ATOM     32  C   UNL     1      -7.627  -5.104  -7.510  0.00  0.00    +0.000 A 
ATOM     33  C   UNL     1      -7.627  -4.885  -8.875  0.00  0.00    +0.000 A 
ATOM     34  C   UNL     1      -6.436  -4.657  -9.539  0.00  0.00    +0.000 A 
ATOM     35  C   UNL     1      -5.246  -4.643  -8.837  0.00  0.00    +0.005 A 
ENDBRANCH  29  30
ENDBRANCH  28  29
ENDBRANCH  23  24
ENDBRANCH   3  23
TORSDOF 12
