REMARK  Name = ZINC39711038
REMARK  10 active torsions:
REMARK  status: ('A' for Active; 'I' for Inactive)
REMARK    1  A    between atoms: C_1  and  C_2
REMARK    2  A    between atoms: C_4  and  C_39
REMARK    3  A    between atoms: C_9  and  C_14
REMARK    4  A    between atoms: C_14  and  C_16
REMARK    5  A    between atoms: C_14  and  N_26
REMARK    6  A    between atoms: N_21  and  C_22
REMARK    7  A    between atoms: C_22  and  C_23
REMARK    8  A    between atoms: C_22  and  C_24
REMARK    9  A    between atoms: C_22  and  C_25
REMARK   10  A    between atoms: N_29  and  C_32
REMARK                            x       y       z     vdW  Elec       q    Type
REMARK                         _______ _______ _______ _____ _____    ______ ____
ROOT
ATOM      1  C   UNL     1       1.112  -4.842   2.839  0.00  0.00    -0.011 C 
ENDROOT
BRANCH   1  10
ATOM      2  C   UNL     1      -0.137  -5.855  -4.120  0.00  0.00    +0.044 C 
ATOM      3  C   UNL     1      -0.558  -5.771  -2.675  0.00  0.00    -0.050 A 
ATOM      4  C   UNL     1      -1.721  -6.422  -2.264  0.00  0.00    +0.008 A 
ATOM      5  C   UNL     1      -2.163  -6.392  -0.979  0.00  0.00    -0.028 A 
ATOM      6  C   UNL     1      -1.446  -5.688   0.006  0.00  0.00    +0.043 A 
ATOM      7  N   UNL     1      -1.889  -5.666   1.263  0.00  0.00    -0.284 N 
ATOM      8  C   UNL     1      -1.265  -5.024   2.237  0.00  0.00    +0.223 C 
ATOM      9  O   UNL     1      -1.717  -5.040   3.366  0.00  0.00    -0.275 OA
ATOM     10  C   UNL     1       0.012  -4.271   1.941  0.00  0.00    +0.088 C 
ATOM     11  C   UNL     1       0.520  -4.293   0.513  0.00  0.00    -0.006 C 
ATOM     12  C   UNL     1      -0.213  -4.991  -0.400  0.00  0.00    -0.007 A 
ATOM     13  C   UNL     1       0.207  -5.069  -1.800  0.00  0.00    +0.012 A 
ATOM     14  C   UNL     1      -3.430  -7.118  -0.607  0.00  0.00    +0.046 C 
ATOM     15  H   UNL     1      -2.707  -6.143   1.474  0.00  0.00    +0.155 HD
ENDBRANCH   1  10
BRANCH   1  16
ATOM     16  N   UNL     1       0.896  -6.283   3.021  0.00  0.00    +0.387 N 
ATOM     17  C   UNL     1       1.863  -6.802   3.997  0.00  0.00    -0.059 C 
ATOM     18  C   UNL     1       1.566  -8.279   4.273  0.00  0.00    +0.086 C 
ATOM     19  N   UNL     1       1.552  -9.000   2.990  0.00  0.00    -0.331 N 
ATOM     20  C   UNL     1       0.733  -8.454   1.898  0.00  0.00    +0.086 C 
ATOM     21  C   UNL     1       1.069  -6.968   1.733  0.00  0.00    -0.059 C 
ATOM     22  H   UNL     1      -0.040  -6.442   3.361  0.00  0.00    -0.081 HD
BRANCH  19  23
ATOM     23  C   UNL     1       2.297 -10.170   2.815  0.00  0.00    +0.065 A 
ATOM     24  C   UNL     1       1.730 -11.405   3.099  0.00  0.00    +0.026 A 
ATOM     25  C   UNL     1       2.469 -12.560   2.925  0.00  0.00    +0.002 A 
ATOM     26  C   UNL     1       3.772 -12.487   2.468  0.00  0.00    +0.003 A 
ATOM     27  C   UNL     1       4.342 -11.260   2.184  0.00  0.00    +0.040 A 
ATOM     28  C   UNL     1       3.607 -10.100   2.351  0.00  0.00    +0.144 A 
ATOM     29  F   UNL     1       4.161  -8.901   2.067  0.00  0.00    -0.204 F 
ENDBRANCH  19  23
ENDBRANCH   1  16
BRANCH   1  30
ATOM     30  C   UNL     1       1.073  -4.144   4.200  0.00  0.00    +0.183 C 
ATOM     31  N   UNL     1      -0.257  -4.287   4.822  0.00  0.00    -0.229 N 
ATOM     32  N   UNL     1      -0.754  -2.986   4.966  0.00  0.00    -0.064 NA
ATOM     33  N   UNL     1       0.026  -2.133   4.551  0.00  0.00    -0.061 NA
ATOM     34  N   UNL     1       1.213  -2.684   4.043  0.00  0.00    -0.211 N 
ATOM     35  H   UNL     1      -0.697  -5.113   5.078  0.00  0.00    +0.172 HD
BRANCH  34  36
ATOM     36  C   UNL     1       2.354  -1.962   3.474  0.00  0.00    +0.047 C 
ATOM     37  C   UNL     1       2.471  -2.288   1.984  0.00  0.00    +0.033 C 
ATOM     38  C   UNL     1       2.145  -0.457   3.653  0.00  0.00    +0.033 C 
ATOM     39  C   UNL     1       3.636  -2.389   4.192  0.00  0.00    +0.033 C 
ENDBRANCH  34  36
ENDBRANCH   1  30
TORSDOF 5
