REMARK  Name = ZINC12205109
REMARK  9 active torsions:
REMARK  status: ('A' for Active; 'I' for Inactive)
REMARK    1  A    between atoms: C_1  and  C_2
REMARK    2  A    between atoms: C_7  and  C_8
REMARK    3  A    between atoms: C_7  and  N_62
REMARK    4  A    between atoms: N_12  and  C_13
REMARK    5  A    between atoms: C_13  and  C_14
REMARK    6  A    between atoms: N_16  and  C_17
REMARK    7  A    between atoms: N_16  and  C_22
REMARK    8  A    between atoms: C_17  and  C_18
REMARK    9  A    between atoms: C_22  and  C_23
REMARK                            x       y       z     vdW  Elec       q    Type
REMARK                         _______ _______ _______ _____ _____    ______ ____
ROOT
ATOM      1  C   UNL     1      -2.489   1.348   0.021  0.00  0.00    +0.243 C 
ENDROOT
BRANCH   1   6
ATOM      2  C   UNL     1      -4.235   2.801  -1.046  0.00  0.00    +0.136 A 
ATOM      3  N   UNL     1      -5.181   3.588  -0.594  0.00  0.00    -0.115 NA
ATOM      4  N   UNL     1      -5.144   3.555   0.694  0.00  0.00    -0.023 NA
ATOM      5  N   UNL     1      -4.203   2.764   1.075  0.00  0.00    -0.044 NA
ATOM      6  N   UNL     1      -3.615   2.284   0.032  0.00  0.00    -0.222 N 
BRANCH   2   7
ATOM      7  C   UNL     1      -3.905   2.529  -2.490  0.00  0.00    +0.000 C 
BRANCH   7  14
ATOM      8  C   UNL     1      -7.439  -1.315  -4.817  0.00  0.00    +0.007 C 
ATOM      9  C   UNL     1      -6.747  -0.004  -4.439  0.00  0.00    -0.018 C 
ATOM     10  C   UNL     1      -5.274  -0.065  -4.853  0.00  0.00    -0.016 C 
ATOM     11  C   UNL     1      -4.573   1.224  -4.417  0.00  0.00    -0.078 C 
ATOM     12  C   UNL     1      -6.088   1.484  -2.545  0.00  0.00    -0.078 C 
ATOM     13  C   UNL     1      -6.835   0.203  -2.924  0.00  0.00    -0.016 C 
ATOM     14  N   UNL     1      -4.672   1.351  -2.948  0.00  0.00    +0.384 N 
ATOM     15  H   UNL     1      -4.280   0.508  -2.513  0.00  0.00    -0.081 HD
ENDBRANCH   7  14
ENDBRANCH   2   7
ENDBRANCH   1   6
BRANCH   1  16
ATOM     16  C   UNL     1      -1.194   2.119   0.019  0.00  0.00    +0.237 C 
ATOM     17  O   UNL     1      -1.210   3.331   0.026  0.00  0.00    -0.274 OA
ATOM     18  N   UNL     1      -0.018   1.461   0.010  0.00  0.00    -0.297 N 
BRANCH  18  19
ATOM     19  C   UNL     1       1.241   2.211   0.002  0.00  0.00    +0.111 C 
BRANCH  19  20
ATOM     20  C   UNL     1       1.665   2.479  -1.443  0.00  0.00    +0.006 C 
ATOM     21  C   UNL     1       2.473   1.331  -2.072  0.00  0.00    +0.005 C 
ATOM     22  C   UNL     1       3.356   2.414  -2.719  0.00  0.00    +0.001 C 
ATOM     23  C   UNL     1       2.936   3.337  -1.563  0.00  0.00    +0.005 C 
ENDBRANCH  19  20
ENDBRANCH  18  19
BRANCH  18  24
ATOM     24  C   UNL     1       0.002  -0.004   0.002  0.00  0.00    +0.139 C 
BRANCH  24  25
ATOM     25  C   UNL     1       0.023  -0.522   1.442  0.00  0.00    +0.136 C 
ATOM     26  C   UNL     1       0.170  -2.059   1.458  0.00  0.00    +0.035 C 
ATOM     27  C   UNL     1      -0.721  -2.509   2.638  0.00  0.00    +0.031 C 
ATOM     28  C   UNL     1      -1.301  -1.190   3.194  0.00  0.00    +0.160 C 
ATOM     29  O   UNL     1      -1.244  -0.266   2.086  0.00  0.00    -0.375 OA
ENDBRANCH  24  25
ENDBRANCH  18  24
ENDBRANCH   1  16
TORSDOF 8
