REMARK  Name = ZINC08604489
REMARK  8 active torsions:
REMARK  status: ('A' for Active; 'I' for Inactive)
REMARK    1  A    between atoms: C_1  and  C_2
REMARK    2  A    between atoms: C_2  and  C_3
REMARK    3  A    between atoms: C_6  and  S_9
REMARK    4  A    between atoms: S_9  and  C_12
REMARK    5  A    between atoms: N_26  and  C_27
REMARK    6  A    between atoms: C_27  and  C_28
REMARK    7  A    between atoms: C_28  and  N_29
REMARK    8  A    between atoms: C_30  and  C_32
REMARK                            x       y       z     vdW  Elec       q    Type
REMARK                         _______ _______ _______ _____ _____    ______ ____
ROOT
ATOM      1  C   UNL     1      -6.731  -0.695   0.056  0.00  0.00    +0.249 A 
ATOM      2  C   UNL     1      -7.208  -0.052   1.184  0.00  0.00    +0.204 A 
ATOM      3  N   UNL     1      -7.021  -0.275   2.497  0.00  0.00    -0.209 NA
ATOM      4  C   UNL     1      -7.586   0.477   3.418  0.00  0.00    +0.131 A 
ATOM      5  C   UNL     1      -8.446   1.593   2.999  0.00  0.00    +0.042 A 
ATOM      6  C   UNL     1      -9.071   2.426   3.927  0.00  0.00    +0.033 A 
ATOM      7  C   UNL     1      -9.869   3.460   3.484  0.00  0.00    +0.042 A 
ATOM      8  C   UNL     1     -10.052   3.674   2.125  0.00  0.00    +0.022 A 
ATOM      9  C   UNL     1      -9.440   2.858   1.196  0.00  0.00    +0.030 A 
ATOM     10  C   UNL     1      -8.633   1.813   1.622  0.00  0.00    +0.080 A 
ATOM     11  N   UNL     1      -7.998   0.970   0.728  0.00  0.00    -0.192 N 
ATOM     12  N   UNL     1      -7.966   0.905  -0.671  0.00  0.00    -0.057 NA
ATOM     13  N   UNL     1      -7.211  -0.078  -1.017  0.00  0.00    -0.108 NA
ATOM     14 CL   UNL     1     -10.650   4.500   4.634  0.00  0.00    -0.084 Cl
ATOM     15  N   UNL     1      -7.373   0.222   4.757  0.00  0.00    -0.327 N 
ATOM     16  H   UNL     1      -7.793   0.780   5.430  0.00  0.00    +0.148 HD
ENDROOT
BRANCH   1  17
ATOM     17  S   UNL     1      -5.658  -2.093   0.045  0.00  0.00    +0.047 S 
ATOM     18  O   UNL     1      -5.858  -2.749  -1.200  0.00  0.00    -0.163 OA
ATOM     19  O   UNL     1      -5.838  -2.753   1.291  0.00  0.00    -0.163 OA
BRANCH  17  23
ATOM     20  C   UNL     1      -1.412  -0.526   0.013  0.00  0.00    -0.048 A 
ATOM     21  C   UNL     1      -2.051  -0.766   1.215  0.00  0.00    +0.005 A 
ATOM     22  C   UNL     1      -3.348  -1.244   1.225  0.00  0.00    +0.028 A 
ATOM     23  C   UNL     1      -4.006  -1.482   0.032  0.00  0.00    +0.095 A 
ATOM     24  C   UNL     1      -3.367  -1.241  -1.170  0.00  0.00    +0.028 A 
ATOM     25  C   UNL     1      -2.072  -0.758  -1.179  0.00  0.00    +0.005 A 
BRANCH  20  27
ATOM     26  C   UNL     1      -0.019   1.526   0.010  0.00  0.00    +0.009 C 
ATOM     27  C   UNL     1       0.002  -0.004   0.002  0.00  0.00    +0.032 C 
ENDBRANCH  20  27
ENDBRANCH  17  23
ENDBRANCH   1  17
BRANCH  15  28
ATOM     28  C   UNL     1      -6.514  -0.893   5.163  0.00  0.00    +0.121 C 
BRANCH  28  29
ATOM     29  C   UNL     1      -6.447  -0.956   6.690  0.00  0.00    +0.123 C 
BRANCH  29  30
ATOM     30  N   UNL     1      -5.588  -2.071   7.096  0.00  0.00    -0.314 N 
ATOM     31  C   UNL     1      -5.380  -2.321   8.404  0.00  0.00    +0.210 C 
ATOM     32  O   UNL     1      -5.904  -1.622   9.245  0.00  0.00    -0.276 OA
ATOM     33  C   UNL     1      -4.496  -3.468   8.821  0.00  0.00    +0.109 C 
ATOM     34  H   UNL     1      -5.168  -2.630   6.423  0.00  0.00    +0.149 HD
ENDBRANCH  29  30
ENDBRANCH  28  29
ENDBRANCH  15  28
TORSDOF 6
