REMARK  Name = ZINC37630268
REMARK  4 active torsions:
REMARK  status: ('A' for Active; 'I' for Inactive)
REMARK    1  A    between atoms: C_4  and  N_13
REMARK    2  A    between atoms: C_6  and  C_9
REMARK    3  A    between atoms: C_14  and  C_16
REMARK    4  A    between atoms: C_19  and  N_22
REMARK                            x       y       z     vdW  Elec       q    Type
REMARK                         _______ _______ _______ _____ _____    ______ ____
ROOT
ATOM      1  N   UNL     1       2.862  -0.453  -0.081  0.00  0.00    -0.312 N 
ATOM      2  C   UNL     1       4.205  -0.564  -0.096  0.00  0.00    +0.216 C 
ATOM      3  O   UNL     1       4.827  -0.261  -1.092  0.00  0.00    -0.276 OA
ATOM      4  H   UNL     1       2.365  -0.695   0.716  0.00  0.00    +0.149 HD
ENDROOT
BRANCH   1   8
ATOM      5  C   UNL     1      -0.019   1.526   0.010  0.00  0.00    +0.001 C 
ATOM      6  C   UNL     1       1.417   2.055  -0.000  0.00  0.00    +0.002 C 
ATOM      7  C   UNL     1       2.133   1.562  -1.259  0.00  0.00    +0.023 C 
ATOM      8  C   UNL     1       2.154   0.032  -1.268  0.00  0.00    +0.084 C 
ATOM      9  C   UNL     1       0.718  -0.497  -1.257  0.00  0.00    +0.113 C 
ATOM     10  C   UNL     1       0.002  -0.004   0.002  0.00  0.00    +0.014 C 
BRANCH   9  11
ATOM     11  C   UNL     1       0.739  -2.027  -1.265  0.00  0.00    +0.395 C 
ATOM     12  F   UNL     1       1.416  -2.491  -0.132  0.00  0.00    -0.170 F 
ATOM     13  F   UNL     1      -0.574  -2.512  -1.255  0.00  0.00    -0.170 F 
ATOM     14  F   UNL     1       1.394  -2.478  -2.416  0.00  0.00    -0.170 F 
ENDBRANCH   9  11
ENDBRANCH   1   8
BRANCH   2  15
ATOM     15  C   UNL     1       4.934  -1.063   1.125  0.00  0.00    +0.075 C 
ATOM     16  C   UNL     1       4.653  -0.129   2.304  0.00  0.00    +0.011 C 
ATOM     17  C   UNL     1       5.393  -0.636   3.543  0.00  0.00    -0.016 C 
ATOM     18  C   UNL     1       6.897  -0.665   3.263  0.00  0.00    -0.075 C 
ATOM     19  C   UNL     1       7.178  -1.599   2.084  0.00  0.00    -0.016 C 
ATOM     20  C   UNL     1       6.438  -1.092   0.845  0.00  0.00    +0.011 C 
BRANCH  18  21
ATOM     21  N   UNL     1       7.608  -1.152   4.453  0.00  0.00    +0.380 N 
ATOM     22  H   UNL     1       7.289  -2.083   4.678  0.00  0.00    -0.090 HD
ATOM     23  H   UNL     1       8.599  -1.171   4.268  0.00  0.00    -0.090 HD
ATOM     24  H   UNL     1       7.423  -0.536   5.231  0.00  0.00    -0.090 HD
ENDBRANCH  18  21
ENDBRANCH   2  15
TORSDOF 4
