REMARK  Name = ZINC11706070
REMARK  13 active torsions:
REMARK  status: ('A' for Active; 'I' for Inactive)
REMARK    1  A    between atoms: C_1  and  C_2
REMARK    2  A    between atoms: C_3  and  C_17
REMARK    3  A    between atoms: C_5  and  C_7
REMARK    4  A    between atoms: C_10  and  O_15
REMARK    5  A    between atoms: C_12  and  O_13
REMARK    6  A    between atoms: O_13  and  C_14
REMARK    7  A    between atoms: O_15  and  C_16
REMARK    8  A    between atoms: C_17  and  N_68
REMARK    9  A    between atoms: C_18  and  C_19
REMARK   10  A    between atoms: C_18  and  N_68
REMARK   11  A    between atoms: C_19  and  O_20
REMARK   12  A    between atoms: C_21  and  C_22
REMARK   13  A    between atoms: C_21  and  N_68
REMARK                            x       y       z     vdW  Elec       q    Type
REMARK                         _______ _______ _______ _____ _____    ______ ____
ROOT
ATOM      1  C   UNL     1      -3.797   1.439   6.662  0.00  0.00    -0.019 C 
ENDROOT
BRANCH   1   4
ATOM      2  C   UNL     1      -2.996  -0.050   4.034  0.00  0.00    +0.088 C 
ATOM      3  C   UNL     1      -2.682   1.384   4.378  0.00  0.00    +0.124 A 
ATOM      4  C   UNL     1      -3.026   2.026   5.508  0.00  0.00    +0.066 A 
ATOM      5  N   UNL     1      -2.560   3.282   5.426  0.00  0.00    -0.216 NA
ATOM      6  C   UNL     1      -1.941   3.425   4.276  0.00  0.00    +0.231 A 
ATOM      7  O   UNL     1      -2.009   2.262   3.606  0.00  0.00    -0.440 OA
BRANCH   6   8
ATOM      8  C   UNL     1      -1.286   4.659   3.798  0.00  0.00    +0.079 A 
ATOM      9  C   UNL     1      -1.291   5.808   4.591  0.00  0.00    +0.020 A 
ATOM     10  C   UNL     1      -0.679   6.958   4.141  0.00  0.00    +0.046 A 
ATOM     11  C   UNL     1      -0.056   6.978   2.899  0.00  0.00    +0.124 A 
ATOM     12  C   UNL     1      -0.040   5.840   2.106  0.00  0.00    +0.092 A 
ATOM     13  C   UNL     1      -0.657   4.681   2.546  0.00  0.00    +0.136 A 
BRANCH  13  14
ATOM     14  O   UNL     1      -0.647   3.567   1.769  0.00  0.00    -0.494 OA
ATOM     15  C   UNL     1       0.013   3.664   0.505  0.00  0.00    +0.277 C 
ENDBRANCH  13  14
BRANCH  11  16
ATOM     16  O   UNL     1       0.546   8.115   2.462  0.00  0.00    -0.495 OA
ATOM     17  C   UNL     1       0.498   9.248   3.330  0.00  0.00    +0.277 C 
ENDBRANCH  11  16
ENDBRANCH   6   8
ENDBRANCH   1   4
BRANCH   1  18
ATOM     18  N   UNL     1      -5.238   1.676   6.437  0.00  0.00    +0.385 N 
ATOM     19  H   UNL     1      -5.366   2.625   6.066  0.00  0.00    -0.081 HD
BRANCH  18  20
ATOM     20  C   UNL     1      -5.764   0.702   5.458  0.00  0.00    -0.050 C 
BRANCH  20  21
ATOM     21  C   UNL     1      -7.134   1.181   4.975  0.00  0.00    +0.137 C 
BRANCH  21  22
ATOM     22  O   UNL     1      -6.982   2.400   4.245  0.00  0.00    -0.397 OA
ATOM     23  H   UNL     1      -7.818   2.803   3.973  0.00  0.00    +0.209 HD
ENDBRANCH  21  22
ENDBRANCH  20  21
ENDBRANCH  18  20
BRANCH  18  24
ATOM     24  C   UNL     1      -5.974   1.557   7.713  0.00  0.00    -0.071 C 
BRANCH  24  25
ATOM     25  C   UNL     1      -5.971   2.920   8.408  0.00  0.00    -0.043 C 
ATOM     26  C   UNL     1      -4.528   3.391   8.600  0.00  0.00    +0.008 C 
ATOM     27  C   UNL     1      -4.525   4.754   9.294  0.00  0.00    -0.010 C 
ATOM     28  C   UNL     1      -5.208   4.634  10.658  0.00  0.00    +0.007 C 
ATOM     29  C   UNL     1      -6.651   4.163  10.465  0.00  0.00    -0.010 C 
ATOM     30  C   UNL     1      -6.654   2.800   9.771  0.00  0.00    +0.008 C 
ATOM     31  C   UNL     1      -7.407   5.176   9.604  0.00  0.00    +0.007 C 
ATOM     32  C   UNL     1      -6.724   5.296   8.240  0.00  0.00    -0.010 C 
ATOM     33  C   UNL     1      -5.281   5.767   8.432  0.00  0.00    +0.007 C 
ATOM     34  C   UNL     1      -6.728   3.933   7.546  0.00  0.00    +0.008 C 
ENDBRANCH  24  25
ENDBRANCH  18  24
ENDBRANCH   1  18
TORSDOF 10
