REMARK  Name = ZINC43227143
REMARK  7 active torsions:
REMARK  status: ('A' for Active; 'I' for Inactive)
REMARK    1  A    between atoms: C_1  and  C_2
REMARK    2  A    between atoms: C_2  and  C_3
REMARK    3  A    between atoms: C_3  and  C_4
REMARK    4  A    between atoms: C_4  and  C_6
REMARK    5  A    between atoms: C_4  and  N_24
REMARK    6  A    between atoms: C_8  and  C_11
REMARK    7  A    between atoms: N_13  and  C_14
REMARK                            x       y       z     vdW  Elec       q    Type
REMARK                         _______ _______ _______ _____ _____    ______ ____
ROOT
ATOM      1  C   UNL     1      -5.372  -4.121   2.228  0.00  0.00    +0.263 C 
ATOM      2  O   UNL     1      -6.529  -4.474   2.099  0.00  0.00    -0.269 OA
ATOM      3  N   UNL     1      -4.745  -4.285   3.410  0.00  0.00    -0.307 N 
ATOM      4  H   UNL     1      -3.823  -4.003   3.512  0.00  0.00    +0.149 HD
ENDROOT
BRANCH   3   5
ATOM      5  C   UNL     1      -5.457  -4.888   4.539  0.00  0.00    +0.079 C 
ATOM      6  C   UNL     1      -5.365  -6.412   4.445  0.00  0.00    +0.010 C 
ATOM      7  C   UNL     1      -3.895  -6.837   4.483  0.00  0.00    +0.009 C 
ATOM      8  C   UNL     1      -3.262  -6.367   5.794  0.00  0.00    -0.010 C 
ATOM      9  C   UNL     1      -4.005  -6.997   6.974  0.00  0.00    +0.007 C 
ATOM     10  C   UNL     1      -5.475  -6.572   6.936  0.00  0.00    -0.010 C 
ATOM     11  C   UNL     1      -6.108  -7.042   5.625  0.00  0.00    +0.009 C 
ATOM     12  C   UNL     1      -5.567  -5.048   7.030  0.00  0.00    +0.009 C 
ATOM     13  C   UNL     1      -4.824  -4.418   5.850  0.00  0.00    +0.010 C 
ATOM     14  C   UNL     1      -3.355  -4.843   5.888  0.00  0.00    +0.009 C 
ENDBRANCH   3   5
BRANCH   1  17
ATOM     15  C   UNL     1      -2.820  -2.586   0.139  0.00  0.00    +0.065 A 
ATOM     16  N   UNL     1      -3.386  -3.113   1.190  0.00  0.00    -0.241 NA
ATOM     17  C   UNL     1      -4.657  -3.515   1.092  0.00  0.00    +0.133 A 
ATOM     18  C   UNL     1      -5.255  -3.330  -0.126  0.00  0.00    +0.079 A 
ATOM     19  S   UNL     1      -4.028  -2.618  -1.026  0.00  0.00    -0.081 S 
BRANCH  15  20
ATOM     20  C   UNL     1      -1.413  -2.063   0.004  0.00  0.00    -0.018 C 
BRANCH  20  21
ATOM     21  N   UNL     1      -0.833  -2.538  -1.259  0.00  0.00    +0.384 N 
ATOM     22  H   UNL     1      -1.390  -2.205  -2.031  0.00  0.00    -0.089 HD
ATOM     23  H   UNL     1       0.110  -2.189  -1.349  0.00  0.00    -0.089 HD
ATOM     24  H   UNL     1      -0.819  -3.547  -1.264  0.00  0.00    -0.089 HD
ENDBRANCH  20  21
BRANCH  20  25
ATOM     25  C   UNL     1      -1.433  -0.534   0.013  0.00  0.00    -0.010 C 
BRANCH  25  27
ATOM     26  C   UNL     1      -0.019   1.526   0.010  0.00  0.00    +0.004 C 
ATOM     27  C   UNL     1       0.002  -0.004   0.002  0.00  0.00    -0.005 C 
ENDBRANCH  25  27
ENDBRANCH  20  25
ENDBRANCH  15  20
ENDBRANCH   1  17
TORSDOF 6
