REMARK  Name = ZINC39404343
REMARK  12 active torsions:
REMARK  status: ('A' for Active; 'I' for Inactive)
REMARK    1  A    between atoms: C_1  and  C_2
REMARK    2  A    between atoms: C_2  and  O_3
REMARK    3  A    between atoms: O_3  and  C_4
REMARK    4  A    between atoms: C_4  and  C_6
REMARK    5  A    between atoms: C_8  and  C_38
REMARK    6  A    between atoms: C_10  and  C_36
REMARK    7  A    between atoms: C_12  and  N_15
REMARK    8  A    between atoms: C_16  and  C_18
REMARK    9  A    between atoms: C_18  and  S_19
REMARK   10  A    between atoms: S_19  and  C_20
REMARK   11  A    between atoms: N_24  and  N_25
REMARK   12  A    between atoms: C_26  and  C_27
REMARK                            x       y       z     vdW  Elec       q    Type
REMARK                         _______ _______ _______ _____ _____    ______ ____
ROOT
ATOM      1  C   UNL     1       0.961  -4.925  -8.251  0.00  0.00    +0.168 C 
ENDROOT
BRANCH   1   3
ATOM      2  N   UNL     1       1.311  -4.275  -5.890  0.00  0.00    -0.302 N 
ATOM      3  C   UNL     1       0.614  -5.001  -6.787  0.00  0.00    +0.224 C 
ATOM      4  O   UNL     1      -0.293  -5.715  -6.415  0.00  0.00    -0.275 OA
ATOM      5  H   UNL     1       2.036  -3.704  -6.188  0.00  0.00    +0.150 HD
BRANCH   2   9
ATOM      6  C   UNL     1       1.468  -2.353  -2.550  0.00  0.00    +0.161 C 
ATOM      7  C   UNL     1       2.058  -3.764  -2.261  0.00  0.00    +0.029 C 
ATOM      8  C   UNL     1       2.251  -4.486  -3.605  0.00  0.00    +0.126 C 
ATOM      9  C   UNL     1       0.973  -4.349  -4.467  0.00  0.00    +0.149 C 
ATOM     10  S   UNL     1       0.258  -2.758  -3.879  0.00  0.00    -0.122 S 
ATOM     11  C   UNL     1       3.406  -3.624  -1.552  0.00  0.00    +0.010 C 
BRANCH   6  12
ATOM     12  C   UNL     1       0.775  -1.794  -1.334  0.00  0.00    +0.321 C 
ATOM     13  O   UNL     1       0.314  -2.540  -0.504  0.00  0.00    -0.250 OA
BRANCH  12  14
ATOM     14  O   UNL     1       0.671  -0.465  -1.174  0.00  0.00    -0.464 OA
BRANCH  14  16
ATOM     15  C   UNL     1      -0.019   1.526   0.010  0.00  0.00    +0.048 C 
ATOM     16  C   UNL     1       0.002  -0.004   0.002  0.00  0.00    +0.229 C 
ENDBRANCH  14  16
ENDBRANCH  12  14
ENDBRANCH   6  12
BRANCH   8  17
ATOM     17  C   UNL     1       3.389  -3.887  -4.323  0.00  0.00    +0.069 C 
ATOM     18  N   UNL     1       4.266  -3.425  -4.876  0.00  0.00    -0.196 NA
ENDBRANCH   8  17
ENDBRANCH   2   9
ENDBRANCH   1   3
BRANCH   1  19
ATOM     19  S   UNL     1      -0.148  -6.007  -9.193  0.00  0.00    -0.104 S 
BRANCH  19  20
ATOM     20  C   UNL     1       0.395  -5.804 -10.912  0.00  0.00    +0.272 C 
ATOM     21  N   UNL     1       1.819  -6.164 -11.051  0.00  0.00    -0.281 N 
ATOM     22  C   UNL     1       2.421  -4.992 -11.483  0.00  0.00    +0.231 C 
ATOM     23  N   UNL     1       3.704  -4.848 -11.740  0.00  0.00    -0.114 NA
ATOM     24  N   UNL     1       1.485  -4.019 -11.600  0.00  0.00    -0.249 N 
ATOM     25  N   UNL     1       0.344  -4.388 -11.305  0.00  0.00    -0.175 NA
ATOM     26  H   UNL     1       2.237  -7.022 -10.879  0.00  0.00    +0.152 HD
ATOM     27  H   UNL     1       1.692  -3.117 -11.889  0.00  0.00    +0.191 HD
BRANCH  23  28
ATOM     28  N   UNL     1       4.507  -5.846 -11.595  0.00  0.00    -0.154 NA
ATOM     29  C   UNL     1       5.782  -5.703 -11.851  0.00  0.00    +0.143 C 
BRANCH  29  30
ATOM     30  C   UNL     1       6.698  -6.840 -11.685  0.00  0.00    -0.005 A 
ATOM     31  C   UNL     1       6.209  -8.080 -11.258  0.00  0.00    +0.011 A 
ATOM     32  C   UNL     1       7.074  -9.143 -11.105  0.00  0.00    +0.020 A 
ATOM     33  C   UNL     1       8.424  -8.985 -11.371  0.00  0.00    +0.041 A 
ATOM     34  C   UNL     1       8.916  -7.760 -11.794  0.00  0.00    +0.020 A 
ATOM     35  C   UNL     1       8.063  -6.691 -11.958  0.00  0.00    +0.011 A 
ATOM     36 CL   UNL     1       9.506 -10.328 -11.174  0.00  0.00    -0.084 Cl
ENDBRANCH  29  30
ENDBRANCH  23  28
ENDBRANCH  19  20
ENDBRANCH   1  19
TORSDOF 10
