REMARK  Name = ZINC15486712
REMARK  10 active torsions:
REMARK  status: ('A' for Active; 'I' for Inactive)
REMARK    1  A    between atoms: C_1  and  C_2
REMARK    2  A    between atoms: C_2  and  C_3
REMARK    3  A    between atoms: C_3  and  C_4
REMARK    4  A    between atoms: C_4  and  N_5
REMARK    5  A    between atoms: C_6  and  N_32
REMARK    6  A    between atoms: C_7  and  N_14
REMARK    7  A    between atoms: N_14  and  C_15
REMARK    8  A    between atoms: C_20  and  C_22
REMARK    9  A    between atoms: C_22  and  S_23
REMARK   10  A    between atoms: S_23  and  C_24
REMARK                            x       y       z     vdW  Elec       q    Type
REMARK                         _______ _______ _______ _____ _____    ______ ____
ROOT
ATOM      1  N   UNL     1       2.599   1.318  -0.082  0.00  0.00    -0.260 N 
ATOM      2  C   UNL     1       3.713   2.079  -0.117  0.00  0.00    +0.230 C 
ATOM      3  O   UNL     1       4.805   1.553  -0.173  0.00  0.00    -0.274 OA
ENDROOT
BRANCH   1   6
ATOM      4  N   UNL     1      -0.336   3.225  -1.200  0.00  0.00    -0.280 N 
ATOM      5  C   UNL     1       0.910   2.642  -1.209  0.00  0.00    +0.127 A 
ATOM      6  C   UNL     1       1.327   1.928  -0.104  0.00  0.00    +0.140 A 
ATOM      7  C   UNL     1       0.462   1.819   1.001  0.00  0.00    +0.277 A 
ATOM      8  O   UNL     1       0.805   1.194   1.990  0.00  0.00    -0.266 OA
ATOM      9  N   UNL     1      -0.750   2.406   0.957  0.00  0.00    -0.273 N 
ATOM     10  H   UNL     1      -1.369   2.322   1.738  0.00  0.00    +0.173 HD
ATOM     11  C   UNL     1      -1.138   3.102  -0.127  0.00  0.00    +0.331 A 
ATOM     12  O   UNL     1      -2.236   3.625  -0.139  0.00  0.00    -0.246 OA
BRANCH   5  13
ATOM     13  N   UNL     1       1.729   2.768  -2.305  0.00  0.00    -0.343 N 
ATOM     14  H   UNL     1       2.571   2.288  -2.339  0.00  0.00    +0.144 HD
ATOM     15  H   UNL     1       1.465   3.337  -3.045  0.00  0.00    +0.144 HD
ENDBRANCH   5  13
BRANCH   4  16
ATOM     16  C   UNL     1      -0.792   3.986  -2.366  0.00  0.00    +0.128 C 
BRANCH  16  17
ATOM     17  C   UNL     1      -1.517   3.050  -3.334  0.00  0.00    +0.021 C 
BRANCH  17  19
ATOM     18  C   UNL     1      -2.718   2.908  -5.521  0.00  0.00    +0.004 C 
ATOM     19  C   UNL     1      -1.993   3.844  -4.552  0.00  0.00    -0.002 C 
ENDBRANCH  17  19
ENDBRANCH  16  17
ENDBRANCH   4  16
ENDBRANCH   1   6
BRANCH   1  20
ATOM     20  C   UNL     1       2.710  -0.142  -0.022  0.00  0.00    +0.082 C 
ATOM     21  C   UNL     1       3.511  -0.560   1.228  0.00  0.00    +0.023 C 
ATOM     22  C   UNL     1       4.347  -1.776   0.754  0.00  0.00    +0.002 C 
ATOM     23  C   UNL     1       4.743  -1.377  -0.690  0.00  0.00    +0.002 C 
ATOM     24  C   UNL     1       3.493  -0.661  -1.241  0.00  0.00    +0.023 C 
ENDBRANCH   1  20
BRANCH   2  25
ATOM     25  C   UNL     1       3.601   3.581  -0.085  0.00  0.00    +0.170 C 
BRANCH  25  26
ATOM     26  S   UNL     1       5.260   4.309   0.002  0.00  0.00    -0.113 S 
BRANCH  26  27
ATOM     27  C   UNL     1       4.958   6.038   0.158  0.00  0.00    +0.044 A 
ATOM     28  C   UNL     1       3.659   6.509   0.293  0.00  0.00    +0.020 A 
ATOM     29  C   UNL     1       3.425   7.865   0.416  0.00  0.00    +0.039 A 
ATOM     30  C   UNL     1       4.485   8.756   0.405  0.00  0.00    +0.126 A 
ATOM     31  C   UNL     1       5.782   8.291   0.270  0.00  0.00    +0.077 A 
ATOM     32  C   UNL     1       6.022   6.934   0.153  0.00  0.00    +0.139 A 
ATOM     33  F   UNL     1       7.289   6.480   0.027  0.00  0.00    -0.204 F 
ATOM     34  F   UNL     1       4.252  10.081   0.525  0.00  0.00    -0.205 F 
ENDBRANCH  26  27
ENDBRANCH  25  26
ENDBRANCH   2  25
TORSDOF 9
