REMARK  Name = ZINC03429477
REMARK  12 active torsions:
REMARK  status: ('A' for Active; 'I' for Inactive)
REMARK    1  A    between atoms: C_1  and  C_2
REMARK    2  A    between atoms: C_2  and  C_3
REMARK    3  A    between atoms: C_3  and  C_5
REMARK    4  A    between atoms: C_3  and  N_6
REMARK    5  A    between atoms: N_6  and  C_7
REMARK    6  A    between atoms: C_15  and  C_17
REMARK    7  A    between atoms: C_17  and  O_18
REMARK    8  A    between atoms: O_18  and  C_19
REMARK    9  A    between atoms: C_19  and  C_21
REMARK   10  A    between atoms: N_23  and  C_33
REMARK   11  A    between atoms: C_30  and  C_32
REMARK   12  A    between atoms: C_33  and  C_34
REMARK                            x       y       z     vdW  Elec       q    Type
REMARK                         _______ _______ _______ _____ _____    ______ ____
ROOT
ATOM      1  O   UNL     1      -3.214  -1.973   1.740  0.00  0.00    -0.452 OA
ENDROOT
BRANCH   1   2
ATOM      2  C   UNL     1      -3.876  -2.707   0.824  0.00  0.00    +0.345 C 
ATOM      3  O   UNL     1      -3.329  -3.018  -0.217  0.00  0.00    -0.245 OA
BRANCH   2   4
ATOM      4  C   UNL     1      -5.258  -3.133   1.082  0.00  0.00    +0.122 A 
ATOM      5  C   UNL     1      -5.946  -3.890   0.156  0.00  0.00    +0.106 A 
ATOM      6  N   UNL     1      -7.207  -4.295   0.357  0.00  0.00    -0.331 N 
ATOM      7  C   UNL     1      -7.917  -3.994   1.496  0.00  0.00    +0.145 A 
ATOM      8  C   UNL     1      -7.322  -3.228   2.514  0.00  0.00    +0.065 A 
ATOM      9  C   UNL     1      -5.934  -2.764   2.338  0.00  0.00    +0.205 A 
ATOM     10  O   UNL     1      -5.372  -2.102   3.192  0.00  0.00    -0.286 OA
ATOM     11  C   UNL     1      -8.048  -2.927   3.668  0.00  0.00    +0.017 A 
ATOM     12  C   UNL     1      -9.343  -3.403   3.762  0.00  0.00    +0.024 A 
ATOM     13  C   UNL     1      -9.868  -4.152   2.721  0.00  0.00    +0.041 A 
ATOM     14  N   UNL     1      -9.165  -4.423   1.642  0.00  0.00    -0.234 NA
ATOM     15  C   UNL     1     -11.280  -4.670   2.827  0.00  0.00    +0.065 C 
BRANCH   6  16
ATOM     16  C   UNL     1      -7.859  -5.096  -0.682  0.00  0.00    +0.120 C 
ATOM     17  C   UNL     1      -7.598  -6.581  -0.421  0.00  0.00    +0.027 C 
ENDBRANCH   6  16
ENDBRANCH   2   4
ENDBRANCH   1   2
BRANCH   1  18
ATOM     18  C   UNL     1      -1.873  -1.595   1.422  0.00  0.00    +0.328 C 
BRANCH  18  20
ATOM     19  N   UNL     1      -0.074  -0.232   2.436  0.00  0.00    -0.291 N 
ATOM     20  C   UNL     1      -1.298  -0.784   2.555  0.00  0.00    +0.254 C 
ATOM     21  O   UNL     1      -1.936  -0.630   3.575  0.00  0.00    -0.272 OA
BRANCH  19  22
ATOM     22  C   UNL     1       0.441   0.642   3.492  0.00  0.00    +0.099 C 
ATOM     23  C   UNL     1       0.485  -0.124   4.825  0.00  0.00    +0.046 C 
ATOM     24  C   UNL     1       0.717   0.864   5.994  0.00  0.00    +0.168 C 
ATOM     25  S   UNL     1      -0.020   2.424   5.357  0.00  0.00    -0.029 S 
ATOM     26  O   UNL     1      -1.195   2.717   6.100  0.00  0.00    -0.174 OA
ATOM     27  O   UNL     1       1.001   3.406   5.247  0.00  0.00    -0.174 OA
ATOM     28  C   UNL     1      -0.503   1.866   3.669  0.00  0.00    +0.188 C 
ENDBRANCH  19  22
BRANCH  19  29
ATOM     29  C   UNL     1       0.740  -0.505   1.249  0.00  0.00    +0.073 C 
ATOM     30  C   UNL     1       1.139   0.816   0.589  0.00  0.00    +0.028 C 
BRANCH  29  32
ATOM     31  C   UNL     1       1.607  -2.651   2.190  0.00  0.00    +0.005 C 
ATOM     32  C   UNL     1       2.000  -1.270   1.660  0.00  0.00    +0.019 C 
ENDBRANCH  29  32
ENDBRANCH  19  29
ENDBRANCH  18  20
ENDBRANCH   1  18
TORSDOF 8
