REMARK  Name = ZINC17880474
REMARK  11 active torsions:
REMARK  status: ('A' for Active; 'I' for Inactive)
REMARK    1  A    between atoms: C_1  and  C_2
REMARK    2  A    between atoms: C_2  and  C_4
REMARK    3  A    between atoms: C_2  and  S_14
REMARK    4  A    between atoms: N_6  and  C_7
REMARK    5  A    between atoms: C_7  and  C_8
REMARK    6  A    between atoms: C_7  and  C_9
REMARK    7  A    between atoms: C_7  and  C_11
REMARK    8  A    between atoms: C_11  and  C_12
REMARK    9  A    between atoms: C_11  and  C_13
REMARK   10  A    between atoms: S_14  and  C_15
REMARK   11  A    between atoms: N_19  and  C_20
REMARK                            x       y       z     vdW  Elec       q    Type
REMARK                         _______ _______ _______ _____ _____    ______ ____
ROOT
ATOM      1  C   UNL     1       2.533  -0.042   1.241  0.00  0.00    +0.198 A 
ATOM      2  N   UNL     1       2.975   0.655   0.223  0.00  0.00    -0.120 NA
ATOM      3  N   UNL     1       4.340   0.898   0.422  0.00  0.00    -0.112 NA
ATOM      4  C   UNL     1       4.690   0.341   1.555  0.00  0.00    +0.225 A 
ATOM      5  N   UNL     1       3.582  -0.251   2.096  0.00  0.00    -0.257 N 
ATOM      6  N   UNL     1       5.963   0.353   2.112  0.00  0.00    -0.299 N 
ATOM      7  C   UNL     1       6.349  -0.280   3.382  0.00  0.00    +0.108 C 
ATOM      8  C   UNL     1       7.847   0.017   3.605  0.00  0.00    +0.020 C 
ATOM      9  C   UNL     1       8.085   1.277   2.732  0.00  0.00    +0.020 C 
ATOM     10  C   UNL     1       7.151   0.999   1.525  0.00  0.00    +0.108 C 
ENDROOT
BRANCH   5  11
ATOM     11  C   UNL     1       3.529  -0.952   3.310  0.00  0.00    +0.070 A 
ATOM     12  C   UNL     1       3.776  -2.317   3.337  0.00  0.00    +0.028 A 
ATOM     13  C   UNL     1       3.724  -3.004   4.534  0.00  0.00    +0.002 A 
ATOM     14  C   UNL     1       3.425  -2.334   5.706  0.00  0.00    +0.002 A 
ATOM     15  C   UNL     1       3.178  -0.974   5.684  0.00  0.00    +0.022 A 
ATOM     16  C   UNL     1       3.235  -0.279   4.490  0.00  0.00    +0.065 A 
ATOM     17 CL   UNL     1       2.933   1.430   4.463  0.00  0.00    -0.081 Cl
ENDBRANCH   5  11
BRANCH   1  18
ATOM     18  S   UNL     1       0.879  -0.605   1.472  0.00  0.00    -0.073 S 
BRANCH  18  20
ATOM     19  C   UNL     1      -0.019   1.526   0.010  0.00  0.00    +0.029 C 
ATOM     20  C   UNL     1       0.002  -0.004   0.002  0.00  0.00    +0.137 C 
BRANCH  20  21
ATOM     21  C   UNL     1      -1.412  -0.526   0.013  0.00  0.00    +0.227 C 
ATOM     22  O   UNL     1      -1.939  -0.827   1.062  0.00  0.00    -0.275 OA
ATOM     23  N   UNL     1      -2.090  -0.657  -1.144  0.00  0.00    -0.296 N 
ATOM     24  H   UNL     1      -1.669  -0.416  -1.984  0.00  0.00    +0.150 HD
BRANCH  23  25
ATOM     25  C   UNL     1      -3.465  -1.164  -1.134  0.00  0.00    +0.121 C 
ATOM     26  C   UNL     1      -3.485  -2.571  -0.532  0.00  0.00    +0.048 C 
BRANCH  25  27
ATOM     27  C   UNL     1      -4.000  -1.215  -2.566  0.00  0.00    +0.020 C 
ATOM     28  C   UNL     1      -3.198  -2.237  -3.375  0.00  0.00    +0.010 C 
ATOM     29  C   UNL     1      -5.474  -1.625  -2.545  0.00  0.00    +0.010 C 
ENDBRANCH  25  27
BRANCH  25  30
ATOM     30  C   UNL     1      -4.311  -0.272  -0.325  0.00  0.00    +0.088 C 
ATOM     31  N   UNL     1      -4.964   0.417   0.299  0.00  0.00    -0.194 NA
ENDBRANCH  25  30
ENDBRANCH  23  25
ENDBRANCH  20  21
ENDBRANCH  18  20
ENDBRANCH   1  18
TORSDOF 7
