REMARK  Name = ZINC37359001
REMARK  8 active torsions:
REMARK  status: ('A' for Active; 'I' for Inactive)
REMARK    1  A    between atoms: C_1  and  C_2
REMARK    2  A    between atoms: C_2  and  C_3
REMARK    3  A    between atoms: C_2  and  C_4
REMARK    4  A    between atoms: C_4  and  N_5
REMARK    5  A    between atoms: C_8  and  C_23
REMARK    6  A    between atoms: C_10  and  N_22
REMARK    7  A    between atoms: N_11  and  C_15
REMARK    8  A    between atoms: C_15  and  C_16
REMARK                            x       y       z     vdW  Elec       q    Type
REMARK                         _______ _______ _______ _____ _____    ______ ____
ROOT
ATOM      1  N   UNL     1      -1.574  -1.900  -0.991  0.00  0.00    -0.313 N 
ATOM      2  C   UNL     1      -2.677  -2.648  -0.619  0.00  0.00    +0.218 A 
ATOM      3  N   UNL     1      -2.615  -3.969  -0.754  0.00  0.00    -0.214 NA
ATOM      4  C   UNL     1      -3.626  -4.761  -0.421  0.00  0.00    +0.091 A 
ATOM      5  C   UNL     1      -4.801  -4.167   0.092  0.00  0.00    +0.086 A 
ATOM      6  C   UNL     1      -6.034  -4.624   0.540  0.00  0.00    +0.126 A 
ATOM      7  N   UNL     1      -6.753  -3.551   0.914  0.00  0.00    -0.244 N 
ATOM      8  N   UNL     1      -6.005  -2.385   0.717  0.00  0.00    -0.149 NA
ATOM      9  C   UNL     1      -4.827  -2.699   0.226  0.00  0.00    +0.188 A 
ATOM     10  N   UNL     1      -3.729  -2.013  -0.145  0.00  0.00    -0.193 NA
ATOM     11  H   UNL     1      -0.785  -2.341  -1.343  0.00  0.00    +0.149 HD
ENDROOT
BRANCH   4  12
ATOM     12  C   UNL     1      -3.526  -6.229  -0.584  0.00  0.00    +0.036 A 
ATOM     13  C   UNL     1      -4.466  -6.914  -1.356  0.00  0.00    +0.013 A 
ATOM     14  C   UNL     1      -4.367  -8.281  -1.504  0.00  0.00    +0.001 A 
ATOM     15  C   UNL     1      -3.340  -8.976  -0.889  0.00  0.00    +0.003 A 
ATOM     16  C   UNL     1      -2.406  -8.306  -0.122  0.00  0.00    +0.039 A 
ATOM     17  C   UNL     1      -2.488  -6.934   0.030  0.00  0.00    +0.133 A 
ATOM     18  F   UNL     1      -1.571  -6.279   0.775  0.00  0.00    -0.205 F 
ENDBRANCH   4  12
BRANCH   6  19
ATOM     19  N   UNL     1      -6.447  -5.943   0.592  0.00  0.00    -0.343 N 
ATOM     20  H   UNL     1      -5.815  -6.656   0.413  0.00  0.00    +0.144 HD
ATOM     21  H   UNL     1      -7.369  -6.154   0.807  0.00  0.00    +0.144 HD
ENDBRANCH   6  19
BRANCH   1  22
ATOM     22  C   UNL     1      -1.598  -0.442  -0.853  0.00  0.00    +0.107 C 
BRANCH  22  24
ATOM     23  C   UNL     1      -0.334   1.665  -1.305  0.00  0.00    +0.009 C 
ATOM     24  C   UNL     1      -0.265   0.137  -1.331  0.00  0.00    -0.000 C 
ATOM     25  C   UNL     1       0.859  -0.338  -0.408  0.00  0.00    +0.009 C 
ENDBRANCH  22  24
ENDBRANCH   1  22
BRANCH   7  26
ATOM     26  C   UNL     1      -8.116  -3.596   1.447  0.00  0.00    +0.180 C 
BRANCH  26  27
ATOM     27  C   UNL     1      -8.065  -3.723   2.948  0.00  0.00    -0.026 A 
ATOM     28  C   UNL     1      -8.035  -4.973   3.536  0.00  0.00    +0.005 A 
ATOM     29  C   UNL     1      -7.988  -5.089   4.912  0.00  0.00    +0.000 A 
ATOM     30  C   UNL     1      -7.970  -3.954   5.701  0.00  0.00    +0.000 A 
ATOM     31  C   UNL     1      -7.998  -2.703   5.113  0.00  0.00    +0.000 A 
ATOM     32  C   UNL     1      -8.041  -2.588   3.737  0.00  0.00    +0.005 A 
ENDBRANCH  26  27
ENDBRANCH   7  26
TORSDOF 6
