REMARK  Name = ZINC43092618
REMARK  10 active torsions:
REMARK  status: ('A' for Active; 'I' for Inactive)
REMARK    1  A    between atoms: C_1  and  C_2
REMARK    2  A    between atoms: C_2  and  C_3
REMARK    3  A    between atoms: C_3  and  C_5
REMARK    4  A    between atoms: C_3  and  N_23
REMARK    5  A    between atoms: C_5  and  C_7
REMARK    6  A    between atoms: C_5  and  N_14
REMARK    7  A    between atoms: N_14  and  C_15
REMARK    8  A    between atoms: N_14  and  C_17
REMARK    9  A    between atoms: C_15  and  C_16
REMARK   10  A    between atoms: C_17  and  C_18
REMARK                            x       y       z     vdW  Elec       q    Type
REMARK                         _______ _______ _______ _____ _____    ______ ____
ROOT
ATOM      1  C   UNL     1      -1.259  -2.432  -0.001  0.00  0.00    -0.051 C 
ENDROOT
BRANCH   1   2
ATOM      2  C   UNL     1      -0.657  -3.438   0.945  0.00  0.00    -0.048 A 
ATOM      3  C   UNL     1       0.655  -3.840   0.784  0.00  0.00    +0.003 A 
ATOM      4  C   UNL     1       1.207  -4.763   1.652  0.00  0.00    +0.000 A 
ATOM      5  C   UNL     1       0.447  -5.285   2.682  0.00  0.00    +0.001 A 
ATOM      6  C   UNL     1      -0.866  -4.885   2.844  0.00  0.00    +0.015 A 
ATOM      7  C   UNL     1      -1.417  -3.957   1.978  0.00  0.00    +0.019 A 
ATOM      8 BR   UNL     1      -3.211  -3.402   2.203  0.00  0.00    -0.050 Br
ENDBRANCH   1   2
BRANCH   1   9
ATOM      9  N   UNL     1      -0.547  -2.480  -1.285  0.00  0.00    +0.388 N 
ATOM     10  H   UNL     1       0.427  -2.264  -1.138  0.00  0.00    -0.080 HD
BRANCH   9  11
ATOM     11  C   UNL     1      -0.668  -3.826  -1.861  0.00  0.00    -0.081 C 
ATOM     12  C   UNL     1       0.170  -3.912  -3.139  0.00  0.00    -0.017 C 
ENDBRANCH   9  11
BRANCH   9  13
ATOM     13  C   UNL     1      -1.133  -1.499  -2.208  0.00  0.00    -0.002 C 
BRANCH  13  14
ATOM     14  C   UNL     1      -2.588  -1.825  -2.430  0.00  0.00    +0.089 A 
ATOM     15  C   UNL     1      -3.625  -1.284  -1.766  0.00  0.00    +0.042 A 
ATOM     16  C   UNL     1      -4.799  -1.872  -2.292  0.00  0.00    +0.041 A 
ATOM     17  C   UNL     1      -4.408  -2.737  -3.245  0.00  0.00    +0.195 A 
ATOM     18  O   UNL     1      -3.068  -2.700  -3.329  0.00  0.00    -0.470 OA
ENDBRANCH  13  14
ENDBRANCH   9  13
ENDBRANCH   1   9
BRANCH   1  19
ATOM     19  C   UNL     1      -1.133  -1.030   0.598  0.00  0.00    -0.085 C 
BRANCH  19  20
ATOM     20  N   UNL     1      -1.741  -1.013   1.936  0.00  0.00    +0.379 N 
ATOM     21  H   UNL     1      -1.266  -1.676   2.529  0.00  0.00    -0.090 HD
ATOM     22  H   UNL     1      -1.658  -0.088   2.331  0.00  0.00    -0.090 HD
ATOM     23  H   UNL     1      -2.716  -1.262   1.865  0.00  0.00    -0.090 HD
ENDBRANCH  19  20
BRANCH  19  25
ATOM     24  C   UNL     1       0.468   0.795   1.188  0.00  0.00    +0.002 C 
ATOM     25  C   UNL     1       0.345  -0.651   0.706  0.00  0.00    -0.021 C 
ENDBRANCH  19  25
ENDBRANCH   1  19
TORSDOF 8
