REMARK  Name = ZINC39487163
REMARK  10 active torsions:
REMARK  status: ('A' for Active; 'I' for Inactive)
REMARK    1  A    between atoms: C_1  and  C_2
REMARK    2  A    between atoms: C_2  and  C_3
REMARK    3  A    between atoms: C_3  and  C_33
REMARK    4  A    between atoms: N_5  and  S_23
REMARK    5  A    between atoms: N_8  and  C_9
REMARK    6  A    between atoms: C_9  and  C_10
REMARK    7  A    between atoms: C_10  and  C_17
REMARK    8  A    between atoms: N_13  and  O_16
REMARK    9  A    between atoms: S_23  and  O_26
REMARK   10  A    between atoms: O_26  and  C_27
REMARK                            x       y       z     vdW  Elec       q    Type
REMARK                         _______ _______ _______ _____ _____    ______ ____
ROOT
ATOM      1  C   UNL     1       0.523  -0.828  -1.760  0.00  0.00    +0.053 C 
ATOM      2  C   UNL     1      -0.455  -0.868  -2.950  0.00  0.00    +0.164 C 
ATOM      3  N   UNL     1      -0.746  -2.300  -3.119  0.00  0.00    -0.125 N 
ATOM      4  C   UNL     1      -0.068  -2.998  -2.198  0.00  0.00    +0.327 C 
ATOM      5  O   UNL     1      -0.125  -4.209  -2.110  0.00  0.00    -0.251 OA
ATOM      6  N   UNL     1       0.679  -2.241  -1.384  0.00  0.00    -0.277 N 
ATOM      7  C   UNL     1       1.867  -0.233  -2.185  0.00  0.00    +0.033 C 
ENDROOT
BRANCH   3   8
ATOM      8  S   UNL     1      -1.752  -2.946  -4.264  0.00  0.00    +0.213 S 
ATOM      9  O   UNL     1      -2.188  -4.201  -3.760  0.00  0.00    -0.115 OA
ATOM     10  O   UNL     1      -2.659  -1.917  -4.635  0.00  0.00    -0.115 OA
BRANCH   8  11
ATOM     11  O   UNL     1      -0.904  -3.242  -5.493  0.00  0.00    -0.331 OA
BRANCH  11  12
ATOM     12  C   UNL     1      -0.109  -4.337  -5.365  0.00  0.00    +0.158 A 
ATOM     13  C   UNL     1       1.174  -4.208  -4.854  0.00  0.00    +0.048 A 
ATOM     14  C   UNL     1       1.980  -5.323  -4.725  0.00  0.00    +0.004 A 
ATOM     15  C   UNL     1       1.509  -6.566  -5.106  0.00  0.00    +0.000 A 
ATOM     16  C   UNL     1       0.231  -6.697  -5.616  0.00  0.00    +0.004 A 
ATOM     17  C   UNL     1      -0.581  -5.586  -5.741  0.00  0.00    +0.048 A 
ENDBRANCH  11  12
ENDBRANCH   8  11
ENDBRANCH   3   8
BRANCH   1  19
ATOM     18  C   UNL     1      -0.134   1.454  -0.982  0.00  0.00    +0.006 C 
ATOM     19  C   UNL     1      -0.074  -0.027  -0.601  0.00  0.00    +0.024 C 
ENDBRANCH   1  19
BRANCH   6  20
ATOM     20  C   UNL     1       1.518  -2.741  -0.292  0.00  0.00    +0.117 C 
BRANCH  20  21
ATOM     21  C   UNL     1       0.630  -3.199   0.866  0.00  0.00    -0.008 C 
ATOM     22  C   UNL     1       1.496  -3.837   1.955  0.00  0.00    +0.026 C 
ATOM     23  C   UNL     1       2.194  -5.074   1.386  0.00  0.00    +0.115 C 
ATOM     24  N   UNL     1       1.185  -6.032   0.914  0.00  0.00    -0.191 NA
ATOM     25  C   UNL     1       0.371  -5.458  -0.165  0.00  0.00    +0.115 C 
ATOM     26  C   UNL     1      -0.380  -4.232   0.358  0.00  0.00    +0.026 C 
BRANCH  21  27
ATOM     27  C   UNL     1      -0.117  -1.996   1.444  0.00  0.00    -0.003 C 
ATOM     28  C   UNL     1       0.875  -1.073   2.156  0.00  0.00    +0.004 C 
ATOM     29  C   UNL     1       0.128   0.130   2.734  0.00  0.00    +0.000 C 
ATOM     30  C   UNL     1      -0.925  -0.355   3.733  0.00  0.00    +0.000 C 
ATOM     31  C   UNL     1      -1.917  -1.277   3.022  0.00  0.00    +0.000 C 
ATOM     32  C   UNL     1      -1.170  -2.481   2.443  0.00  0.00    +0.004 C 
ENDBRANCH  21  27
BRANCH  24  33
ATOM     33  O   UNL     1       1.810  -7.285   0.490  0.00  0.00    -0.312 OA
ATOM     34  H   UNL     1       1.184  -7.949   0.171  0.00  0.00    +0.237 HD
ENDBRANCH  24  33
ENDBRANCH  20  21
ENDBRANCH   6  20
TORSDOF 8
