REMARK  Name = ZINC09316724
REMARK  10 active torsions:
REMARK  status: ('A' for Active; 'I' for Inactive)
REMARK    1  A    between atoms: C_1  and  C_2
REMARK    2  A    between atoms: C_2  and  C_3
REMARK    3  A    between atoms: C_2  and  C_4
REMARK    4  A    between atoms: C_4  and  N_5
REMARK    5  A    between atoms: N_5  and  C_6
REMARK    6  A    between atoms: C_14  and  C_16
REMARK    7  A    between atoms: C_16  and  O_17
REMARK    8  A    between atoms: O_17  and  C_18
REMARK    9  A    between atoms: C_18  and  C_20
REMARK   10  A    between atoms: N_22  and  C_27
REMARK                            x       y       z     vdW  Elec       q    Type
REMARK                         _______ _______ _______ _____ _____    ______ ____
ROOT
ATOM      1  O   UNL     1      -0.697   0.142  -2.530  0.00  0.00    -0.451 OA
ENDROOT
BRANCH   1   2
ATOM      2  C   UNL     1      -0.484   1.474  -2.533  0.00  0.00    +0.356 C 
ATOM      3  O   UNL     1      -1.428   2.240  -2.542  0.00  0.00    -0.244 OA
BRANCH   2   4
ATOM      4  C   UNL     1       0.884   1.997  -2.531  0.00  0.00    +0.144 C 
ATOM      5  N   UNL     1       1.886   1.171  -2.522  0.00  0.00    -0.170 NA
ATOM      6  N   UNL     1       3.205   1.634  -2.523  0.00  0.00    -0.160 N 
ATOM      7  C   UNL     1       3.484   2.897  -2.142  0.00  0.00    +0.240 C 
ATOM      8  O   UNL     1       4.630   3.291  -2.137  0.00  0.00    -0.273 OA
ATOM      9  C   UNL     1       2.365   3.816  -1.723  0.00  0.00    +0.104 C 
ATOM     10  C   UNL     1       1.111   3.486  -2.535  0.00  0.00    +0.074 C 
BRANCH   6  11
ATOM     11  C   UNL     1       4.243   0.782  -2.918  0.00  0.00    +0.060 A 
ATOM     12  C   UNL     1       5.187   1.214  -3.840  0.00  0.00    +0.025 A 
ATOM     13  C   UNL     1       6.213   0.373  -4.223  0.00  0.00    +0.002 A 
ATOM     14  C   UNL     1       6.295  -0.903  -3.697  0.00  0.00    +0.000 A 
ATOM     15  C   UNL     1       5.354  -1.339  -2.782  0.00  0.00    +0.002 A 
ATOM     16  C   UNL     1       4.328  -0.501  -2.391  0.00  0.00    +0.025 A 
ENDBRANCH   6  11
ENDBRANCH   2   4
ENDBRANCH   1   2
BRANCH   1  17
ATOM     17  C   UNL     1      -2.079  -0.305  -2.531  0.00  0.00    +0.328 C 
BRANCH  17  19
ATOM     18  N   UNL     1      -3.305  -2.453  -2.528  0.00  0.00    -0.294 N 
ATOM     19  C   UNL     1      -2.120  -1.811  -2.527  0.00  0.00    +0.254 C 
ATOM     20  O   UNL     1      -1.086  -2.446  -2.524  0.00  0.00    -0.272 OA
BRANCH  18  21
ATOM     21  C   UNL     1      -3.345  -3.917  -2.525  0.00  0.00    +0.099 C 
ATOM     22  C   UNL     1      -2.524  -4.453  -3.710  0.00  0.00    +0.046 C 
ATOM     23  C   UNL     1      -2.321  -5.982  -3.506  0.00  0.00    +0.168 C 
ATOM     24  S   UNL     1      -1.990  -6.040  -1.694  0.00  0.00    -0.029 S 
ATOM     25  O   UNL     1      -0.587  -5.968  -1.478  0.00  0.00    -0.174 OA
ATOM     26  O   UNL     1      -2.732  -7.108  -1.123  0.00  0.00    -0.174 OA
ATOM     27  C   UNL     1      -2.755  -4.444  -1.194  0.00  0.00    +0.188 C 
ENDBRANCH  18  21
BRANCH  18  28
ATOM     28  C   UNL     1      -4.553  -1.686  -2.533  0.00  0.00    +0.111 C 
BRANCH  28  30
ATOM     29  C   UNL     1      -5.260  -2.562  -4.764  0.00  0.00    +0.009 C 
ATOM     30  C   UNL     1      -4.910  -1.302  -3.970  0.00  0.00    +0.000 C 
ATOM     31  C   UNL     1      -6.112  -0.355  -3.961  0.00  0.00    +0.009 C 
ENDBRANCH  28  30
ENDBRANCH  18  28
ENDBRANCH  17  19
ENDBRANCH   1  17
TORSDOF 8
