REMARK  Name = ZINC05222284
REMARK  7 active torsions:
REMARK  status: ('A' for Active; 'I' for Inactive)
REMARK    1  A    between atoms: C_1  and  C_2
REMARK    2  A    between atoms: C_4  and  C_30
REMARK    3  A    between atoms: C_5  and  S_9
REMARK    4  A    between atoms: C_6  and  C_8
REMARK    5  A    between atoms: S_9  and  N_12
REMARK    6  A    between atoms: N_12  and  C_13
REMARK    7  A    between atoms: N_18  and  C_20
REMARK                            x       y       z     vdW  Elec       q    Type
REMARK                         _______ _______ _______ _____ _____    ______ ____
ROOT
ATOM      1  C   UNL     1      -3.871   8.706  -1.869  0.00  0.00    +0.103 C 
ATOM      2  C   UNL     1      -3.249   9.052  -0.496  0.00  0.00    +0.118 C 
ATOM      3  C   UNL     1      -3.124   7.716   0.203  0.00  0.00    +0.221 C 
ATOM      4  O   UNL     1      -2.946   7.568   1.393  0.00  0.00    -0.275 OA
ATOM      5  N   UNL     1      -3.240   6.716  -0.688  0.00  0.00    -0.270 N 
ATOM      6  C   UNL     1      -3.433   7.233  -2.048  0.00  0.00    +0.134 C 
ENDROOT
BRANCH   5   7
ATOM      7  C   UNL     1      -3.179   5.355  -0.362  0.00  0.00    +0.040 A 
ATOM      8  C   UNL     1      -3.428   4.395  -1.333  0.00  0.00    +0.027 A 
ATOM      9  C   UNL     1      -3.368   3.053  -1.012  0.00  0.00    +0.051 A 
ATOM     10  C   UNL     1      -3.059   2.660   0.282  0.00  0.00    +0.162 A 
ATOM     11  C   UNL     1      -2.806   3.618   1.257  0.00  0.00    +0.164 A 
ATOM     12  C   UNL     1      -2.868   4.965   0.933  0.00  0.00    +0.073 A 
ATOM     13  O   UNL     1      -2.494   3.252   2.530  0.00  0.00    -0.485 OA
ATOM     14  C   UNL     1      -2.807   1.907   2.908  0.00  0.00    +0.270 C 
ATOM     15  C   UNL     1      -2.330   0.970   1.790  0.00  0.00    +0.270 C 
ATOM     16  O   UNL     1      -3.008   1.332   0.582  0.00  0.00    -0.485 OA
ENDBRANCH   5   7
BRANCH   1  17
ATOM     17  N   UNL     1      -5.330   8.823  -1.828  0.00  0.00    -0.185 NA
ATOM     18  H   UNL     1      -5.868   8.084  -1.504  0.00  0.00    +0.148 HD
BRANCH  17  19
ATOM     19  S   UNL     1      -6.063  10.219  -2.336  0.00  0.00    +0.059 S 
ATOM     20  O   UNL     1      -7.464   9.986  -2.281  0.00  0.00    -0.153 OA
ATOM     21  O   UNL     1      -5.440  11.284  -1.631  0.00  0.00    -0.153 OA
BRANCH  19  26
ATOM     22  C   UNL     1      -4.662  10.953  -8.158  0.00  0.00    +0.044 C 
ATOM     23  C   UNL     1      -5.012  10.770  -6.704  0.00  0.00    -0.050 A 
ATOM     24  C   UNL     1      -6.014   9.890  -6.340  0.00  0.00    +0.008 A 
ATOM     25  C   UNL     1      -6.335   9.722  -5.006  0.00  0.00    -0.024 A 
ATOM     26  C   UNL     1      -5.654  10.434  -4.036  0.00  0.00    +0.111 A 
ATOM     27  C   UNL     1      -4.656  11.318  -4.401  0.00  0.00    -0.024 A 
ATOM     28  C   UNL     1      -4.332  11.483  -5.734  0.00  0.00    +0.008 A 
ATOM     29  C   UNL     1      -3.918  12.098  -3.344  0.00  0.00    +0.046 C 
ATOM     30  C   UNL     1      -7.427   8.762  -4.609  0.00  0.00    +0.046 C 
ENDBRANCH  19  26
ENDBRANCH  17  19
ENDBRANCH   1  17
TORSDOF 4
