REMARK  Name = ZINC39143290
REMARK  8 active torsions:
REMARK  status: ('A' for Active; 'I' for Inactive)
REMARK    1  A    between atoms: C_1  and  C_2
REMARK    2  A    between atoms: C_5  and  N_9
REMARK    3  A    between atoms: C_6  and  C_8
REMARK    4  A    between atoms: C_10  and  N_34
REMARK    5  A    between atoms: C_12  and  C_28
REMARK    6  A    between atoms: C_14  and  C_17
REMARK    7  A    between atoms: C_17  and  S_18
REMARK    8  A    between atoms: S_18  and  C_19
REMARK                            x       y       z     vdW  Elec       q    Type
REMARK                         _______ _______ _______ _____ _____    ______ ____
ROOT
ATOM      1  N   UNL     1      -0.165  -4.555   0.024  0.00  0.00    -0.280 N 
ATOM      2  C   UNL     1      -1.074  -5.224  -0.921  0.00  0.00    +0.040 C 
ATOM      3  C   UNL     1      -0.702  -6.725  -0.858  0.00  0.00    +0.042 C 
ATOM      4  C   UNL     1       0.039  -6.794   0.504  0.00  0.00    +0.090 C 
ATOM      5  N   UNL     1       0.714  -5.468   0.549  0.00  0.00    -0.237 NA
ATOM      6  H   UNL     1       1.577  -5.481   0.026  0.00  0.00    +0.145 HD
ENDROOT
BRANCH   1  11
ATOM      7  C   UNL     1      -0.263   0.973   1.284  0.00  0.00    +0.044 C 
ATOM      8  C   UNL     1      -0.237  -0.496   0.949  0.00  0.00    -0.050 A 
ATOM      9  C   UNL     1      -0.128  -0.902  -0.369  0.00  0.00    +0.005 A 
ATOM     10  C   UNL     1      -0.104  -2.247  -0.679  0.00  0.00    +0.025 A 
ATOM     11  C   UNL     1      -0.189  -3.194   0.334  0.00  0.00    +0.045 A 
ATOM     12  C   UNL     1      -0.297  -2.783   1.656  0.00  0.00    -0.028 A 
ATOM     13  C   UNL     1      -0.315  -1.436   1.960  0.00  0.00    +0.008 A 
ATOM     14  C   UNL     1      -0.390  -3.806   2.759  0.00  0.00    +0.046 C 
ENDBRANCH   1  11
BRANCH   3  15
ATOM     15  C   UNL     1      -1.936  -7.589  -0.849  0.00  0.00    -0.043 A 
ATOM     16  C   UNL     1      -2.087  -8.588  -1.793  0.00  0.00    +0.004 A 
ATOM     17  C   UNL     1      -3.220  -9.381  -1.785  0.00  0.00    +0.000 A 
ATOM     18  C   UNL     1      -4.201  -9.176  -0.833  0.00  0.00    +0.000 A 
ATOM     19  C   UNL     1      -4.049  -8.177   0.112  0.00  0.00    +0.000 A 
ATOM     20  C   UNL     1      -2.915  -7.387   0.106  0.00  0.00    +0.004 A 
ENDBRANCH   3  15
BRANCH   2  21
ATOM     21  N   UNL     1      -2.470  -5.026  -0.508  0.00  0.00    +0.392 N 
ATOM     22  H   UNL     1      -2.751  -4.079  -0.714  0.00  0.00    -0.087 HD
ATOM     23  H   UNL     1      -3.064  -5.669  -1.011  0.00  0.00    -0.087 HD
ATOM     24  H   UNL     1      -2.555  -5.195   0.483  0.00  0.00    -0.087 HD
ENDBRANCH   2  21
BRANCH   4  25
ATOM     25  C   UNL     1      -0.952  -6.949   1.660  0.00  0.00    +0.098 C 
BRANCH  25  26
ATOM     26  S   UNL     1      -0.042  -7.077   3.224  0.00  0.00    -0.086 S 
BRANCH  26  27
ATOM     27  C   UNL     1      -1.306  -7.248   4.439  0.00  0.00    +0.167 A 
ATOM     28  N   UNL     1      -2.592  -7.270   4.190  0.00  0.00    -0.222 NA
ATOM     29  C   UNL     1      -3.280  -7.415   5.353  0.00  0.00    +0.090 A 
ATOM     30  C   UNL     1      -4.640  -7.497   5.660  0.00  0.00    +0.030 A 
ATOM     31  C   UNL     1      -5.038  -7.647   6.970  0.00  0.00    +0.002 A 
ATOM     32  C   UNL     1      -4.099  -7.717   7.987  0.00  0.00    +0.002 A 
ATOM     33  C   UNL     1      -2.751  -7.638   7.701  0.00  0.00    +0.028 A 
ATOM     34  C   UNL     1      -2.332  -7.487   6.388  0.00  0.00    +0.067 A 
ATOM     35  N   UNL     1      -1.091  -7.385   5.782  0.00  0.00    -0.333 N 
ATOM     36  H   UNL     1      -0.230  -7.403   6.228  0.00  0.00    +0.168 HD
ENDBRANCH  26  27
ENDBRANCH  25  26
ENDBRANCH   4  25
TORSDOF 6
