REMARK  Name = ZINC36692996
REMARK  4 active torsions:
REMARK  status: ('A' for Active; 'I' for Inactive)
REMARK    1  A    between atoms: C_1  and  C_2
REMARK    2  A    between atoms: N_11  and  C_15
REMARK    3  A    between atoms: C_15  and  C_16
REMARK    4  A    between atoms: C_22  and  C_24
REMARK                            x       y       z     vdW  Elec       q    Type
REMARK                         _______ _______ _______ _____ _____    ______ ____
ROOT
ATOM      1  C   UNL     1       3.277   2.951   2.373  0.00  0.00    +0.237 C 
ATOM      2  O   UNL     1       2.353   3.293   1.666  0.00  0.00    -0.274 OA
ATOM      3  N   UNL     1       4.255   3.827   2.674  0.00  0.00    -0.262 N 
ATOM      4  C   UNL     1       4.205   5.124   2.174  0.00  0.00    +0.188 A 
ATOM      5  N   UNL     1       3.293   5.684   1.404  0.00  0.00    -0.126 NA
ATOM      6  N   UNL     1       3.384   6.886   1.026  0.00  0.00    -0.144 NA
ATOM      7  C   UNL     1       4.420   7.603   1.413  0.00  0.00    +0.110 A 
ATOM      8  S   UNL     1       5.291   6.394   2.401  0.00  0.00    -0.035 S 
ATOM      9  H   UNL     1       4.995   3.554   3.240  0.00  0.00    +0.157 HD
ENDROOT
BRANCH   7  10
ATOM     10  C   UNL     1       4.770   9.037   1.112  0.00  0.00    +0.022 C 
ATOM     11  C   UNL     1       4.920   9.220  -0.399  0.00  0.00    +0.017 C 
ATOM     12  C   UNL     1       5.274  10.677  -0.705  0.00  0.00    -0.010 C 
ATOM     13  C   UNL     1       4.161  11.591  -0.189  0.00  0.00    +0.007 C 
ATOM     14  C   UNL     1       4.011  11.409   1.323  0.00  0.00    -0.010 C 
ATOM     15  C   UNL     1       3.657   9.952   1.628  0.00  0.00    +0.017 C 
ATOM     16  C   UNL     1       5.329  11.769   2.013  0.00  0.00    +0.007 C 
ATOM     17  C   UNL     1       6.441  10.854   1.497  0.00  0.00    -0.010 C 
ATOM     18  C   UNL     1       6.591  11.036  -0.015  0.00  0.00    +0.007 C 
ATOM     19  C   UNL     1       6.087   9.397   1.803  0.00  0.00    +0.017 C 
ENDBRANCH   7  10
BRANCH   1  20
ATOM     20  C   UNL     1       3.332   1.546   2.915  0.00  0.00    +0.214 C 
BRANCH  20  30
ATOM     21  C   UNL     1      -0.019   1.526   0.010  0.00  0.00    +0.010 C 
ATOM     22  C   UNL     1       0.002  -0.004   0.002  0.00  0.00    +0.018 C 
ATOM     23  C   UNL     1       0.718  -0.497  -1.258  0.00  0.00    +0.006 C 
ATOM     24  C   UNL     1       0.756  -2.027  -1.256  0.00  0.00    +0.000 C 
ATOM     25  C   UNL     1       1.519  -2.517  -0.023  0.00  0.00    +0.003 C 
ATOM     26  C   UNL     1       0.807  -2.032   1.242  0.00  0.00    +0.035 C 
ATOM     27  C   UNL     1       0.739  -0.509   1.238  0.00  0.00    +0.115 C 
ATOM     28  C   UNL     1       2.128   0.083   1.303  0.00  0.00    +0.247 C 
ATOM     29  O   UNL     1       3.022  -0.055   0.496  0.00  0.00    -0.273 OA
ATOM     30  N   UNL     1       2.163   0.796   2.447  0.00  0.00    -0.215 N 
ATOM     31  C   UNL     1       0.998   0.734   3.103  0.00  0.00    +0.310 C 
ATOM     32  O   UNL     1       0.786   1.296   4.159  0.00  0.00    -0.252 OA
ATOM     33  N   UNL     1       0.086  -0.021   2.460  0.00  0.00    -0.285 N 
ATOM     34  H   UNL     1      -0.822  -0.205   2.747  0.00  0.00    +0.151 HD
ENDBRANCH  20  30
ENDBRANCH   1  20
TORSDOF 3
