REMARK  Name = ZINC39693303
REMARK  9 active torsions:
REMARK  status: ('A' for Active; 'I' for Inactive)
REMARK    1  A    between atoms: C_1  and  C_2
REMARK    2  A    between atoms: C_6  and  C_10
REMARK    3  A    between atoms: C_10  and  S_11
REMARK    4  A    between atoms: S_11  and  C_12
REMARK    5  A    between atoms: C_15  and  C_23
REMARK    6  A    between atoms: N_16  and  C_17
REMARK    7  A    between atoms: C_17  and  C_18
REMARK    8  A    between atoms: C_23  and  C_24
REMARK    9  A    between atoms: C_31  and  C_33
REMARK                            x       y       z     vdW  Elec       q    Type
REMARK                         _______ _______ _______ _____ _____    ______ ____
ROOT
ATOM      1  C   UNL     1       0.007  -3.416  -7.380  0.00  0.00    +0.192 A 
ATOM      2  N   UNL     1       0.020  -4.722  -7.248  0.00  0.00    -0.122 NA
ATOM      3  N   UNL     1       0.023  -5.278  -8.407  0.00  0.00    -0.133 NA
ATOM      4  C   UNL     1       0.012  -4.368  -9.339  0.00  0.00    +0.139 A 
ATOM      5  N   UNL     1      -0.004  -3.149  -8.719  0.00  0.00    -0.298 N 
ENDROOT
BRANCH   1   6
ATOM      6  S   UNL     1      -0.001  -2.231  -6.076  0.00  0.00    -0.078 S 
BRANCH   6   7
ATOM      7  C   UNL     1       0.021  -3.239  -4.567  0.00  0.00    +0.151 C 
BRANCH   7  13
ATOM      8  C   UNL     1      -0.018   1.503   0.010  0.00  0.00    +0.041 C 
ATOM      9  C   UNL     1       0.002  -0.004   0.002  0.00  0.00    -0.034 C 
ATOM     10  C   UNL     1       0.006  -0.691  -1.150  0.00  0.00    +0.071 C 
ATOM     11  C   UNL     1       0.026  -2.167  -1.069  0.00  0.00    +0.112 C 
ATOM     12  N   UNL     1       0.030  -2.895  -2.160  0.00  0.00    -0.227 NA
ATOM     13  C   UNL     1       0.016  -2.337  -3.360  0.00  0.00    +0.134 C 
ATOM     14  N   UNL     1      -0.003  -1.040  -3.554  0.00  0.00    -0.160 NA
ATOM     15  C   UNL     1      -0.008  -0.158  -2.549  0.00  0.00    +0.271 C 
ATOM     16  O   UNL     1      -0.026   1.042  -2.765  0.00  0.00    -0.268 OA
ATOM     17  S   UNL     1       0.040  -2.523   0.670  0.00  0.00    -0.086 S 
ATOM     18  C   UNL     1       0.025  -0.793   1.292  0.00  0.00    +0.192 C 
BRANCH  18  19
ATOM     19  C   UNL     1      -1.212  -0.525   2.110  0.00  0.00    +0.373 C 
ATOM     20  O   UNL     1      -2.171  -1.273   2.026  0.00  0.00    -0.245 OA
ATOM     21  O   UNL     1      -1.254   0.439   2.855  0.00  0.00    -0.245 OA
ENDBRANCH  18  19
ENDBRANCH   7  13
ENDBRANCH   6   7
ENDBRANCH   1   6
BRANCH   5  22
ATOM     22  C   UNL     1      -0.025  -1.831  -9.358  0.00  0.00    +0.199 C 
BRANCH  22  23
ATOM     23  C   UNL     1       1.388  -1.360  -9.586  0.00  0.00    +0.125 A 
ATOM     24  C   UNL     1       2.124  -1.586 -10.689  0.00  0.00    +0.046 A 
ATOM     25  C   UNL     1       3.379  -0.970 -10.477  0.00  0.00    +0.041 A 
ATOM     26  C   UNL     1       3.334  -0.405  -9.258  0.00  0.00    +0.195 A 
ATOM     27  O   UNL     1       2.124  -0.639  -8.725  0.00  0.00    -0.466 OA
ENDBRANCH  22  23
ENDBRANCH   5  22
BRANCH   4  28
ATOM     28  C   UNL     1       0.011  -4.613 -10.826  0.00  0.00    +0.111 C 
BRANCH  28  29
ATOM     29  C   UNL     1      -1.410  -4.707 -11.319  0.00  0.00    -0.040 A 
ATOM     30  C   UNL     1      -2.052  -5.931 -11.345  0.00  0.00    +0.004 A 
ATOM     31  C   UNL     1      -3.356  -6.018 -11.797  0.00  0.00    +0.000 A 
ATOM     32  C   UNL     1      -4.017  -4.881 -12.223  0.00  0.00    +0.000 A 
ATOM     33  C   UNL     1      -3.374  -3.657 -12.196  0.00  0.00    +0.000 A 
ATOM     34  C   UNL     1      -2.072  -3.570 -11.740  0.00  0.00    +0.004 A 
ENDBRANCH  28  29
ENDBRANCH   4  28
TORSDOF 8
