REMARK  Name = ZINC39388354
REMARK  10 active torsions:
REMARK  status: ('A' for Active; 'I' for Inactive)
REMARK    1  A    between atoms: C_1  and  C_2
REMARK    2  A    between atoms: C_3  and  C_16
REMARK    3  A    between atoms: C_5  and  C_7
REMARK    4  A    between atoms: C_10  and  O_14
REMARK    5  A    between atoms: O_14  and  C_15
REMARK    6  A    between atoms: C_16  and  N_17
REMARK    7  A    between atoms: N_17  and  C_18
REMARK    8  A    between atoms: N_17  and  C_25
REMARK    9  A    between atoms: C_18  and  C_19
REMARK   10  A    between atoms: C_25  and  C_26
REMARK                            x       y       z     vdW  Elec       q    Type
REMARK                         _______ _______ _______ _____ _____    ______ ____
ROOT
ATOM      1  C   UNL     1      -0.324   1.679  -0.028  0.00  0.00    +0.088 C 
ATOM      2  C   UNL     1      -0.116   0.206  -0.270  0.00  0.00    +0.124 A 
ATOM      3  C   UNL     1      -1.077  -0.731  -0.358  0.00  0.00    +0.066 A 
ATOM      4  N   UNL     1      -0.480  -1.913  -0.578  0.00  0.00    -0.216 NA
ATOM      5  C   UNL     1       0.819  -1.724  -0.626  0.00  0.00    +0.230 A 
ATOM      6  O   UNL     1       1.068  -0.416  -0.443  0.00  0.00    -0.440 OA
ENDROOT
BRANCH   5   7
ATOM      7  C   UNL     1       1.835  -2.773  -0.850  0.00  0.00    +0.072 A 
ATOM      8  C   UNL     1       1.442  -4.100  -1.038  0.00  0.00    +0.019 A 
ATOM      9  C   UNL     1       2.393  -5.075  -1.246  0.00  0.00    +0.046 A 
ATOM     10  C   UNL     1       3.742  -4.741  -1.269  0.00  0.00    +0.123 A 
ATOM     11  C   UNL     1       4.138  -3.424  -1.082  0.00  0.00    +0.084 A 
ATOM     12  C   UNL     1       3.192  -2.439  -0.879  0.00  0.00    +0.139 A 
ATOM     13  F   UNL     1       3.578  -1.156  -0.703  0.00  0.00    -0.205 F 
BRANCH  10  14
ATOM     14  O   UNL     1       4.675  -5.707  -1.475  0.00  0.00    -0.495 OA
ATOM     15  C   UNL     1       6.043  -5.295  -1.486  0.00  0.00    +0.277 C 
ENDBRANCH  10  14
ENDBRANCH   5   7
BRANCH   3  16
ATOM     16  C   UNL     1      -2.560  -0.495  -0.232  0.00  0.00    -0.019 C 
BRANCH  16  17
ATOM     17  N   UNL     1      -3.124  -0.206  -1.558  0.00  0.00    +0.385 N 
ATOM     18  H   UNL     1      -2.627   0.569  -1.972  0.00  0.00    -0.081 HD
BRANCH  17  19
ATOM     19  C   UNL     1      -4.545   0.141  -1.420  0.00  0.00    -0.046 C 
BRANCH  19  20
ATOM     20  C   UNL     1      -4.676   1.458  -0.652  0.00  0.00    +0.102 C 
ATOM     21  C   UNL     1      -6.168   1.821  -0.487  0.00  0.00    +0.032 C 
ATOM     22  C   UNL     1      -6.157   3.360  -0.695  0.00  0.00    +0.030 C 
ATOM     23  C   UNL     1      -5.027   3.507  -1.746  0.00  0.00    +0.160 C 
ATOM     24  O   UNL     1      -4.050   2.514  -1.388  0.00  0.00    -0.378 OA
ENDBRANCH  19  20
ENDBRANCH  17  19
BRANCH  17  25
ATOM     25  C   UNL     1      -2.989  -1.390  -2.416  0.00  0.00    -0.075 C 
BRANCH  25  26
ATOM     26  C   UNL     1      -3.441  -1.044  -3.837  0.00  0.00    -0.028 C 
ATOM     27  C   UNL     1      -4.683  -1.756  -4.376  0.00  0.00    +0.002 C 
ATOM     28  C   UNL     1      -3.297  -2.127  -4.907  0.00  0.00    +0.002 C 
ENDBRANCH  25  26
ENDBRANCH  17  25
ENDBRANCH  16  17
ENDBRANCH   3  16
TORSDOF 8
