REMARK  Name = ZINC21601431
REMARK  7 active torsions:
REMARK  status: ('A' for Active; 'I' for Inactive)
REMARK    1  A    between atoms: C_1  and  C_2
REMARK    2  A    between atoms: C_2  and  C_3
REMARK    3  A    between atoms: C_2  and  O_4
REMARK    4  A    between atoms: O_4  and  C_5
REMARK    5  A    between atoms: C_5  and  C_7
REMARK    6  A    between atoms: C_8  and  N_19
REMARK    7  A    between atoms: C_11  and  C_17
REMARK                            x       y       z     vdW  Elec       q    Type
REMARK                         _______ _______ _______ _____ _____    ______ ____
ROOT
ATOM      1  C   UNL     1      -0.350   4.003   0.026  0.00  0.00    +0.119 A 
ATOM      2  C   UNL     1       0.947   3.536   0.012  0.00  0.00    +0.055 A 
ATOM      3  C   UNL     1       1.163   2.097   0.002  0.00  0.00    +0.030 A 
ATOM      4  C   UNL     1       2.390   1.393  -0.014  0.00  0.00    +0.034 A 
ATOM      5  C   UNL     1       2.370   0.005  -0.021  0.00  0.00    +0.092 A 
ATOM      6  C   UNL     1       1.138  -0.682  -0.013  0.00  0.00    +0.135 A 
ATOM      7  N   UNL     1       0.002  -0.004   0.002  0.00  0.00    -0.224 NA
ATOM      8  C   UNL     1      -0.016   1.313   0.009  0.00  0.00    +0.113 A 
ATOM      9  S   UNL     1      -1.326   2.512   0.021  0.00  0.00    -0.060 S 
ATOM     10  N   UNL     1       1.117  -2.064  -0.020  0.00  0.00    -0.342 N 
ATOM     11  H   UNL     1       0.157  -2.600  -0.013  0.00  0.00    +0.144 HD
ATOM     12  H   UNL     1       2.062  -2.628  -0.032  0.00  0.00    +0.144 HD
ENDROOT
BRANCH   2  13
ATOM     13  N   UNL     1       2.019   4.415   0.006  0.00  0.00    -0.356 N 
ATOM     14  H   UNL     1       3.048   4.028  -0.006  0.00  0.00    +0.142 HD
ATOM     15  H   UNL     1       1.840   5.501   0.012  0.00  0.00    +0.142 HD
ENDBRANCH   2  13
BRANCH   1  16
ATOM     16  C   UNL     1      -0.799   5.343   0.037  0.00  0.00    +0.348 C 
ATOM     17  O   UNL     1       0.008   6.255   0.035  0.00  0.00    -0.244 OA
BRANCH  16  18
ATOM     18  O   UNL     1      -2.122   5.612   0.051  0.00  0.00    -0.458 OA
BRANCH  18  20
ATOM     19  C   UNL     1      -2.653   7.489  -1.376  0.00  0.00    +0.052 C 
ATOM     20  C   UNL     1      -2.503   6.989   0.062  0.00  0.00    +0.171 C 
ATOM     21  C   UNL     1      -3.837   7.143   0.796  0.00  0.00    +0.052 C 
ENDBRANCH  18  20
ENDBRANCH  16  18
ENDBRANCH   1  16
BRANCH   5  22
ATOM     22  C   UNL     1       3.600  -0.729  -0.037  0.00  0.00    +0.103 C 
ATOM     23  N   UNL     1       4.575  -1.311  -0.049  0.00  0.00    -0.191 NA
ENDBRANCH   5  22
TORSDOF 5
