REMARK  Name = ZINC37054185
REMARK  4 active torsions:
REMARK  status: ('A' for Active; 'I' for Inactive)
REMARK    1  A    between atoms: C_5  and  S_8
REMARK    2  A    between atoms: C_6  and  N_7
REMARK    3  A    between atoms: S_8  and  N_11
REMARK    4  A    between atoms: N_11  and  C_12
REMARK                            x       y       z     vdW  Elec       q    Type
REMARK                         _______ _______ _______ _____ _____    ______ ____
ROOT
ATOM      1  S   UNL     1       1.105  -2.362  -0.705  0.00  0.00    +0.062 S 
ATOM      2  O   UNL     1      -0.242  -2.662  -1.045  0.00  0.00    -0.153 OA
ATOM      3  O   UNL     1       2.188  -2.608  -1.591  0.00  0.00    -0.153 OA
ENDROOT
BRANCH   1   8
ATOM      4  C   UNL     1       0.039   1.365   0.393  0.00  0.00    +0.044 A 
ATOM      5  C   UNL     1       1.233   2.056   0.301  0.00  0.00    +0.044 A 
ATOM      6  C   UNL     1       2.385   1.400  -0.096  0.00  0.00    +0.042 A 
ATOM      7  C   UNL     1       2.345   0.051  -0.403  0.00  0.00    +0.070 A 
ATOM      8  C   UNL     1       1.154  -0.645  -0.313  0.00  0.00    +0.144 A 
ATOM      9  C   UNL     1      -0.003   0.011   0.086  0.00  0.00    +0.054 A 
ATOM     10 CL   UNL     1       3.793  -0.768  -0.901  0.00  0.00    -0.081 Cl
ATOM     11 CL   UNL     1       1.287   3.748   0.684  0.00  0.00    -0.083 Cl
BRANCH   9  12
ATOM     12  N   UNL     1      -1.208  -0.690   0.178  0.00  0.00    -0.356 N 
ATOM     13  H   UNL     1      -2.051  -0.209   0.164  0.00  0.00    +0.142 HD
ATOM     14  H   UNL     1      -1.202  -1.657   0.256  0.00  0.00    +0.142 HD
ENDBRANCH   9  12
ENDBRANCH   1   8
BRANCH   1  15
ATOM     15  N   UNL     1       1.437  -3.192   0.690  0.00  0.00    -0.187 NA
ATOM     16  H   UNL     1       2.244  -3.725   0.756  0.00  0.00    +0.148 HD
BRANCH  15  17
ATOM     17  C   UNL     1       0.511  -3.120   1.823  0.00  0.00    +0.077 C 
ATOM     18  C   UNL     1       0.950  -1.971   2.754  0.00  0.00    +0.020 C 
ATOM     19  C   UNL     1      -0.227  -1.565   3.599  0.00  0.00    +0.002 C 
ATOM     20  C   UNL     1      -0.248  -2.280   4.963  0.00  0.00    +0.000 C 
ATOM     21  C   UNL     1       0.124  -3.772   4.862  0.00  0.00    +0.000 C 
ATOM     22  C   UNL     1      -0.507  -4.443   3.672  0.00  0.00    +0.002 C 
ATOM     23  C   UNL     1       0.495  -4.408   2.500  0.00  0.00    +0.020 C 
ENDBRANCH  15  17
ENDBRANCH   1  15
TORSDOF 4
