REMARK  Name = ZINC38102719
REMARK  2 active torsions:
REMARK  status: ('A' for Active; 'I' for Inactive)
REMARK    1  A    between atoms: C_3  and  C_6
REMARK    2  A    between atoms: C_12  and  C_14
REMARK                            x       y       z     vdW  Elec       q    Type
REMARK                         _______ _______ _______ _____ _____    ______ ____
ROOT
ATOM      1  C   UNL     1       3.761   1.845  -0.024  0.00  0.00    +0.113 C 
ATOM      2  C   UNL     1       4.329   1.786  -1.458  0.00  0.00    +0.029 C 
ATOM      3  C   UNL     1       5.799   1.345  -1.231  0.00  0.00    +0.021 C 
ATOM      4  C   UNL     1       5.652   0.380  -0.028  0.00  0.00    +0.109 C 
ATOM      5  N   UNL     1       4.607   0.989   0.820  0.00  0.00    -0.289 N 
ATOM      6  C   UNL     1       4.452   0.793   2.144  0.00  0.00    +0.267 C 
ATOM      7  O   UNL     1       3.551   1.350   2.740  0.00  0.00    -0.268 OA
ENDROOT
BRANCH   6   8
ATOM      8  C   UNL     1       5.381  -0.100   2.874  0.00  0.00    +0.148 A 
ATOM      9  C   UNL     1       5.220  -0.310   4.247  0.00  0.00    +0.038 A 
ATOM     10  C   UNL     1       6.117  -1.156   4.884  0.00  0.00    +0.044 A 
ATOM     11  C   UNL     1       7.116  -1.742   4.120  0.00  0.00    +0.152 A 
ATOM     12  N   UNL     1       7.195  -1.487   2.824  0.00  0.00    -0.137 NA
ATOM     13  N   UNL     1       6.367  -0.710   2.227  0.00  0.00    -0.143 NA
ATOM     14 CL   UNL     1       8.265  -2.808   4.866  0.00  0.00    -0.060 Cl
ENDBRANCH   6   8
BRANCH   1  17
ATOM     15  C   UNL     1      -0.016   1.351   0.009  0.00  0.00    +0.008 A 
ATOM     16  C   UNL     1       1.183   2.038   0.002  0.00  0.00    +0.013 A 
ATOM     17  C   UNL     1       2.343   1.336  -0.013  0.00  0.00    +0.010 A 
ATOM     18  S   UNL     1       1.754  -0.349  -0.017  0.00  0.00    -0.100 S 
ATOM     19  C   UNL     1       0.002  -0.004   0.002  0.00  0.00    +0.045 A 
ENDBRANCH   1  17
TORSDOF 2
