REMARK  Name = ZINC50906954
REMARK  5 active torsions:
REMARK  status: ('A' for Active; 'I' for Inactive)
REMARK    1  A    between atoms: C_1  and  C_2
REMARK    2  A    between atoms: C_2  and  C_3
REMARK    3  A    between atoms: C_3  and  C_4
REMARK    4  A    between atoms: C_13  and  C_15
REMARK    5  A    between atoms: C_15  and  C_17
REMARK                            x       y       z     vdW  Elec       q    Type
REMARK                         _______ _______ _______ _____ _____    ______ ____
ROOT
ATOM      1  C   UNL     1      -1.416  -2.058   0.012  0.00  0.00    -0.008 C 
ATOM      2  C   UNL     1      -0.784  -2.569   1.309  0.00  0.00    +0.022 C 
ATOM      3  C   UNL     1      -0.732  -4.100   1.278  0.00  0.00    +0.109 C 
ATOM      4  N   UNL     1      -2.085  -4.614   1.022  0.00  0.00    -0.285 N 
ATOM      5  C   UNL     1      -2.819  -4.119  -0.150  0.00  0.00    +0.109 C 
ATOM      6  C   UNL     1      -2.847  -2.588  -0.104  0.00  0.00    +0.022 C 
ATOM      7  C   UNL     1      -2.642  -5.523   1.847  0.00  0.00    +0.308 C 
ATOM      8  O   UNL     1      -1.992  -5.993   2.761  0.00  0.00    -0.252 OA
ATOM      9  N   UNL     1      -3.919  -5.910   1.660  0.00  0.00    -0.239 N 
ATOM     10  C   UNL     1      -4.509  -6.739   2.544  0.00  0.00    +0.238 C 
ATOM     11  O   UNL     1      -3.890  -7.136   3.508  0.00  0.00    -0.274 OA
ATOM     12  H   UNL     1      -4.414  -5.592   0.888  0.00  0.00    +0.159 HD
ENDROOT
BRANCH  10  13
ATOM     13  C   UNL     1      -5.937  -7.171   2.334  0.00  0.00    +0.163 C 
ATOM     14  C   UNL     1      -6.700  -7.069   3.656  0.00  0.00    +0.034 C 
ATOM     15 CL   UNL     1      -5.968  -8.878   1.753  0.00  0.00    -0.112 Cl
ENDBRANCH  10  13
BRANCH   1  16
ATOM     16  C   UNL     1      -1.438  -0.529   0.024  0.00  0.00    +0.003 C 
BRANCH  16  18
ATOM     17  C   UNL     1      -0.024   1.532   0.025  0.00  0.00    +0.004 C 
ATOM     18  C   UNL     1      -0.003   0.002   0.013  0.00  0.00    -0.003 C 
ENDBRANCH  16  18
ENDBRANCH   1  16
TORSDOF 3
