REMARK  Name = ZINC63820429
REMARK  9 active torsions:
REMARK  status: ('A' for Active; 'I' for Inactive)
REMARK    1  A    between atoms: C_1  and  C_2
REMARK    2  A    between atoms: C_3  and  C_9
REMARK    3  A    between atoms: C_4  and  C_8
REMARK    4  A    between atoms: C_9  and  C_10
REMARK    5  A    between atoms: C_10  and  C_11
REMARK    6  A    between atoms: N_13  and  C_14
REMARK    7  A    between atoms: C_14  and  C_15
REMARK    8  A    between atoms: C_15  and  C_17
REMARK    9  A    between atoms: C_15  and  C_24
REMARK                            x       y       z     vdW  Elec       q    Type
REMARK                         _______ _______ _______ _____ _____    ______ ____
ROOT
ATOM      1  C   UNL     1       4.003   1.184  -6.981  0.00  0.00    +0.066 C 
ENDROOT
BRANCH   1   2
ATOM      2  C   UNL     1       3.993   1.534  -8.447  0.00  0.00    -0.033 C 
ATOM      3  C   UNL     1       4.562   0.833  -9.454  0.00  0.00    -0.000 A 
ATOM      4  C   UNL     1       5.332  -0.416  -9.486  0.00  0.00    +0.010 A 
ATOM      5  C   UNL     1       5.781  -0.880 -10.674  0.00  0.00    +0.001 A 
ATOM      6  C   UNL     1       5.531  -0.199 -11.873  0.00  0.00    +0.002 A 
ATOM      7  C   UNL     1       4.832   0.954 -11.925  0.00  0.00    +0.026 A 
ATOM      8  C   UNL     1       4.311   1.533 -10.734  0.00  0.00    +0.043 A 
ATOM      9  N   UNL     1       3.615   2.624 -10.526  0.00  0.00    -0.380 N 
ATOM     10  C   UNL     1       3.339   2.736  -9.090  0.00  0.00    +0.145 C 
ATOM     11  H   UNL     1       3.326   3.250 -11.209  0.00  0.00    +0.160 HD
ENDBRANCH   1   2
BRANCH   1  12
ATOM     12  C   UNL     1       4.665   2.293  -6.204  0.00  0.00    -0.020 A 
ATOM     13  C   UNL     1       4.136   3.569  -6.234  0.00  0.00    +0.006 A 
ATOM     14  C   UNL     1       4.743   4.587  -5.522  0.00  0.00    +0.000 A 
ATOM     15  C   UNL     1       5.880   4.328  -4.779  0.00  0.00    +0.001 A 
ATOM     16  C   UNL     1       6.410   3.052  -4.749  0.00  0.00    +0.020 A 
ATOM     17  C   UNL     1       5.800   2.032  -5.457  0.00  0.00    +0.045 A 
ATOM     18 CL   UNL     1       6.462   0.428  -5.414  0.00  0.00    -0.083 Cl
ENDBRANCH   1  12
BRANCH   1  19
ATOM     19  C   UNL     1       2.566   1.005  -6.489  0.00  0.00    +0.116 C 
BRANCH  19  22
ATOM     20  C   UNL     1       1.418   0.322  -4.451  0.00  0.00    +0.213 C 
ATOM     21  O   UNL     1       0.362   0.496  -5.022  0.00  0.00    -0.276 OA
ATOM     22  N   UNL     1       2.579   0.548  -5.097  0.00  0.00    -0.314 N 
ATOM     23  H   UNL     1       3.424   0.409  -4.640  0.00  0.00    +0.149 HD
BRANCH  20  24
ATOM     24  C   UNL     1       1.432  -0.147  -3.019  0.00  0.00    +0.100 C 
BRANCH  24  25
ATOM     25  C   UNL     1      -0.006  -0.327  -2.527  0.00  0.00    +0.048 C 
BRANCH  25  28
ATOM     26  C   UNL     1      -0.018   1.503   0.010  0.00  0.00    +0.065 C 
ATOM     27  C   UNL     1       0.002  -0.004   0.002  0.00  0.00    +0.036 A 
ATOM     28  C   UNL     1       0.008  -0.796  -1.095  0.00  0.00    -0.004 A 
ATOM     29  C   UNL     1       0.028  -2.127  -0.666  0.00  0.00    +0.063 A 
ATOM     30  N   UNL     1       0.035  -2.134   0.643  0.00  0.00    -0.179 NA
ATOM     31  N   UNL     1       0.024  -0.805   1.088  0.00  0.00    -0.281 N 
ATOM     32  H   UNL     1       0.029  -0.513   2.013  0.00  0.00    +0.189 HD
ATOM     33  C   UNL     1       0.040  -3.343  -1.556  0.00  0.00    +0.068 C 
ENDBRANCH  25  28
ENDBRANCH  24  25
ENDBRANCH  20  24
ENDBRANCH  19  22
ENDBRANCH   1  19
TORSDOF 7
