REMARK  Name = ZINC00678496
REMARK  8 active torsions:
REMARK  status: ('A' for Active; 'I' for Inactive)
REMARK    1  A    between atoms: N_9  and  C_12
REMARK    2  A    between atoms: C_12  and  C_14
REMARK    3  A    between atoms: C_12  and  C_24
REMARK    4  A    between atoms: C_14  and  C_15
REMARK    5  A    between atoms: C_18  and  N_21
REMARK    6  A    between atoms: N_26  and  C_27
REMARK    7  A    between atoms: C_27  and  C_28
REMARK    8  A    between atoms: C_28  and  C_29
REMARK                            x       y       z     vdW  Elec       q    Type
REMARK                         _______ _______ _______ _____ _____    ______ ____
ROOT
ATOM      1  C   UNL     1      -2.482   0.853   0.018  0.00  0.00    +0.175 C 
ENDROOT
BRANCH   1  10
ATOM      2  C   UNL     1      -7.060   3.975   2.531  0.00  0.00    +0.001 A 
ATOM      3  C   UNL     1      -6.825   4.852   1.488  0.00  0.00    +0.001 A 
ATOM      4  C   UNL     1      -5.825   4.594   0.565  0.00  0.00    +0.014 A 
ATOM      5  C   UNL     1      -5.054   3.448   0.689  0.00  0.00    +0.049 A 
ATOM      6  C   UNL     1      -5.294   2.554   1.751  0.00  0.00    +0.049 A 
ATOM      7  C   UNL     1      -6.298   2.825   2.667  0.00  0.00    +0.014 A 
ATOM      8  C   UNL     1      -4.314   1.460   1.588  0.00  0.00    +0.255 C 
ATOM      9  O   UNL     1      -4.204   0.492   2.313  0.00  0.00    -0.270 OA
ATOM     10  N   UNL     1      -3.563   1.715   0.501  0.00  0.00    -0.222 N 
ATOM     11  C   UNL     1      -3.933   2.870  -0.082  0.00  0.00    +0.255 C 
ATOM     12  O   UNL     1      -3.432   3.355  -1.076  0.00  0.00    -0.270 OA
ENDBRANCH   1  10
BRANCH   1  13
ATOM     13  C   UNL     1      -1.187   1.624   0.017  0.00  0.00    +0.234 C 
ATOM     14  O   UNL     1      -1.204   2.837   0.023  0.00  0.00    -0.274 OA
ATOM     15  N   UNL     1      -0.011   0.966   0.007  0.00  0.00    -0.313 N 
ATOM     16  H   UNL     1       0.002  -0.004   0.002  0.00  0.00    +0.149 HD
BRANCH  15  17
ATOM     17  C   UNL     1       1.248   1.716  -0.001  0.00  0.00    +0.108 C 
BRANCH  17  18
ATOM     18  C   UNL     1       2.424   0.737  -0.017  0.00  0.00    +0.049 C 
BRANCH  18  19
ATOM     19  C   UNL     1       3.719   1.508  -0.025  0.00  0.00    -0.072 C 
ATOM     20  C   UNL     1       4.302   1.727   1.109  0.00  0.00    -0.028 C 
ATOM     21  C   UNL     1       5.587   2.486   1.261  0.00  0.00    +0.027 C 
ATOM     22  C   UNL     1       6.305   2.582  -0.087  0.00  0.00    +0.004 C 
ATOM     23  C   UNL     1       5.300   3.069  -1.138  0.00  0.00    +0.005 C 
ATOM     24  C   UNL     1       4.254   1.970  -1.349  0.00  0.00    +0.030 C 
ENDBRANCH  18  19
ENDBRANCH  17  18
ENDBRANCH  15  17
ENDBRANCH   1  13
BRANCH   1  25
ATOM     25  C   UNL     1      -2.799   0.384  -1.403  0.00  0.00    +0.067 C 
BRANCH  25  26
ATOM     26  C   UNL     1      -4.027  -0.489  -1.382  0.00  0.00    -0.045 A 
ATOM     27  C   UNL     1      -3.900  -1.856  -1.214  0.00  0.00    +0.006 A 
ATOM     28  C   UNL     1      -5.026  -2.657  -1.191  0.00  0.00    +0.033 A 
ATOM     29  C   UNL     1      -6.279  -2.092  -1.345  0.00  0.00    +0.126 A 
ATOM     30  C   UNL     1      -6.405  -0.727  -1.518  0.00  0.00    +0.033 A 
ATOM     31  C   UNL     1      -5.279   0.075  -1.537  0.00  0.00    +0.006 A 
BRANCH  29  32
ATOM     32  N   UNL     1      -7.485  -2.950  -1.323  0.00  0.00    +0.056 N 
ATOM     33  O   UNL     1      -8.588  -2.453  -1.458  0.00  0.00    -0.126 OA
ATOM     34  O   UNL     1      -7.373  -4.154  -1.170  0.00  0.00    -0.126 OA
ENDBRANCH  29  32
ENDBRANCH  25  26
ENDBRANCH   1  25
TORSDOF 8
