REMARK  Name = ZINC31627590
REMARK  3 active torsions:
REMARK  status: ('A' for Active; 'I' for Inactive)
REMARK    1  A    between atoms: C_1  and  C_2
REMARK    2  A    between atoms: N_13  and  C_16
REMARK    3  A    between atoms: C_16  and  C_17
REMARK                            x       y       z     vdW  Elec       q    Type
REMARK                         _______ _______ _______ _____ _____    ______ ____
ROOT
ATOM      1  C   UNL     1       0.354  -6.450  -0.117  0.00  0.00    +0.008 C 
ATOM      2  C   UNL     1       0.634  -4.973  -0.402  0.00  0.00    -0.009 C 
ATOM      3  C   UNL     1       1.835  -4.509   0.426  0.00  0.00    +0.008 C 
ATOM      4  C   UNL     1       2.277  -3.119  -0.034  0.00  0.00    +0.037 C 
ATOM      5  C   UNL     1       1.068  -2.188  -0.019  0.00  0.00    -0.023 A 
ATOM      6  C   UNL     1      -0.186  -2.687  -0.009  0.00  0.00    -0.004 A 
ATOM      7  S   UNL     1      -1.246  -1.266   0.008  0.00  0.00    -0.073 S 
ATOM      8  C   UNL     1       0.002  -0.004   0.002  0.00  0.00    +0.116 A 
ATOM      9  C   UNL     1       1.202  -0.732  -0.013  0.00  0.00    +0.076 A 
ATOM     10  C   UNL     1       2.403   0.051  -0.021  0.00  0.00    +0.263 A 
ATOM     11  O   UNL     1       3.495  -0.490  -0.035  0.00  0.00    -0.267 OA
ATOM     12  N   UNL     1       2.304   1.393  -0.013  0.00  0.00    -0.291 N 
ATOM     13  C   UNL     1       1.095   2.012   0.002  0.00  0.00    +0.203 A 
ATOM     14  N   UNL     1      -0.016   1.326   0.009  0.00  0.00    -0.230 NA
ATOM     15  C   UNL     1      -0.589  -4.130  -0.013  0.00  0.00    +0.046 C 
ENDROOT
BRANCH  12  16
ATOM     16  C   UNL     1       3.525   2.203  -0.021  0.00  0.00    +0.202 C 
BRANCH  16  17
ATOM     17  C   UNL     1       3.930   2.488  -1.444  0.00  0.00    +0.156 A 
ATOM     18  N   UNL     1       4.744   1.661  -2.076  0.00  0.00    -0.198 NA
ATOM     19  C   UNL     1       5.099   1.906  -3.335  0.00  0.00    +0.217 A 
ATOM     20  N   UNL     1       4.643   2.990  -3.953  0.00  0.00    -0.181 NA
ATOM     21  C   UNL     1       3.829   3.822  -3.313  0.00  0.00    +0.217 A 
ATOM     22  N   UNL     1       3.474   3.567  -2.056  0.00  0.00    -0.198 NA
ATOM     23  N   UNL     1       3.353   4.950  -3.950  0.00  0.00    -0.327 N 
ATOM     24  N   UNL     1       5.945   1.039  -3.996  0.00  0.00    -0.327 N 
ATOM     25  H   UNL     1       2.679   5.638  -3.420  0.00  0.00    +0.145 HD
ATOM     26  H   UNL     1       3.647   5.160  -4.989  0.00  0.00    +0.145 HD
ATOM     27  H   UNL     1       6.239   1.242  -5.036  0.00  0.00    +0.145 HD
ATOM     28  H   UNL     1       6.326   0.144  -3.482  0.00  0.00    +0.145 HD
ENDBRANCH  16  17
ENDBRANCH  12  16
TORSDOF 2
