REMARK  Name = ZINC59935611
REMARK  9 active torsions:
REMARK  status: ('A' for Active; 'I' for Inactive)
REMARK    1  A    between atoms: C_1  and  C_2
REMARK    2  A    between atoms: C_2  and  C_3
REMARK    3  A    between atoms: C_2  and  N_4
REMARK    4  A    between atoms: C_9  and  C_18
REMARK    5  A    between atoms: C_11  and  C_13
REMARK    6  A    between atoms: N_20  and  C_21
REMARK    7  A    between atoms: C_25  and  C_27
REMARK    8  A    between atoms: C_27  and  N_28
REMARK    9  A    between atoms: C_32  and  C_34
REMARK                            x       y       z     vdW  Elec       q    Type
REMARK                         _______ _______ _______ _____ _____    ______ ____
ROOT
ATOM      1  C   UNL     1      -5.505  -2.632  -0.927  0.00  0.00    +0.249 C 
ATOM      2  O   UNL     1      -5.942  -2.171   0.110  0.00  0.00    -0.270 OA
ATOM      3  N   UNL     1      -6.291  -3.400  -1.707  0.00  0.00    -0.281 N 
ATOM      4  H   UNL     1      -5.965  -3.712  -2.566  0.00  0.00    +0.155 HD
ENDROOT
BRANCH   1  10
ATOM      5  N   UNL     1      -1.375  -0.504   0.007  0.00  0.00    -0.244 N 
ATOM      6  C   UNL     1      -1.946  -1.300  -0.952  0.00  0.00    +0.160 A 
ATOM      7  C   UNL     1      -3.269  -1.544  -0.529  0.00  0.00    +0.051 A 
ATOM      8  C   UNL     1      -3.444  -0.870   0.697  0.00  0.00    +0.145 A 
ATOM      9  N   UNL     1      -2.329  -0.270   1.004  0.00  0.00    -0.177 NA
ATOM     10  C   UNL     1      -4.112  -2.349  -1.332  0.00  0.00    +0.051 A 
ATOM     11  C   UNL     1      -3.591  -2.864  -2.512  0.00  0.00    +0.045 A 
ATOM     12  C   UNL     1      -2.265  -2.573  -2.860  0.00  0.00    +0.109 A 
ATOM     13  N   UNL     1      -1.500  -1.817  -2.087  0.00  0.00    -0.224 NA
BRANCH  12  14
ATOM     14  C   UNL     1      -1.710  -3.121  -4.113  0.00  0.00    +0.153 A 
ATOM     15  C   UNL     1      -0.445  -2.929  -4.577  0.00  0.00    +0.051 A 
ATOM     16  C   UNL     1      -0.350  -3.628  -5.795  0.00  0.00    +0.042 A 
ATOM     17  C   UNL     1      -1.549  -4.205  -6.014  0.00  0.00    +0.196 A 
ATOM     18  O   UNL     1      -2.365  -3.902  -4.993  0.00  0.00    -0.461 OA
ENDBRANCH  12  14
BRANCH   5  20
ATOM     19  C   UNL     1      -0.028   1.538   0.010  0.00  0.00    +0.032 C 
ATOM     20  C   UNL     1      -0.002   0.008  -0.006  0.00  0.00    +0.103 C 
ATOM     21  C   UNL     1       0.744  -0.502   1.228  0.00  0.00    +0.032 C 
ENDBRANCH   5  20
ENDBRANCH   1  10
BRANCH   3  22
ATOM     22  C   UNL     1      -7.575  -3.748  -1.278  0.00  0.00    +0.034 A 
ATOM     23  C   UNL     1      -8.331  -2.846  -0.540  0.00  0.00    +0.023 A 
ATOM     24  C   UNL     1      -9.599  -3.193  -0.118  0.00  0.00    +0.002 A 
ATOM     25  C   UNL     1     -10.117  -4.437  -0.430  0.00  0.00    +0.002 A 
ATOM     26  C   UNL     1      -9.367  -5.338  -1.164  0.00  0.00    -0.062 A 
ATOM     27  C   UNL     1      -8.101  -4.995  -1.594  0.00  0.00    +0.025 A 
BRANCH  26  28
ATOM     28  C   UNL     1      -9.935  -6.692  -1.500  0.00  0.00    -0.042 C 
BRANCH  28  29
ATOM     29  N   UNL     1     -10.651  -6.619  -2.781  0.00  0.00    +0.390 N 
ATOM     30  C   UNL     1     -11.835  -5.745  -2.641  0.00  0.00    -0.077 C 
ATOM     31  C   UNL     1     -12.919  -6.401  -3.532  0.00  0.00    -0.020 C 
ATOM     32  C   UNL     1     -12.642  -7.910  -3.304  0.00  0.00    -0.008 C 
ATOM     33  C   UNL     1     -11.105  -7.966  -3.174  0.00  0.00    +0.019 C 
ATOM     34  H   UNL     1     -10.039  -6.247  -3.492  0.00  0.00    -0.080 HD
BRANCH  33  35
ATOM     35  C   UNL     1     -10.492  -8.349  -4.496  0.00  0.00    +0.197 C 
ATOM     36  O   UNL     1      -9.747  -7.579  -5.064  0.00  0.00    -0.278 OA
ATOM     37  N   UNL     1     -10.773  -9.546  -5.047  0.00  0.00    -0.331 N 
ATOM     38  H   UNL     1     -11.369 -10.162  -4.592  0.00  0.00    +0.145 HD
ATOM     39  H   UNL     1     -10.378  -9.793  -5.898  0.00  0.00    +0.145 HD
ENDBRANCH  33  35
ENDBRANCH  28  29
ENDBRANCH  26  28
ENDBRANCH   3  22
TORSDOF 7
