REMARK  Name = ZINC39630942
REMARK  10 active torsions:
REMARK  status: ('A' for Active; 'I' for Inactive)
REMARK    1  A    between atoms: C_1  and  C_2
REMARK    2  A    between atoms: C_2  and  C_3
REMARK    3  A    between atoms: C_2  and  C_4
REMARK    4  A    between atoms: C_2  and  C_32
REMARK    5  A    between atoms: C_4  and  N_5
REMARK    6  A    between atoms: C_6  and  C_8
REMARK    7  A    between atoms: C_19  and  C_21
REMARK    8  A    between atoms: C_32  and  N_33
REMARK    9  A    between atoms: N_33  and  C_34
REMARK   10  A    between atoms: N_33  and  C_35
REMARK                            x       y       z     vdW  Elec       q    Type
REMARK                         _______ _______ _______ _____ _____    ______ ____
ROOT
ATOM      1  C   UNL     1      -6.099   0.359   2.205  0.00  0.00    +0.100 C 
ATOM      2  C   UNL     1      -5.856   0.112   3.710  0.00  0.00    +0.121 C 
ATOM      3  N   UNL     1      -7.206  -0.123   4.274  0.00  0.00    -0.297 N 
ATOM      4  C   UNL     1      -7.899  -0.934   3.245  0.00  0.00    +0.115 C 
ATOM      5  C   UNL     1      -7.441  -0.329   1.903  0.00  0.00    -0.004 C 
ATOM      6  C   UNL     1      -8.460   0.693   1.409  0.00  0.00    -0.010 C 
ATOM      7  C   UNL     1      -9.768  -0.024   1.062  0.00  0.00    -0.082 C 
ATOM      8  N   UNL     1      -9.515  -1.032   0.026  0.00  0.00    +0.379 N 
ATOM      9  C   UNL     1      -8.605  -2.062   0.541  0.00  0.00    -0.082 C 
ATOM     10  C   UNL     1      -7.248  -1.432   0.867  0.00  0.00    -0.010 C 
ATOM     11  C   UNL     1      -7.693   0.304   5.456  0.00  0.00    +0.260 C 
ATOM     12  O   UNL     1      -6.971   0.892   6.233  0.00  0.00    -0.271 OA
ATOM     13  H   UNL     1     -10.387  -1.461  -0.244  0.00  0.00    -0.086 HD
ATOM     14  H   UNL     1      -9.098  -0.589  -0.778  0.00  0.00    -0.086 HD
ENDROOT
BRANCH  11  15
ATOM     15  C   UNL     1      -9.136   0.051   5.812  0.00  0.00    +0.296 C 
ATOM     16  C   UNL     1      -9.357  -1.450   6.039  0.00  0.00    +0.283 C 
ATOM     17  O   UNL     1     -10.731  -1.653   6.388  0.00  0.00    -0.484 OA
ATOM     18  C   UNL     1     -11.254  -0.813   7.323  0.00  0.00    +0.162 A 
ATOM     19  C   UNL     1     -12.432  -1.162   7.968  0.00  0.00    +0.049 A 
ATOM     20  C   UNL     1     -12.978  -0.318   8.916  0.00  0.00    +0.004 A 
ATOM     21  C   UNL     1     -12.352   0.875   9.226  0.00  0.00    +0.004 A 
ATOM     22  C   UNL     1     -11.178   1.228   8.588  0.00  0.00    +0.049 A 
ATOM     23  C   UNL     1     -10.624   0.385   7.636  0.00  0.00    +0.163 A 
ATOM     24  O   UNL     1      -9.463   0.743   7.022  0.00  0.00    -0.473 OA
ENDBRANCH  11  15
BRANCH   1  26
ATOM     25  N   UNL     1      -4.648   0.283   0.203  0.00  0.00    -0.315 N 
ATOM     26  C   UNL     1      -4.995  -0.260   1.386  0.00  0.00    +0.218 C 
ATOM     27  O   UNL     1      -4.421  -1.248   1.792  0.00  0.00    -0.275 OA
ATOM     28  H   UNL     1      -5.107   1.073  -0.122  0.00  0.00    +0.149 HD
BRANCH  25  29
ATOM     29  C   UNL     1      -3.575  -0.319  -0.593  0.00  0.00    +0.108 C 
BRANCH  29  31
ATOM     30  C   UNL     1      -4.681   0.477  -2.687  0.00  0.00    +0.010 C 
ATOM     31  C   UNL     1      -3.381   0.485  -1.880  0.00  0.00    -0.034 C 
ATOM     32  C   UNL     1      -3.008   1.927  -1.529  0.00  0.00    +0.010 C 
BRANCH  31  33
ATOM     33  C   UNL     1      -2.261  -0.143  -2.711  0.00  0.00    -0.072 C 
BRANCH  33  34
ATOM     34  N   UNL     1      -1.995   0.695  -3.887  0.00  0.00    +0.376 N 
ATOM     35  C   UNL     1      -1.056   1.764  -3.524  0.00  0.00    -0.097 C 
ATOM     36  C   UNL     1      -1.410  -0.130  -4.954  0.00  0.00    -0.097 C 
ATOM     37  H   UNL     1      -2.859   1.102  -4.213  0.00  0.00    -0.083 HD
ENDBRANCH  33  34
ENDBRANCH  31  33
ENDBRANCH  29  31
ENDBRANCH  25  29
ENDBRANCH   1  26
TORSDOF 6
