REMARK  Name = ZINC04503820
REMARK  8 active torsions:
REMARK  status: ('A' for Active; 'I' for Inactive)
REMARK    1  A    between atoms: C_1  and  C_2
REMARK    2  A    between atoms: C_2  and  C_27
REMARK    3  A    between atoms: C_6  and  C_14
REMARK    4  A    between atoms: C_8  and  C_12
REMARK    5  A    between atoms: C_9  and  N_11
REMARK    6  A    between atoms: C_19  and  O_20
REMARK    7  A    between atoms: O_20  and  C_21
REMARK    8  A    between atoms: C_21  and  C_22
REMARK                            x       y       z     vdW  Elec       q    Type
REMARK                         _______ _______ _______ _____ _____    ______ ____
ROOT
ATOM      1  C   UNL     1       7.644  -1.274   0.936  0.00  0.00    +0.012 C 
ATOM      2  C   UNL     1       7.076  -2.557   1.546  0.00  0.00    -0.021 C 
ATOM      3  C   UNL     1       6.925  -2.384   3.058  0.00  0.00    +0.081 C 
ATOM      4  C   UNL     1       5.967  -1.253   3.348  0.00  0.00    +0.115 C 
ATOM      5  C   UNL     1       4.954  -0.979   2.506  0.00  0.00    +0.046 C 
ATOM      6  C   UNL     1       3.989   0.143   2.804  0.00  0.00    +0.104 C 
ATOM      7  C   UNL     1       4.072   0.520   4.257  0.00  0.00    +0.098 C 
ATOM      8  C   UNL     1       5.144   0.162   5.000  0.00  0.00    +0.198 C 
ATOM      9  O   UNL     1       6.162  -0.531   4.468  0.00  0.00    -0.445 OA
ATOM     10  C   UNL     1       4.761  -1.723   1.326  0.00  0.00    +0.164 C 
ATOM     11  O   UNL     1       3.825  -1.457   0.599  0.00  0.00    -0.292 OA
ATOM     12  C   UNL     1       5.693  -2.842   0.950  0.00  0.00    +0.086 C 
ATOM     13  C   UNL     1       8.018  -3.727   1.253  0.00  0.00    +0.012 C 
ENDROOT
BRANCH   6  14
ATOM     14  C   UNL     1       4.338   1.340   1.957  0.00  0.00    +0.007 A 
ATOM     15  C   UNL     1       5.583   1.929   2.070  0.00  0.00    +0.008 A 
ATOM     16  C   UNL     1       5.901   3.030   1.297  0.00  0.00    +0.001 A 
ATOM     17  C   UNL     1       4.977   3.541   0.405  0.00  0.00    +0.004 A 
ATOM     18  C   UNL     1       3.733   2.953   0.283  0.00  0.00    +0.046 A 
ATOM     19  C   UNL     1       3.411   1.848   1.058  0.00  0.00    +0.125 A 
BRANCH  19  20
ATOM     20  O   UNL     1       2.188   1.267   0.941  0.00  0.00    -0.488 OA
BRANCH  20  21
ATOM     21  C   UNL     1       1.282   1.847  -0.000  0.00  0.00    +0.256 C 
BRANCH  21  22
ATOM     22  C   UNL     1      -0.013   1.076   0.008  0.00  0.00    +0.006 C 
ATOM     23  C   UNL     1      -1.156   1.715   0.017  0.00  0.00    +0.007 C 
ENDBRANCH  21  22
ENDBRANCH  20  21
ENDBRANCH  19  20
ENDBRANCH   6  14
BRANCH   8  24
ATOM     24  N   UNL     1       5.193   0.516   6.326  0.00  0.00    -0.328 N 
ATOM     25  H   UNL     1       5.957   0.265   6.867  0.00  0.00    +0.145 HD
ATOM     26  H   UNL     1       4.463   1.018   6.721  0.00  0.00    +0.145 HD
ENDBRANCH   8  24
BRANCH   7  27
ATOM     27  C   UNL     1       3.009   1.265   4.861  0.00  0.00    +0.101 C 
ATOM     28  N   UNL     1       2.165   1.856   5.340  0.00  0.00    -0.191 NA
ENDBRANCH   7  27
TORSDOF 6
