REMARK  Name = ZINC21974946
REMARK  5 active torsions:
REMARK  status: ('A' for Active; 'I' for Inactive)
REMARK    1  A    between atoms: C_4  and  S_11
REMARK    2  A    between atoms: C_5  and  C_7
REMARK    3  A    between atoms: S_11  and  N_14
REMARK    4  A    between atoms: C_21  and  S_23
REMARK    5  A    between atoms: S_23  and  N_26
REMARK                            x       y       z     vdW  Elec       q    Type
REMARK                         _______ _______ _______ _____ _____    ______ ____
ROOT
ATOM      1  N   UNL     1      -2.009   3.893   0.141  0.00  0.00    -0.202 N 
ATOM      2  C   UNL     1      -2.885   2.741   0.371  0.00  0.00    +0.136 C 
ATOM      3  C   UNL     1      -1.960   1.515   0.320  0.00  0.00    +0.058 C 
ATOM      4  C   UNL     1      -0.587   2.086   0.042  0.00  0.00    -0.021 A 
ATOM      5  C   UNL     1      -0.694   3.465  -0.051  0.00  0.00    +0.055 A 
ATOM      6  C   UNL     1       0.452   4.217  -0.313  0.00  0.00    +0.027 A 
ATOM      7  C   UNL     1       1.672   3.594  -0.471  0.00  0.00    +0.030 A 
ATOM      8  C   UNL     1       1.769   2.218  -0.371  0.00  0.00    +0.105 A 
ATOM      9  C   UNL     1       0.638   1.466  -0.111  0.00  0.00    +0.034 A 
ENDROOT
BRANCH   1  10
ATOM     10  S   UNL     1      -2.509   5.471   0.094  0.00  0.00    +0.075 S 
ATOM     11  O   UNL     1      -3.779   5.514   0.731  0.00  0.00    -0.150 OA
ATOM     12  O   UNL     1      -1.410   6.258   0.533  0.00  0.00    -0.150 OA
BRANCH  10  16
ATOM     13  C   UNL     1      -3.203   6.527  -4.253  0.00  0.00    +0.001 A 
ATOM     14  C   UNL     1      -2.488   5.391  -3.923  0.00  0.00    +0.002 A 
ATOM     15  C   UNL     1      -2.272   5.071  -2.596  0.00  0.00    +0.029 A 
ATOM     16  C   UNL     1      -2.779   5.882  -1.598  0.00  0.00    +0.120 A 
ATOM     17  C   UNL     1      -3.494   7.018  -1.927  0.00  0.00    +0.081 A 
ATOM     18  C   UNL     1      -3.706   7.341  -3.255  0.00  0.00    +0.014 A 
BRANCH  17  19
ATOM     19  C   UNL     1      -4.042   7.905  -0.839  0.00  0.00    +0.419 C 
ATOM     20  F   UNL     1      -4.598   9.055  -1.411  0.00  0.00    -0.166 F 
ATOM     21  F   UNL     1      -5.029   7.215  -0.127  0.00  0.00    -0.166 F 
ATOM     22  F   UNL     1      -3.009   8.270   0.030  0.00  0.00    -0.166 F 
ENDBRANCH  17  19
ENDBRANCH  10  16
ENDBRANCH   1  10
BRANCH   8  23
ATOM     23  S   UNL     1       3.329   1.426  -0.572  0.00  0.00    +0.056 S 
ATOM     24  O   UNL     1       4.321   2.397  -0.265  0.00  0.00    -0.153 OA
ATOM     25  O   UNL     1       3.244   0.182   0.110  0.00  0.00    -0.153 OA
BRANCH  23  26
ATOM     26  N   UNL     1       3.495   1.073  -2.182  0.00  0.00    -0.204 NA
ATOM     27  H   UNL     1       4.461   0.575  -2.350  0.00  0.00    +0.144 HD
ATOM     28  H   UNL     1       3.455   2.003  -2.767  0.00  0.00    +0.144 HD
ENDBRANCH  23  26
ENDBRANCH   8  23
TORSDOF 5
