REMARK  Name = ZINC35747052
REMARK  17 active torsions:
REMARK  status: ('A' for Active; 'I' for Inactive)
REMARK    1  A    between atoms: C_1  and  C_2
REMARK    2  A    between atoms: C_2  and  C_3
REMARK    3  A    between atoms: C_3  and  N_4
REMARK    4  A    between atoms: N_4  and  C_5
REMARK    5  A    between atoms: N_4  and  C_23
REMARK    6  A    between atoms: C_5  and  C_6
REMARK    7  A    between atoms: C_12  and  C_22
REMARK    8  A    between atoms: C_13  and  C_17
REMARK    9  A    between atoms: C_17  and  O_19
REMARK   10  A    between atoms: O_19  and  C_20
REMARK   11  A    between atoms: C_20  and  C_21
REMARK   12  A    between atoms: C_23  and  C_24
REMARK   13  A    between atoms: C_24  and  C_26
REMARK   14  A    between atoms: C_24  and  O_35
REMARK   15  A    between atoms: C_26  and  O_27
REMARK   16  A    between atoms: O_27  and  C_28
REMARK   17  A    between atoms: C_33  and  C_34
REMARK                            x       y       z     vdW  Elec       q    Type
REMARK                         _______ _______ _______ _____ _____    ______ ____
ROOT
ATOM      1  N   UNL     1      -1.662  -2.054  -0.007  0.00  0.00    +0.386 N 
ATOM      2  H   UNL     1      -1.203  -2.289  -0.875  0.00  0.00    -0.081 HD
ENDROOT
BRANCH   1   3
ATOM      3  C   UNL     1      -1.759  -0.594   0.117  0.00  0.00    -0.078 C 
BRANCH   3   5
ATOM      4  C   UNL     1      -0.484   1.549  -0.044  0.00  0.00    +0.002 C 
ATOM      5  C   UNL     1      -0.366   0.024  -0.028  0.00  0.00    -0.022 C 
ENDBRANCH   3   5
ENDBRANCH   1   3
BRANCH   1   6
ATOM      6  C   UNL     1      -0.886  -2.591   1.119  0.00  0.00    -0.003 C 
BRANCH   6   7
ATOM      7  C   UNL     1      -0.638  -4.061   0.902  0.00  0.00    +0.094 A 
ATOM      8  N   UNL     1      -0.054  -4.783   1.891  0.00  0.00    -0.312 N 
ATOM      9  H   UNL     1       0.193  -4.342   2.718  0.00  0.00    +0.170 HD
ATOM     10  C   UNL     1       0.188  -6.101   1.747  0.00  0.00    +0.260 A 
ATOM     11  O   UNL     1       0.712  -6.740   2.642  0.00  0.00    -0.267 OA
ATOM     12  C   UNL     1      -0.199  -6.751   0.474  0.00  0.00    +0.076 A 
ATOM     13  C   UNL     1      -0.056  -8.084   0.086  0.00  0.00    -0.015 A 
ATOM     14  C   UNL     1      -0.485  -8.482  -1.147  0.00  0.00    +0.102 A 
ATOM     15  S   UNL     1      -1.127  -6.971  -1.848  0.00  0.00    -0.062 S 
ATOM     16  C   UNL     1      -0.797  -5.893  -0.477  0.00  0.00    +0.116 A 
ATOM     17  N   UNL     1      -0.995  -4.604  -0.230  0.00  0.00    -0.229 NA
ATOM     18  C   UNL     1       0.570  -9.082   1.026  0.00  0.00    +0.046 C 
BRANCH  14  19
ATOM     19  C   UNL     1      -0.431  -9.817  -1.747  0.00  0.00    +0.346 C 
ATOM     20  O   UNL     1       0.046 -10.745  -1.123  0.00  0.00    -0.244 OA
BRANCH  19  21
ATOM     21  O   UNL     1      -0.910 -10.017  -2.993  0.00  0.00    -0.461 OA
BRANCH  21  22
ATOM     22  C   UNL     1      -0.826 -11.344  -3.515  0.00  0.00    +0.229 C 
ATOM     23  C   UNL     1      -1.414 -11.375  -4.927  0.00  0.00    +0.048 C 
ENDBRANCH  21  22
ENDBRANCH  19  21
ENDBRANCH  14  19
ENDBRANCH   6   7
ENDBRANCH   1   6
BRANCH   1  24
ATOM     24  C   UNL     1      -3.011  -2.637   0.006  0.00  0.00    -0.043 C 
BRANCH  24  25
ATOM     25  C   UNL     1      -3.778  -2.176  -1.235  0.00  0.00    +0.135 C 
BRANCH  25  26
ATOM     26  O   UNL     1      -3.150  -2.701  -2.406  0.00  0.00    -0.390 OA
ATOM     27  H   UNL     1      -3.117  -3.667  -2.434  0.00  0.00    +0.210 HD
ENDBRANCH  25  26
BRANCH  25  28
ATOM     28  C   UNL     1      -5.220  -2.680  -1.159  0.00  0.00    +0.258 C 
BRANCH  28  29
ATOM     29  O   UNL     1      -5.968  -2.153  -2.257  0.00  0.00    -0.489 OA
BRANCH  29  30
ATOM     30  C   UNL     1      -7.277  -2.507  -2.339  0.00  0.00    +0.124 A 
ATOM     31  C   UNL     1      -7.833  -3.339  -1.378  0.00  0.00    +0.046 A 
ATOM     32  C   UNL     1      -9.165  -3.697  -1.463  0.00  0.00    +0.004 A 
ATOM     33  C   UNL     1      -9.943  -3.226  -2.505  0.00  0.00    +0.000 A 
ATOM     34  C   UNL     1      -9.391  -2.396  -3.463  0.00  0.00    +0.007 A 
ATOM     35  C   UNL     1      -8.062  -2.031  -3.380  0.00  0.00    -0.009 A 
ATOM     36  C   UNL     1      -7.462  -1.122  -4.421  0.00  0.00    +0.047 C 
ENDBRANCH  29  30
ENDBRANCH  28  29
ENDBRANCH  25  28
ENDBRANCH  24  25
ENDBRANCH   1  24
TORSDOF 13
