REMARK  Name = ZINC39000320
REMARK  7 active torsions:
REMARK  status: ('A' for Active; 'I' for Inactive)
REMARK    1  A    between atoms: C_5  and  C_7
REMARK    2  A    between atoms: C_7  and  O_8
REMARK    3  A    between atoms: O_8  and  C_9
REMARK    4  A    between atoms: C_13  and  C_15
REMARK    5  A    between atoms: C_17  and  C_21
REMARK    6  A    between atoms: N_23  and  N_24
REMARK    7  A    between atoms: C_25  and  C_26
REMARK                            x       y       z     vdW  Elec       q    Type
REMARK                         _______ _______ _______ _____ _____    ______ ____
ROOT
ATOM      1  C   UNL     1      -3.062  -6.552  -0.015  0.00  0.00    +0.047 C 
ATOM      2  C   UNL     1      -3.312  -7.860  -0.016  0.00  0.00    +0.027 C 
ATOM      3  C   UNL     1      -4.817  -8.015  -0.011  0.00  0.00    +0.184 C 
ATOM      4  N   UNL     1      -5.330  -6.632  -0.007  0.00  0.00    -0.227 NA
ATOM      5  N   UNL     1      -4.237  -5.814  -0.004  0.00  0.00    -0.279 N 
ATOM      6  H   UNL     1      -5.913  -6.460  -0.813  0.00  0.00    +0.145 HD
ATOM      7  H   UNL     1      -4.277  -4.845   0.001  0.00  0.00    +0.166 HD
ENDROOT
BRANCH   1  12
ATOM      8  C   UNL     1      -0.272  -4.030  -0.017  0.00  0.00    +0.122 A 
ATOM      9  C   UNL     1       0.840  -4.861  -0.027  0.00  0.00    +0.046 A 
ATOM     10  C   UNL     1       0.683  -6.234  -0.034  0.00  0.00    +0.004 A 
ATOM     11  C   UNL     1      -0.581  -6.788  -0.030  0.00  0.00    +0.010 A 
ATOM     12  C   UNL     1      -1.704  -5.961  -0.019  0.00  0.00    +0.000 A 
ATOM     13  C   UNL     1      -1.544  -4.576  -0.007  0.00  0.00    +0.055 A 
BRANCH   8  14
ATOM     14  O   UNL     1      -0.112  -2.680  -0.011  0.00  0.00    -0.487 OA
BRANCH  14  15
ATOM     15  C   UNL     1       1.229  -2.186  -0.022  0.00  0.00    +0.266 C 
BRANCH  15  20
ATOM     16  C   UNL     1      -0.017   1.378   0.010  0.00  0.00    +0.000 A 
ATOM     17  C   UNL     1       1.171   2.086   0.002  0.00  0.00    +0.001 A 
ATOM     18  C   UNL     1       2.377   1.412  -0.013  0.00  0.00    +0.020 A 
ATOM     19  C   UNL     1       2.397   0.029  -0.021  0.00  0.00    +0.047 A 
ATOM     20  C   UNL     1       1.208  -0.679  -0.013  0.00  0.00    +0.008 A 
ATOM     21  C   UNL     1       0.002  -0.004   0.002  0.00  0.00    +0.008 A 
ATOM     22 CL   UNL     1       3.912  -0.818  -0.041  0.00  0.00    -0.083 Cl
ENDBRANCH  15  20
ENDBRANCH  14  15
ENDBRANCH   8  14
ENDBRANCH   1  12
BRANCH   3  23
ATOM     23  C   UNL     1      -5.276  -8.746  -1.247  0.00  0.00    +0.255 C 
ATOM     24  O   UNL     1      -5.727  -8.125  -2.186  0.00  0.00    -0.272 OA
ATOM     25  N   UNL     1      -5.183 -10.089  -1.309  0.00  0.00    -0.205 N 
ATOM     26  H   UNL     1      -4.821 -10.586  -0.559  0.00  0.00    +0.177 HD
BRANCH  25  27
ATOM     27  N   UNL     1      -5.609 -10.768  -2.458  0.00  0.00    -0.188 NA
ATOM     28  C   UNL     1      -5.519 -12.073  -2.519  0.00  0.00    +0.136 C 
BRANCH  28  29
ATOM     29  C   UNL     1      -5.945 -12.752  -3.669  0.00  0.00    +0.000 C 
ATOM     30  C   UNL     1      -5.923 -14.127  -3.891  0.00  0.00    +0.004 A 
ATOM     31  C   UNL     1      -5.499 -15.216  -3.098  0.00  0.00    +0.010 A 
ATOM     32  C   UNL     1      -5.596 -16.479  -3.582  0.00  0.00    +0.001 A 
ATOM     33  C   UNL     1      -6.109 -16.739  -4.856  0.00  0.00    +0.002 A 
ATOM     34  C   UNL     1      -6.536 -15.745  -5.672  0.00  0.00    +0.026 A 
ATOM     35  C   UNL     1      -6.466 -14.395  -5.235  0.00  0.00    +0.043 A 
ATOM     36  N   UNL     1      -6.808 -13.269  -5.826  0.00  0.00    -0.380 N 
ATOM     37  C   UNL     1      -6.531 -12.146  -4.925  0.00  0.00    +0.150 C 
ATOM     38  H   UNL     1      -7.188 -13.195  -6.715  0.00  0.00    +0.160 HD
ENDBRANCH  28  29
ENDBRANCH  25  27
ENDBRANCH   3  23
TORSDOF 7
