REMARK  Name = ZINC44002640
REMARK  5 active torsions:
REMARK  status: ('A' for Active; 'I' for Inactive)
REMARK    1  A    between atoms: C_8  and  C_12
REMARK    2  A    between atoms: N_14  and  C_15
REMARK    3  A    between atoms: C_15  and  C_16
REMARK    4  A    between atoms: C_22  and  C_24
REMARK    5  A    between atoms: C_24  and  C_27
REMARK                            x       y       z     vdW  Elec       q    Type
REMARK                         _______ _______ _______ _____ _____    ______ ____
ROOT
ATOM      1  C   UNL     1       1.795  -5.476  -0.832  0.00  0.00    +0.251 C 
ATOM      2  O   UNL     1       0.989  -6.380  -0.949  0.00  0.00    -0.270 OA
ATOM      3  N   UNL     1       3.062  -5.748  -0.461  0.00  0.00    -0.311 N 
ATOM      4  H   UNL     1       3.704  -5.027  -0.367  0.00  0.00    +0.149 HD
ENDROOT
BRANCH   1  12
ATOM      5  C   UNL     1      -1.839  -0.694  -2.129  0.00  0.00    +0.001 A 
ATOM      6  C   UNL     1      -0.824   0.252  -2.162  0.00  0.00    +0.004 A 
ATOM      7  C   UNL     1       0.493  -0.125  -2.007  0.00  0.00    +0.047 A 
ATOM      8  C   UNL     1       0.810  -1.462  -1.807  0.00  0.00    +0.139 A 
ATOM      9  C   UNL     1      -0.221  -2.417  -1.745  0.00  0.00    +0.018 A 
ATOM     10  C   UNL     1      -1.552  -2.014  -1.929  0.00  0.00    +0.011 A 
ATOM     11  C   UNL     1       0.089  -3.776  -1.478  0.00  0.00    +0.031 A 
ATOM     12  C   UNL     1       1.386  -4.086  -1.095  0.00  0.00    +0.122 A 
ATOM     13  C   UNL     1       2.339  -2.969  -0.960  0.00  0.00    +0.350 A 
ATOM     14  O   UNL     1       3.305  -3.052  -0.225  0.00  0.00    -0.244 OA
ATOM     15  O   UNL     1       2.102  -1.849  -1.681  0.00  0.00    -0.422 OA
ENDBRANCH   1  12
BRANCH   3  16
ATOM     16  C   UNL     1       3.468  -7.131  -0.199  0.00  0.00    +0.108 C 
BRANCH  16  17
ATOM     17  C   UNL     1       4.944  -7.161   0.202  0.00  0.00    +0.009 C 
ATOM     18  C   UNL     1       5.803  -6.702  -0.979  0.00  0.00    +0.024 C 
ATOM     19  C   UNL     1       7.277  -6.701  -0.562  0.00  0.00    +0.108 C 
ATOM     20  N   UNL     1       7.624  -8.032  -0.046  0.00  0.00    -0.300 N 
ATOM     21  C   UNL     1       6.805  -8.608   1.029  0.00  0.00    +0.108 C 
ATOM     22  C   UNL     1       5.336  -8.588   0.596  0.00  0.00    +0.024 C 
ATOM     23  C   UNL     1       8.673  -8.712  -0.550  0.00  0.00    +0.236 C 
ATOM     24  O   UNL     1       8.993  -9.777  -0.067  0.00  0.00    -0.274 OA
BRANCH  23  25
ATOM     25  C   UNL     1       9.448  -8.148  -1.713  0.00  0.00    +0.133 C 
ATOM     26  C   UNL     1       9.007  -8.557  -3.120  0.00  0.00    +0.033 C 
ATOM     27  C   UNL     1      10.301  -9.120  -2.531  0.00  0.00    +0.033 C 
BRANCH  25  28
ATOM     28  C   UNL     1       9.961  -6.781  -1.531  0.00  0.00    +0.079 C 
ATOM     29  N   UNL     1      10.356  -5.725  -1.391  0.00  0.00    -0.195 NA
ENDBRANCH  25  28
ENDBRANCH  23  25
ENDBRANCH  16  17
ENDBRANCH   3  16
TORSDOF 5
