REMARK  Name = ZINC46555350
REMARK  9 active torsions:
REMARK  status: ('A' for Active; 'I' for Inactive)
REMARK    1  A    between atoms: C_1  and  C_2
REMARK    2  A    between atoms: C_2  and  C_4
REMARK    3  A    between atoms: C_2  and  N_14
REMARK    4  A    between atoms: C_15  and  C_17
REMARK    5  A    between atoms: C_20  and  C_23
REMARK    6  A    between atoms: C_23  and  N_24
REMARK    7  A    between atoms: N_27  and  C_28
REMARK    8  A    between atoms: C_28  and  C_29
REMARK    9  A    between atoms: C_28  and  C_30
REMARK                            x       y       z     vdW  Elec       q    Type
REMARK                         _______ _______ _______ _____ _____    ______ ____
ROOT
ATOM      1  N   UNL     1      -1.372  -0.511   0.012  0.00  0.00    -0.308 N 
ATOM      2  C   UNL     1      -2.051  -0.643  -1.145  0.00  0.00    +0.244 C 
ATOM      3  O   UNL     1      -1.522  -0.341  -2.197  0.00  0.00    -0.270 OA
ATOM      4  H   UNL     1      -1.794  -0.752   0.852  0.00  0.00    +0.149 HD
ENDROOT
BRANCH   2   5
ATOM      5  C   UNL     1      -3.438  -1.155  -1.134  0.00  0.00    +0.037 A 
ATOM      6  C   UNL     1      -4.050  -1.497   0.073  0.00  0.00    +0.013 A 
ATOM      7  C   UNL     1      -5.344  -1.973   0.076  0.00  0.00    +0.006 A 
ATOM      8  C   UNL     1      -6.036  -2.112  -1.114  0.00  0.00    -0.030 A 
ATOM      9  C   UNL     1      -5.435  -1.775  -2.314  0.00  0.00    +0.006 A 
ATOM     10  C   UNL     1      -4.143  -1.292  -2.331  0.00  0.00    +0.013 A 
BRANCH   8  11
ATOM     11  C   UNL     1      -7.450  -2.634  -1.104  0.00  0.00    +0.141 C 
BRANCH  11  12
ATOM     12  N   UNL     1      -8.383  -1.512  -0.975  0.00  0.00    -0.295 N 
ATOM     13  C   UNL     1      -9.711  -1.741  -0.943  0.00  0.00    +0.300 C 
ATOM     14  O   UNL     1     -10.134  -2.878  -1.022  0.00  0.00    -0.253 OA
ATOM     15  N   UNL     1     -10.570  -0.709  -0.825  0.00  0.00    -0.297 N 
ATOM     16  H   UNL     1      -8.046  -0.605  -0.913  0.00  0.00    +0.151 HD
ATOM     17  H   UNL     1     -10.232   0.198  -0.763  0.00  0.00    +0.150 HD
BRANCH  15  18
ATOM     18  C   UNL     1     -12.013  -0.957  -0.790  0.00  0.00    +0.068 C 
ATOM     19  C   UNL     1     -12.440  -1.286   0.642  0.00  0.00    +0.027 C 
ATOM     20  C   UNL     1     -12.757   0.291  -1.271  0.00  0.00    +0.027 C 
ENDBRANCH  15  18
ENDBRANCH  11  12
ENDBRANCH   8  11
ENDBRANCH   2   5
BRANCH   1  22
ATOM     21  C   UNL     1      -0.019   1.526   0.010  0.00  0.00    +0.028 C 
ATOM     22  C   UNL     1       0.002  -0.004   0.002  0.00  0.00    +0.076 C 
BRANCH  22  23
ATOM     23  C   UNL     1       0.742  -0.511   1.242  0.00  0.00    -0.010 C 
ATOM     24  C   UNL     1       0.763  -2.041   1.233  0.00  0.00    +0.012 C 
ATOM     25  C   UNL     1       1.503  -2.548   2.473  0.00  0.00    -0.010 C 
ATOM     26  C   UNL     1       2.938  -2.018   2.462  0.00  0.00    +0.007 C 
ATOM     27  C   UNL     1       2.917  -0.488   2.470  0.00  0.00    -0.010 C 
ATOM     28  C   UNL     1       2.178   0.019   1.231  0.00  0.00    +0.012 C 
ATOM     29  C   UNL     1       2.201   0.005   3.729  0.00  0.00    +0.007 C 
ATOM     30  C   UNL     1       0.766  -0.524   3.740  0.00  0.00    -0.010 C 
ATOM     31  C   UNL     1       0.787  -2.054   3.732  0.00  0.00    +0.007 C 
ATOM     32  C   UNL     1       0.026  -0.018   2.500  0.00  0.00    +0.012 C 
ENDBRANCH  22  23
ENDBRANCH   1  22
TORSDOF 6
