REMARK  Name = ZINC36592792
REMARK  13 active torsions:
REMARK  status: ('A' for Active; 'I' for Inactive)
REMARK    1  A    between atoms: C_1  and  C_2
REMARK    2  A    between atoms: C_5  and  S_8
REMARK    3  A    between atoms: S_8  and  C_11
REMARK    4  A    between atoms: C_11  and  N_12
REMARK    5  A    between atoms: C_13  and  C_15
REMARK    6  A    between atoms: C_15  and  C_17
REMARK    7  A    between atoms: C_15  and  N_24
REMARK    8  A    between atoms: C_20  and  O_23
REMARK    9  A    between atoms: N_24  and  C_34
REMARK   10  A    between atoms: C_25  and  C_27
REMARK   11  A    between atoms: C_34  and  C_35
REMARK   12  A    between atoms: C_34  and  C_36
REMARK   13  A    between atoms: C_34  and  C_37
REMARK                            x       y       z     vdW  Elec       q    Type
REMARK                         _______ _______ _______ _____ _____    ______ ____
ROOT
ATOM      1  C   UNL     1       2.066  -7.970   3.714  0.00  0.00    +0.193 C 
ENDROOT
BRANCH   1   2
ATOM      2  C   UNL     1       1.244  -6.848   3.135  0.00  0.00    -0.018 A 
ATOM      3  C   UNL     1       0.575  -5.977   3.976  0.00  0.00    +0.009 A 
ATOM      4  C   UNL     1      -0.180  -4.948   3.448  0.00  0.00    +0.046 A 
ATOM      5  C   UNL     1      -0.267  -4.788   2.072  0.00  0.00    +0.117 A 
ATOM      6  C   UNL     1       0.405  -5.663   1.231  0.00  0.00    +0.046 A 
ATOM      7  C   UNL     1       1.163  -6.687   1.764  0.00  0.00    +0.009 A 
BRANCH   5   8
ATOM      8  O   UNL     1      -1.010  -3.777   1.551  0.00  0.00    -0.507 OA
ATOM      9  H   UNL     1      -0.517  -2.956   1.416  0.00  0.00    +0.292 HD
ENDBRANCH   5   8
ENDBRANCH   1   2
BRANCH   1  11
ATOM     10  N   UNL     1       0.810  -9.596   2.337  0.00  0.00    -0.294 N 
ATOM     11  C   UNL     1       1.332  -9.274   3.537  0.00  0.00    +0.239 C 
ATOM     12  O   UNL     1       1.211 -10.034   4.474  0.00  0.00    -0.273 OA
ATOM     13  H   UNL     1       0.907  -8.989   1.587  0.00  0.00    +0.150 HD
BRANCH  10  14
ATOM     14  C   UNL     1       0.096 -10.864   2.165  0.00  0.00    +0.278 C 
BRANCH  14  15
ATOM     15  S   UNL     1      -1.684 -10.590   2.381  0.00  0.00    +0.013 S 
ATOM     16  O   UNL     1      -1.921  -9.817   3.549  0.00  0.00    -0.168 OA
ATOM     17  O   UNL     1      -2.396 -11.799   2.155  0.00  0.00    -0.168 OA
BRANCH  15  22
ATOM     18  C   UNL     1      -3.269  -6.991  -2.195  0.00  0.00    +0.044 C 
ATOM     19  C   UNL     1      -2.873  -7.890  -1.052  0.00  0.00    -0.050 A 
ATOM     20  C   UNL     1      -2.920  -9.263  -1.204  0.00  0.00    +0.005 A 
ATOM     21  C   UNL     1      -2.557 -10.087  -0.156  0.00  0.00    +0.027 A 
ATOM     22  C   UNL     1      -2.146  -9.539   1.044  0.00  0.00    +0.090 A 
ATOM     23  C   UNL     1      -2.097  -8.166   1.196  0.00  0.00    +0.027 A 
ATOM     24  C   UNL     1      -2.457  -7.341   0.147  0.00  0.00    +0.005 A 
ENDBRANCH  15  22
ENDBRANCH  14  15
ENDBRANCH  10  14
ENDBRANCH   1  11
BRANCH   1  25
ATOM     25  N   UNL     1       2.290  -7.725   5.141  0.00  0.00    -0.277 N 
ATOM     26  C   UNL     1       1.417  -8.199   6.051  0.00  0.00    +0.249 C 
ATOM     27  O   UNL     1       0.234  -8.268   5.779  0.00  0.00    -0.270 OA
BRANCH  26  28
ATOM     28  C   UNL     1       1.896  -8.634   7.379  0.00  0.00    +0.055 A 
ATOM     29  C   UNL     1       3.153  -8.233   7.837  0.00  0.00    +0.014 A 
ATOM     30  C   UNL     1       3.594  -8.642   9.078  0.00  0.00    +0.001 A 
ATOM     31  C   UNL     1       2.796  -9.449   9.869  0.00  0.00    +0.001 A 
ATOM     32  C   UNL     1       1.550  -9.851   9.423  0.00  0.00    +0.021 A 
ATOM     33  C   UNL     1       1.093  -9.444   8.185  0.00  0.00    +0.053 A 
ATOM     34 CL   UNL     1      -0.474  -9.944   7.629  0.00  0.00    -0.083 Cl
ENDBRANCH  26  28
BRANCH  25  35
ATOM     35  C   UNL     1       3.464  -6.966   5.578  0.00  0.00    +0.030 C 
ATOM     36  C   UNL     1       3.860  -5.966   4.490  0.00  0.00    +0.031 C 
ATOM     37  C   UNL     1       3.132  -6.212   6.867  0.00  0.00    +0.031 C 
ATOM     38  C   UNL     1       4.627  -7.927   5.835  0.00  0.00    +0.031 C 
ENDBRANCH  25  35
ENDBRANCH   1  25
TORSDOF 9
