REMARK  Name = ZINC04468550
REMARK  5 active torsions:
REMARK  status: ('A' for Active; 'I' for Inactive)
REMARK    1  A    between atoms: C_1  and  C_2
REMARK    2  A    between atoms: C_9  and  C_11
REMARK    3  A    between atoms: C_11  and  N_12
REMARK    4  A    between atoms: C_15  and  C_19
REMARK    5  A    between atoms: C_15  and  C_20
REMARK                            x       y       z     vdW  Elec       q    Type
REMARK                         _______ _______ _______ _____ _____    ______ ____
ROOT
ATOM      1  N   UNL     1      -0.309  -1.240  -1.894  0.00  0.00    -0.215 N 
ATOM      2  C   UNL     1       0.645  -0.522  -1.269  0.00  0.00    +0.251 C 
ATOM      3  O   UNL     1       1.781  -0.329  -1.646  0.00  0.00    -0.272 OA
ATOM      4  C   UNL     1       0.002  -0.004   0.002  0.00  0.00    +0.135 C 
ATOM      5  N   UNL     1      -1.369  -0.541  -0.056  0.00  0.00    -0.281 N 
ATOM      6  C   UNL     1      -1.454  -1.247  -1.202  0.00  0.00    +0.310 C 
ATOM      7  O   UNL     1      -2.458  -1.828  -1.563  0.00  0.00    -0.252 OA
ATOM      8  C   UNL     1      -0.019   1.526   0.010  0.00  0.00    +0.047 C 
ATOM      9  H   UNL     1      -2.070  -0.410   0.601  0.00  0.00    +0.152 HD
ENDROOT
BRANCH   4  10
ATOM     10  C   UNL     1       0.726  -0.530   1.214  0.00  0.00    -0.015 A 
ATOM     11  C   UNL     1       2.086  -0.772   1.156  0.00  0.00    +0.007 A 
ATOM     12  C   UNL     1       2.752  -1.249   2.269  0.00  0.00    +0.020 A 
ATOM     13  C   UNL     1       2.055  -1.494   3.439  0.00  0.00    +0.041 A 
ATOM     14  C   UNL     1       0.694  -1.256   3.496  0.00  0.00    +0.020 A 
ATOM     15  C   UNL     1       0.030  -0.774   2.383  0.00  0.00    +0.007 A 
ATOM     16 CL   UNL     1       2.890  -2.100   4.836  0.00  0.00    -0.084 Cl
ENDBRANCH   4  10
BRANCH   1  17
ATOM     17  C   UNL     1      -0.117  -1.926  -3.174  0.00  0.00    +0.213 C 
BRANCH  17  25
ATOM     18  C   UNL     1       0.739  -7.916  -4.354  0.00  0.00    +0.009 C 
ATOM     19  C   UNL     1       0.178  -6.497  -4.468  0.00  0.00    +0.003 C 
ATOM     20  C   UNL     1       0.092  -6.099  -5.943  0.00  0.00    +0.006 C 
ATOM     21  C   UNL     1      -0.499  -4.692  -6.060  0.00  0.00    +0.019 C 
ATOM     22  C   UNL     1       0.417  -3.696  -5.343  0.00  0.00    +0.108 C 
ATOM     23  N   UNL     1       0.622  -4.151  -3.962  0.00  0.00    -0.300 N 
ATOM     24  C   UNL     1       1.108  -5.519  -3.733  0.00  0.00    +0.111 C 
ATOM     25  C   UNL     1       0.375  -3.328  -2.923  0.00  0.00    +0.234 C 
ATOM     26  O   UNL     1       0.548  -3.716  -1.787  0.00  0.00    -0.274 OA
ENDBRANCH  17  25
ENDBRANCH   1  17
TORSDOF 3
