REMARK  Name = ZINC60247207
REMARK  11 active torsions:
REMARK  status: ('A' for Active; 'I' for Inactive)
REMARK    1  A    between atoms: C_1  and  C_2
REMARK    2  A    between atoms: C_2  and  O_3
REMARK    3  A    between atoms: O_3  and  C_4
REMARK    4  A    between atoms: C_4  and  C_6
REMARK    5  A    between atoms: C_6  and  N_7
REMARK    6  A    between atoms: N_7  and  C_8
REMARK    7  A    between atoms: C_8  and  C_9
REMARK    8  A    between atoms: C_13  and  C_15
REMARK    9  A    between atoms: C_17  and  S_21
REMARK   10  A    between atoms: N_19  and  C_20
REMARK   11  A    between atoms: S_21  and  N_24
REMARK                            x       y       z     vdW  Elec       q    Type
REMARK                         _______ _______ _______ _____ _____    ______ ____
ROOT
ATOM      1  C   UNL     1       2.751  -6.310  -1.943  0.00  0.00    +0.106 A 
ATOM      2  C   UNL     1       3.754  -6.882  -1.189  0.00  0.00    +0.061 A 
ATOM      3  C   UNL     1       3.406  -8.221  -0.991  0.00  0.00    +0.124 A 
ATOM      4  C   UNL     1       2.223  -8.440  -1.614  0.00  0.00    +0.114 A 
ATOM      5  N   UNL     1       1.812  -7.285  -2.191  0.00  0.00    -0.344 N 
ATOM      6  C   UNL     1       0.575  -7.106  -2.955  0.00  0.00    +0.149 C 
ENDROOT
BRANCH   1   8
ATOM      7  N   UNL     1       3.774  -4.121  -2.270  0.00  0.00    -0.277 N 
ATOM      8  C   UNL     1       2.692  -4.915  -2.394  0.00  0.00    +0.264 C 
ATOM      9  O   UNL     1       1.667  -4.475  -2.879  0.00  0.00    -0.268 OA
BRANCH   7  10
ATOM     10  C   UNL     1       3.679  -2.697  -2.600  0.00  0.00    +0.228 C 
BRANCH  10  11
ATOM     11  C   UNL     1       4.011  -2.496  -4.056  0.00  0.00    +0.325 C 
ATOM     12  O   UNL     1       4.298  -3.445  -4.747  0.00  0.00    -0.249 OA
BRANCH  11  13
ATOM     13  O   UNL     1       3.988  -1.263  -4.585  0.00  0.00    -0.464 OA
BRANCH  13  15
ATOM     14  C   UNL     1       4.235   0.323  -6.392  0.00  0.00    +0.048 C 
ATOM     15  C   UNL     1       4.314  -1.146  -5.972  0.00  0.00    +0.229 C 
ENDBRANCH  13  15
ENDBRANCH  11  13
ENDBRANCH  10  11
ENDBRANCH   7  10
BRANCH   7  16
ATOM     16  C   UNL     1       5.045  -4.682  -1.805  0.00  0.00    +0.222 C 
BRANCH  16  17
ATOM     17  C   UNL     1       5.185  -4.450  -0.299  0.00  0.00    +0.405 C 
ATOM     18  F   UNL     1       4.050  -4.939   0.356  0.00  0.00    -0.169 F 
ATOM     19  F   UNL     1       6.320  -5.118   0.173  0.00  0.00    -0.169 F 
ATOM     20  F   UNL     1       5.313  -3.079  -0.049  0.00  0.00    -0.169 F 
ENDBRANCH  16  17
ENDBRANCH   7  16
ENDBRANCH   1   8
BRANCH   3  21
ATOM     21  S   UNL     1       4.341  -9.414  -0.091  0.00  0.00    +0.062 S 
ATOM     22  O   UNL     1       3.960 -10.689  -0.590  0.00  0.00    -0.153 OA
ATOM     23  O   UNL     1       5.689  -8.964  -0.101  0.00  0.00    -0.153 OA
BRANCH  21  24
ATOM     24  N   UNL     1       3.831  -9.349   1.483  0.00  0.00    -0.177 NA
ATOM     25  C   UNL     1       4.474  -8.440   2.441  0.00  0.00    +0.109 C 
ATOM     26  C   UNL     1       3.396  -7.575   3.100  0.00  0.00    +0.017 C 
ATOM     27  C   UNL     1       2.325  -8.480   3.713  0.00  0.00    +0.003 C 
ATOM     28  C   UNL     1       1.668  -9.315   2.612  0.00  0.00    +0.017 C 
ATOM     29  C   UNL     1       2.723 -10.196   1.946  0.00  0.00    +0.109 C 
ENDBRANCH  21  24
ENDBRANCH   3  21
TORSDOF 9
