REMARK  Name = ZINC22018749
REMARK  12 active torsions:
REMARK  status: ('A' for Active; 'I' for Inactive)
REMARK    1  A    between atoms: C_1  and  C_2
REMARK    2  A    between atoms: C_2  and  O_3
REMARK    3  A    between atoms: O_3  and  C_4
REMARK    4  A    between atoms: C_4  and  C_6
REMARK    5  A    between atoms: C_9  and  O_12
REMARK    6  A    between atoms: O_12  and  C_13
REMARK    7  A    between atoms: C_13  and  C_14
REMARK    8  A    between atoms: C_14  and  C_16
REMARK    9  A    between atoms: C_14  and  O_32
REMARK   10  A    between atoms: C_16  and  N_17
REMARK   11  A    between atoms: C_20  and  C_24
REMARK   12  A    between atoms: C_20  and  C_25
REMARK                            x       y       z     vdW  Elec       q    Type
REMARK                         _______ _______ _______ _____ _____    ______ ____
ROOT
ATOM      1  C   UNL     1       1.720   3.289   0.002  0.00  0.00    +0.152 C 
ENDROOT
BRANCH   1   2
ATOM      2  N   UNL     1       1.274   1.894   0.000  0.00  0.00    -0.221 N 
ATOM      3  C   UNL     1      -0.018   1.512   0.010  0.00  0.00    +0.251 C 
ATOM      4  O   UNL     1      -0.995   2.231   0.019  0.00  0.00    -0.272 OA
ATOM      5  C   UNL     1       0.002  -0.004   0.002  0.00  0.00    +0.135 C 
ATOM      6  N   UNL     1       1.438  -0.331  -0.013  0.00  0.00    -0.281 N 
ATOM      7  C   UNL     1       2.099   0.841  -0.013  0.00  0.00    +0.310 C 
ATOM      8  O   UNL     1       3.311   0.933  -0.025  0.00  0.00    -0.252 OA
ATOM      9  C   UNL     1      -0.686  -0.545  -1.253  0.00  0.00    +0.047 C 
ATOM     10  H   UNL     1       1.763  -1.382  -0.022  0.00  0.00    +0.152 HD
BRANCH   5  11
ATOM     11  C   UNL     1      -0.652  -0.550   1.245  0.00  0.00    -0.015 A 
ATOM     12  C   UNL     1      -1.662   0.163   1.864  0.00  0.00    +0.009 A 
ATOM     13  C   UNL     1      -2.266  -0.339   3.001  0.00  0.00    +0.039 A 
ATOM     14  C   UNL     1      -1.853  -1.552   3.526  0.00  0.00    +0.123 A 
ATOM     15  C   UNL     1      -0.839  -2.263   2.908  0.00  0.00    +0.039 A 
ATOM     16  C   UNL     1      -0.239  -1.761   1.768  0.00  0.00    +0.009 A 
ATOM     17  F   UNL     1      -2.440  -2.041   4.640  0.00  0.00    -0.205 F 
ENDBRANCH   5  11
ENDBRANCH   1   2
BRANCH   1  18
ATOM     18  C   UNL     1       1.888   3.768   1.446  0.00  0.00    +0.170 C 
BRANCH  18  19
ATOM     19  O   UNL     1       2.942   3.034   2.071  0.00  0.00    -0.387 OA
ATOM     20  H   UNL     1       2.872   1.940   2.161  0.00  0.00    +0.210 HD
ENDBRANCH  18  19
BRANCH  18  21
ATOM     21  C   UNL     1       2.232   5.259   1.451  0.00  0.00    +0.261 C 
BRANCH  21  22
ATOM     22  O   UNL     1       2.276   5.733   2.798  0.00  0.00    -0.489 OA
BRANCH  22  26
ATOM     23  C   UNL     1       3.171   9.724   3.353  0.00  0.00    +0.059 A 
ATOM     24  C   UNL     1       2.926   8.901   4.456  0.00  0.00    +0.018 A 
ATOM     25  C   UNL     1       2.627   7.570   4.267  0.00  0.00    +0.046 A 
ATOM     26  C   UNL     1       2.570   7.045   2.981  0.00  0.00    +0.121 A 
ATOM     27  C   UNL     1       2.818   7.859   1.882  0.00  0.00    +0.046 A 
ATOM     28  C   UNL     1       3.111   9.192   2.062  0.00  0.00    +0.018 A 
BRANCH  23  29
ATOM     29  C   UNL     1       3.491  11.150   3.552  0.00  0.00    +0.339 C 
ATOM     30  O   UNL     1       3.543  11.610   4.675  0.00  0.00    -0.245 OA
BRANCH  29  31
ATOM     31  O   UNL     1       3.727  11.942   2.487  0.00  0.00    -0.461 OA
BRANCH  31  33
ATOM     32  C   UNL     1       4.272  14.070   1.437  0.00  0.00    +0.048 C 
ATOM     33  C   UNL     1       4.037  13.335   2.757  0.00  0.00    +0.229 C 
ENDBRANCH  31  33
ENDBRANCH  29  31
ENDBRANCH  23  29
ENDBRANCH  22  26
ENDBRANCH  21  22
ENDBRANCH  18  21
ENDBRANCH   1  18
TORSDOF 10
