REMARK  Name = ZINC17245866
REMARK  10 active torsions:
REMARK  status: ('A' for Active; 'I' for Inactive)
REMARK    1  A    between atoms: C_1  and  N_62
REMARK    2  A    between atoms: C_8  and  O_32
REMARK    3  A    between atoms: C_10  and  C_12
REMARK    4  A    between atoms: C_12  and  N_13
REMARK    5  A    between atoms: C_14  and  C_15
REMARK    6  A    between atoms: C_19  and  S_31
REMARK    7  A    between atoms: N_20  and  C_23
REMARK    8  A    between atoms: C_26  and  O_29
REMARK    9  A    between atoms: O_29  and  C_30
REMARK   10  A    between atoms: O_32  and  C_33
REMARK                            x       y       z     vdW  Elec       q    Type
REMARK                         _______ _______ _______ _____ _____    ______ ____
ROOT
ATOM      1  N   UNL     1      -0.511   1.827  -1.763  0.00  0.00    -0.296 NA
ATOM      2  C   UNL     1      -1.644   2.288  -1.196  0.00  0.00    +0.099 C 
ENDROOT
BRANCH   2   3
ATOM      3  C   UNL     1      -1.715   3.596  -0.758  0.00  0.00    +0.204 C 
ATOM      4  C   UNL     1      -2.920   4.119  -0.081  0.00  0.00    +0.255 C 
ATOM      5  O   UNL     1      -3.889   3.403   0.109  0.00  0.00    -0.272 OA
ATOM      6  N   UNL     1      -2.923   5.399   0.319  0.00  0.00    -0.158 NA
ATOM      7  C   UNL     1      -1.893   6.191   0.126  0.00  0.00    +0.157 C 
ATOM      8  N   UNL     1      -0.742   5.794  -0.489  0.00  0.00    -0.220 N 
ATOM      9  C   UNL     1      -0.592   4.530  -0.940  0.00  0.00    +0.243 C 
ATOM     10  O   UNL     1       0.438   4.176  -1.484  0.00  0.00    -0.274 OA
BRANCH   8  11
ATOM     11  C   UNL     1       0.306   6.713  -0.649  0.00  0.00    +0.043 A 
ATOM     12  C   UNL     1       1.351   6.740   0.264  0.00  0.00    +0.027 A 
ATOM     13  C   UNL     1       2.385   7.641   0.102  0.00  0.00    +0.047 A 
ATOM     14  C   UNL     1       2.374   8.525  -0.966  0.00  0.00    +0.120 A 
ATOM     15  C   UNL     1       1.327   8.502  -1.876  0.00  0.00    +0.047 A 
ATOM     16  C   UNL     1       0.295   7.598  -1.719  0.00  0.00    +0.027 A 
BRANCH  14  17
ATOM     17  O   UNL     1       3.390   9.416  -1.122  0.00  0.00    -0.495 OA
ATOM     18  C   UNL     1       4.435   9.384  -0.148  0.00  0.00    +0.277 C 
ENDBRANCH  14  17
ENDBRANCH   8  11
BRANCH   7  19
ATOM     19  S   UNL     1      -2.003   7.856   0.693  0.00  0.00    -0.110 S 
ATOM     20  H   UNL     1      -3.302   7.841   1.242  0.00  0.00    +0.110 HD
ENDBRANCH   7  19
ENDBRANCH   2   3
BRANCH   1  21
ATOM     21  C   UNL     1      -0.435   0.440  -2.228  0.00  0.00    +0.130 C 
BRANCH  21  31
ATOM     22  C   UNL     1       1.969  -0.493  -0.884  0.00  0.00    -0.095 C 
ATOM     23  C   UNL     1       3.290   0.421  -2.699  0.00  0.00    -0.074 C 
ATOM     24  C   UNL     1       3.404   1.662  -3.585  0.00  0.00    +0.017 C 
ATOM     25  C   UNL     1       2.163   1.806  -4.429  0.00  0.00    -0.040 A 
ATOM     26  C   UNL     1       2.211   2.642  -5.535  0.00  0.00    +0.053 A 
ATOM     27  C   UNL     1       1.095   2.813  -6.336  0.00  0.00    +0.170 A 
ATOM     28  C   UNL     1      -0.083   2.139  -6.030  0.00  0.00    +0.208 A 
ATOM     29  C   UNL     1      -0.127   1.302  -4.924  0.00  0.00    +0.167 A 
ATOM     30  C   UNL     1       0.998   1.134  -4.123  0.00  0.00    -0.011 A 
ATOM     31  C   UNL     1       0.901   0.211  -2.937  0.00  0.00    -0.012 C 
ATOM     32  O   UNL     1      -1.029   2.469  -6.958  0.00  0.00    -0.449 OA
ATOM     33  C   UNL     1      -0.300   3.030  -8.066  0.00  0.00    +0.467 C 
ATOM     34  O   UNL     1       0.889   3.565  -7.457  0.00  0.00    -0.452 OA
ATOM     35  N   UNL     1       1.995   0.489  -1.991  0.00  0.00    +0.384 N 
ATOM     36  H   UNL     1       1.873   1.432  -1.604  0.00  0.00    -0.081 HD
BRANCH  29  37
ATOM     37  O   UNL     1      -1.277   0.642  -4.622  0.00  0.00    -0.491 OA
ATOM     38  C   UNL     1      -1.504  -0.603  -5.286  0.00  0.00    +0.277 C 
ENDBRANCH  29  37
ENDBRANCH  21  31
ENDBRANCH   1  21
TORSDOF 7
