REMARK  Name = ZINC44452707
REMARK  7 active torsions:
REMARK  status: ('A' for Active; 'I' for Inactive)
REMARK    1  A    between atoms: C_1  and  N_2
REMARK    2  A    between atoms: N_2  and  C_3
REMARK    3  A    between atoms: C_7  and  C_9
REMARK    4  A    between atoms: C_13  and  N_14
REMARK    5  A    between atoms: C_15  and  C_17
REMARK    6  A    between atoms: C_20  and  S_23
REMARK    7  A    between atoms: S_23  and  N_26
REMARK                            x       y       z     vdW  Elec       q    Type
REMARK                         _______ _______ _______ _____ _____    ______ ____
ROOT
ATOM      1  N   UNL     1       2.516  -4.349  -2.381  0.00  0.00    -0.275 N 
ATOM      2  C   UNL     1       3.570  -5.189  -2.396  0.00  0.00    +0.249 C 
ATOM      3  O   UNL     1       3.389  -6.391  -2.401  0.00  0.00    -0.270 OA
ATOM      4  H   UNL     1       2.661  -3.390  -2.377  0.00  0.00    +0.156 HD
ENDROOT
BRANCH   1   9
ATOM      5  C   UNL     1       0.036  -4.152  -2.355  0.00  0.00    +0.069 A 
ATOM      6  C   UNL     1      -1.202  -4.930  -2.353  0.00  0.00    -0.023 A 
ATOM      7  C   UNL     1      -1.013  -6.261  -2.360  0.00  0.00    -0.004 A 
ATOM      8  S   UNL     1       0.751  -6.464  -2.372  0.00  0.00    -0.077 S 
ATOM      9  C   UNL     1       1.227  -4.856  -2.371  0.00  0.00    +0.085 A 
ATOM     10  C   UNL     1      -2.316  -7.013  -2.354  0.00  0.00    +0.043 C 
ATOM     11  C   UNL     1      -3.366  -5.971  -1.908  0.00  0.00    +0.010 C 
ATOM     12  C   UNL     1      -2.703  -4.649  -2.348  0.00  0.00    +0.037 C 
BRANCH   5  19
ATOM     13  C   UNL     1      -0.018   1.461   0.010  0.00  0.00    +0.133 C 
ATOM     14  N   UNL     1       0.002  -0.004   0.002  0.00  0.00    -0.291 N 
ATOM     15  C   UNL     1       0.024  -0.743   1.267  0.00  0.00    +0.133 C 
ATOM     16  C   UNL     1       0.000  -0.672  -1.169  0.00  0.00    +0.308 C 
ATOM     17  O   UNL     1      -0.018  -0.058  -2.218  0.00  0.00    -0.252 OA
ATOM     18  N   UNL     1       0.018  -2.019  -1.176  0.00  0.00    -0.236 N 
ATOM     19  C   UNL     1       0.016  -2.687  -2.347  0.00  0.00    +0.254 C 
ATOM     20  O   UNL     1      -0.002  -2.073  -3.397  0.00  0.00    -0.270 OA
ATOM     21  H   UNL     1       0.033  -2.509  -0.339  0.00  0.00    +0.159 HD
ENDBRANCH   5  19
ENDBRANCH   1   9
BRANCH   2  22
ATOM     22  C   UNL     1       4.946  -4.649  -2.407  0.00  0.00    +0.037 A 
ATOM     23  C   UNL     1       5.157  -3.269  -2.396  0.00  0.00    +0.015 A 
ATOM     24  C   UNL     1       6.444  -2.771  -2.406  0.00  0.00    +0.029 A 
ATOM     25  C   UNL     1       7.523  -3.636  -2.427  0.00  0.00    +0.106 A 
ATOM     26  C   UNL     1       7.321  -5.005  -2.438  0.00  0.00    +0.029 A 
ATOM     27  C   UNL     1       6.040  -5.516  -2.422  0.00  0.00    +0.015 A 
BRANCH  25  28
ATOM     28  S   UNL     1       9.163  -2.992  -2.440  0.00  0.00    +0.061 S 
ATOM     29  O   UNL     1       9.990  -3.998  -3.011  0.00  0.00    -0.153 OA
ATOM     30  O   UNL     1       9.079  -1.679  -2.978  0.00  0.00    -0.153 OA
BRANCH  28  31
ATOM     31  N   UNL     1       9.638  -2.828  -0.862  0.00  0.00    -0.177 NA
ATOM     32  C   UNL     1       9.441  -1.634  -0.028  0.00  0.00    +0.109 C 
ATOM     33  C   UNL     1      10.064  -1.931   1.352  0.00  0.00    +0.018 C 
ATOM     34  C   UNL     1      11.076  -3.065   1.039  0.00  0.00    +0.018 C 
ATOM     35  C   UNL     1      10.322  -3.858  -0.059  0.00  0.00    +0.109 C 
ENDBRANCH  28  31
ENDBRANCH  25  28
ENDBRANCH   2  22
TORSDOF 5
