REMARK  Name = ZINC14529209
REMARK  8 active torsions:
REMARK  status: ('A' for Active; 'I' for Inactive)
REMARK    1  A    between atoms: C_1  and  C_2
REMARK    2  A    between atoms: C_11  and  O_13
REMARK    3  A    between atoms: O_13  and  C_14
REMARK    4  A    between atoms: C_14  and  C_15
REMARK    5  A    between atoms: C_20  and  C_23
REMARK    6  A    between atoms: C_23  and  N_58
REMARK    7  A    between atoms: C_25  and  C_32
REMARK    8  A    between atoms: C_28  and  C_31
REMARK                            x       y       z     vdW  Elec       q    Type
REMARK                         _______ _______ _______ _____ _____    ______ ____
ROOT
ATOM      1  C   UNL     1       2.511   3.921  -0.001  0.00  0.00    +0.256 C 
ATOM      2  O   UNL     1       3.480   3.192  -0.014  0.00  0.00    -0.272 OA
ATOM      3  N   UNL     1       1.271   3.393   0.008  0.00  0.00    -0.262 N 
ATOM      4  C   UNL     1       1.103   2.013   0.002  0.00  0.00    +0.165 A 
ATOM      5  N   UNL     1      -0.016   1.314   0.009  0.00  0.00    -0.231 NA
ATOM      6  C   UNL     1       0.002  -0.004   0.002  0.00  0.00    +0.034 A 
ATOM      7  C   UNL     1       1.202  -0.634  -0.013  0.00  0.00    +0.070 A 
ATOM      8  S   UNL     1       2.312   0.767  -0.016  0.00  0.00    -0.060 S 
ATOM      9  H   UNL     1       0.495   3.976   0.019  0.00  0.00    +0.157 HD
ENDROOT
BRANCH   1  10
ATOM     10  C   UNL     1       2.693   5.417   0.005  0.00  0.00    +0.324 C 
BRANCH  10  11
ATOM     11  O   UNL     1       4.088   5.727  -0.006  0.00  0.00    -0.483 OA
BRANCH  11  22
ATOM     12  C   UNL     1       4.426  12.221   0.024  0.00  0.00    +0.045 C 
ATOM     13  C   UNL     1       5.476  11.139   0.009  0.00  0.00    -0.033 A 
ATOM     14  C   UNL     1       6.798  11.450  -0.002  0.00  0.00    +0.096 A 
ATOM     15  C   UNL     1       7.761  10.420  -0.016  0.00  0.00    +0.337 A 
ATOM     16  O   UNL     1       8.943  10.713  -0.025  0.00  0.00    -0.245 OA
ATOM     17  O   UNL     1       7.408   9.125  -0.020  0.00  0.00    -0.422 OA
ATOM     18  C   UNL     1       6.111   8.748  -0.010  0.00  0.00    +0.143 A 
ATOM     19  C   UNL     1       5.098   9.725   0.005  0.00  0.00    +0.021 A 
ATOM     20  C   UNL     1       3.753   9.338   0.016  0.00  0.00    +0.015 A 
ATOM     21  C   UNL     1       3.428   8.012   0.007  0.00  0.00    +0.046 A 
ATOM     22  C   UNL     1       4.427   7.041  -0.002  0.00  0.00    +0.125 A 
ATOM     23  C   UNL     1       5.763   7.406  -0.013  0.00  0.00    +0.092 A 
ENDBRANCH  11  22
ENDBRANCH  10  11
ENDBRANCH   1  10
BRANCH   6  24
ATOM     24  C   UNL     1      -1.282  -0.792   0.011  0.00  0.00    -0.022 C 
BRANCH  24  32
ATOM     25  C   UNL     1      -0.819  -1.782   2.171  0.00  0.00    -0.075 C 
ATOM     26  C   UNL     1      -1.258  -1.807   3.637  0.00  0.00    -0.031 C 
ATOM     27  C   UNL     1      -2.677  -2.375   3.730  0.00  0.00    +0.003 C 
ATOM     28  C   UNL     1      -3.617  -1.522   2.873  0.00  0.00    -0.031 C 
ATOM     29  C   UNL     1      -3.109  -1.505   1.430  0.00  0.00    -0.075 C 
ATOM     30  C   UNL     1      -5.026  -2.118   2.913  0.00  0.00    +0.005 C 
ATOM     31  C   UNL     1      -1.239  -0.385   4.200  0.00  0.00    +0.005 C 
ATOM     32  N   UNL     1      -1.750  -0.925   1.406  0.00  0.00    +0.384 N 
ATOM     33  H   UNL     1      -1.777   0.006   1.838  0.00  0.00    -0.081 HD
ENDBRANCH  24  32
ENDBRANCH   6  24
TORSDOF 5
