REMARK  Name = ZINC13141534
REMARK  10 active torsions:
REMARK  status: ('A' for Active; 'I' for Inactive)
REMARK    1  A    between atoms: C_1  and  C_2
REMARK    2  A    between atoms: C_2  and  O_3
REMARK    3  A    between atoms: O_3  and  C_4
REMARK    4  A    between atoms: C_4  and  C_6
REMARK    5  A    between atoms: C_7  and  C_32
REMARK    6  A    between atoms: C_13  and  C_17
REMARK    7  A    between atoms: C_17  and  C_19
REMARK    8  A    between atoms: C_17  and  S_20
REMARK    9  A    between atoms: S_20  and  C_21
REMARK   10  A    between atoms: C_23  and  C_31
REMARK                            x       y       z     vdW  Elec       q    Type
REMARK                         _______ _______ _______ _____ _____    ______ ____
ROOT
ATOM      1  C   UNL     1       2.812  -9.073   0.256  0.00  0.00    +0.102 A 
ATOM      2  C   UNL     1       3.761  -8.348  -0.405  0.00  0.00    -0.015 A 
ATOM      3  C   UNL     1       3.699  -6.953  -0.400  0.00  0.00    +0.076 A 
ATOM      4  C   UNL     1       4.606  -5.973  -1.040  0.00  0.00    +0.260 A 
ATOM      5  O   UNL     1       5.572  -6.344  -1.684  0.00  0.00    -0.267 OA
ATOM      6  N   UNL     1       4.337  -4.662  -0.891  0.00  0.00    -0.309 N 
ATOM      7  H   UNL     1       4.922  -4.007  -1.304  0.00  0.00    +0.170 HD
ATOM      8  C   UNL     1       3.267  -4.238  -0.175  0.00  0.00    +0.124 A 
ATOM      9  N   UNL     1       2.450  -5.075   0.406  0.00  0.00    -0.225 NA
ATOM     10  C   UNL     1       2.620  -6.387   0.318  0.00  0.00    +0.116 A 
ATOM     11  S   UNL     1       1.755  -7.807   0.940  0.00  0.00    -0.062 S 
ATOM     12  C   UNL     1       4.872  -9.052  -1.141  0.00  0.00    +0.046 C 
ENDROOT
BRANCH   1  13
ATOM     13  C   UNL     1       2.691 -10.527   0.376  0.00  0.00    +0.346 C 
ATOM     14  O   UNL     1       3.508 -11.251  -0.161  0.00  0.00    -0.244 OA
BRANCH  13  15
ATOM     15  O   UNL     1       1.674 -11.064   1.080  0.00  0.00    -0.461 OA
BRANCH  15  17
ATOM     16  C   UNL     1       0.405 -12.932   1.990  0.00  0.00    +0.048 C 
ATOM     17  C   UNL     1       1.617 -12.513   1.157  0.00  0.00    +0.229 C 
ENDBRANCH  15  17
ENDBRANCH  13  15
ENDBRANCH   1  13
BRANCH   8  18
ATOM     18  C   UNL     1       3.015  -2.758  -0.041  0.00  0.00    +0.116 C 
ATOM     19  C   UNL     1       3.635  -2.252   1.263  0.00  0.00    +0.027 C 
BRANCH  18  20
ATOM     20  S   UNL     1       1.232  -2.448  -0.022  0.00  0.00    -0.095 S 
BRANCH  20  21
ATOM     21  C   UNL     1       1.228  -0.686  -0.013  0.00  0.00    +0.099 A 
ATOM     22  C   UNL     1       0.002  -0.004   0.002  0.00  0.00    +0.038 A 
ATOM     23  C   UNL     1      -0.016   1.358   0.009  0.00  0.00    -0.039 A 
ATOM     24  C   UNL     1       1.216   2.043   0.001  0.00  0.00    +0.003 A 
ATOM     25  C   UNL     1       1.269   3.445   0.008  0.00  0.00    +0.010 A 
ATOM     26  C   UNL     1       2.478   4.074  -0.001  0.00  0.00    +0.001 A 
ATOM     27  C   UNL     1       3.663   3.342  -0.016  0.00  0.00    +0.002 A 
ATOM     28  C   UNL     1       3.648   1.981  -0.022  0.00  0.00    +0.028 A 
ATOM     29  C   UNL     1       2.420   1.297  -0.014  0.00  0.00    +0.072 A 
ATOM     30  N   UNL     1       2.376  -0.040  -0.021  0.00  0.00    -0.240 NA
ATOM     31  C   UNL     1      -1.321   2.113   0.020  0.00  0.00    +0.044 C 
ENDBRANCH  20  21
ENDBRANCH  18  20
ENDBRANCH   8  18
TORSDOF 6
