REMARK  Name = ZINC37034029
REMARK  6 active torsions:
REMARK  status: ('A' for Active; 'I' for Inactive)
REMARK    1  A    between atoms: C_1  and  C_2
REMARK    2  A    between atoms: C_2  and  C_3
REMARK    3  A    between atoms: C_2  and  C_4
REMARK    4  A    between atoms: C_4  and  C_6
REMARK    5  A    between atoms: C_4  and  N_22
REMARK    6  A    between atoms: N_8  and  C_9
REMARK                            x       y       z     vdW  Elec       q    Type
REMARK                         _______ _______ _______ _____ _____    ______ ____
ROOT
ATOM      1  C   UNL     1       4.409  -0.461  -0.508  0.00  0.00    +0.049 A 
ATOM      2  C   UNL     1       4.938   0.182  -1.618  0.00  0.00    +0.052 A 
ATOM      3  C   UNL     1       6.285   0.501  -1.651  0.00  0.00    +0.069 A 
ATOM      4  C   UNL     1       7.106   0.176  -0.569  0.00  0.00    +0.068 A 
ATOM      5  C   UNL     1       6.572  -0.466   0.537  0.00  0.00    +0.045 A 
ATOM      6  C   UNL     1       5.227  -0.778   0.571  0.00  0.00    +0.041 A 
ATOM      7 BR   UNL     1       4.498  -1.646   2.084  0.00  0.00    -0.048 Br
ATOM      8  N   UNL     1       8.390   0.617  -0.891  0.00  0.00    -0.306 N 
ATOM      9  H   UNL     1       9.177   0.530  -0.331  0.00  0.00    +0.170 HD
ATOM     10  C   UNL     1       8.350   1.183  -2.112  0.00  0.00    +0.325 A 
ATOM     11  O   UNL     1       9.303   1.670  -2.690  0.00  0.00    -0.247 OA
ATOM     12  N   UNL     1       7.095   1.129  -2.596  0.00  0.00    -0.306 N 
ATOM     13  H   UNL     1       6.803   1.469  -3.457  0.00  0.00    +0.170 HD
ENDROOT
BRANCH   1  16
ATOM     14  C   UNL     1       2.166  -0.081  -1.210  0.00  0.00    +0.203 C 
ATOM     15  O   UNL     1       2.536   0.894  -1.829  0.00  0.00    -0.277 OA
ATOM     16  N   UNL     1       3.046  -0.785  -0.471  0.00  0.00    -0.286 N 
ATOM     17  H   UNL     1       2.736  -1.516   0.086  0.00  0.00    +0.155 HD
BRANCH  14  18
ATOM     18  C   UNL     1       0.721  -0.506  -1.268  0.00  0.00    +0.016 C 
BRANCH  18  19
ATOM     19  N   UNL     1       0.086   0.078  -2.457  0.00  0.00    +0.386 N 
ATOM     20  H   UNL     1      -0.881  -0.207  -2.496  0.00  0.00    -0.089 HD
ATOM     21  H   UNL     1       0.139   1.084  -2.406  0.00  0.00    -0.089 HD
ATOM     22  H   UNL     1       0.564  -0.242  -3.286  0.00  0.00    -0.089 HD
ENDBRANCH  18  19
BRANCH  18  24
ATOM     23  C   UNL     1      -0.033   1.509   0.002  0.00  0.00    +0.006 C 
ATOM     24  C   UNL     1      -0.004  -0.021  -0.012  0.00  0.00    -0.023 C 
ATOM     25  C   UNL     1      -1.437  -0.558  -0.010  0.00  0.00    +0.006 C 
ENDBRANCH  18  24
ENDBRANCH  14  18
ENDBRANCH   1  16
TORSDOF 4
