REMARK  Name = ZINC13064706
REMARK  12 active torsions:
REMARK  status: ('A' for Active; 'I' for Inactive)
REMARK    1  A    between atoms: C_1  and  C_2
REMARK    2  A    between atoms: C_2  and  C_3
REMARK    3  A    between atoms: C_3  and  C_5
REMARK    4  A    between atoms: C_3  and  N_65
REMARK    5  A    between atoms: N_9  and  C_10
REMARK    6  A    between atoms: C_10  and  C_11
REMARK    7  A    between atoms: C_16  and  C_17
REMARK    8  A    between atoms: C_16  and  N_65
REMARK    9  A    between atoms: C_23  and  C_24
REMARK   10  A    between atoms: C_23  and  N_65
REMARK   11  A    between atoms: C_28  and  C_37
REMARK   12  A    between atoms: C_29  and  C_36
REMARK                            x       y       z     vdW  Elec       q    Type
REMARK                         _______ _______ _______ _____ _____    ______ ____
ROOT
ATOM      1  N   UNL     1      -5.106   3.181  -0.684  0.00  0.00    +0.392 N 
ATOM      2  H   UNL     1      -4.710   2.318  -1.075  0.00  0.00    -0.080 HD
ENDROOT
BRANCH   1   3
ATOM      3  C   UNL     1      -6.578   3.132  -0.807  0.00  0.00    +0.003 C 
BRANCH   3   4
ATOM      4  C   UNL     1      -7.162   4.518  -0.707  0.00  0.00    +0.139 A 
ATOM      5  N   UNL     1      -6.991   5.502  -1.556  0.00  0.00    -0.115 NA
ATOM      6  N   UNL     1      -7.651   6.520  -1.123  0.00  0.00    -0.023 NA
ATOM      7  N   UNL     1      -8.232   6.214  -0.016  0.00  0.00    -0.044 NA
ATOM      8  N   UNL     1      -7.954   4.988   0.274  0.00  0.00    -0.223 N 
BRANCH   8   9
ATOM      9  C   UNL     1      -8.414   4.246   1.451  0.00  0.00    +0.221 C 
BRANCH   9  10
ATOM     10  C   UNL     1      -7.521   4.560   2.623  0.00  0.00    +0.126 A 
ATOM     11  C   UNL     1      -7.701   5.561   3.504  0.00  0.00    +0.046 A 
ATOM     12  C   UNL     1      -6.638   5.486   4.433  0.00  0.00    +0.041 A 
ATOM     13  C   UNL     1      -5.867   4.449   4.060  0.00  0.00    +0.195 A 
ATOM     14  O   UNL     1      -6.407   3.892   2.963  0.00  0.00    -0.466 OA
ENDBRANCH   9  10
ENDBRANCH   8   9
ENDBRANCH   3   4
BRANCH   3  16
ATOM     15  C   UNL     1      -6.404   1.092  -2.239  0.00  0.00    +0.002 C 
ATOM     16  C   UNL     1      -6.936   2.524  -2.165  0.00  0.00    -0.011 C 
ENDBRANCH   3  16
ENDBRANCH   1   3
BRANCH   1  17
ATOM     17  C   UNL     1      -4.575   4.337  -1.436  0.00  0.00    -0.040 C 
BRANCH  17  18
ATOM     18  C   UNL     1      -4.629   4.022  -2.909  0.00  0.00    -0.046 A 
ATOM     19  C   UNL     1      -4.071   2.851  -3.398  0.00  0.00    +0.005 A 
ATOM     20  C   UNL     1      -4.148   2.601  -4.759  0.00  0.00    +0.020 A 
ATOM     21  C   UNL     1      -4.767   3.525  -5.579  0.00  0.00    +0.111 A 
ATOM     22  N   UNL     1      -5.283   4.631  -5.080  0.00  0.00    -0.263 NA
ATOM     23  C   UNL     1      -5.232   4.899  -3.790  0.00  0.00    +0.112 A 
ENDBRANCH  17  18
ENDBRANCH   1  17
BRANCH   1  24
ATOM     24  C   UNL     1      -4.721   3.284   0.739  0.00  0.00    -0.036 C 
BRANCH  24  25
ATOM     25  C   UNL     1      -3.255   2.962   0.869  0.00  0.00    +0.001 A 
ATOM     26  C   UNL     1      -2.344   3.966   0.904  0.00  0.00    +0.017 A 
ATOM     27  C   UNL     1      -0.926   3.620   1.024  0.00  0.00    -0.001 A 
ATOM     28  C   UNL     1       0.061   4.611   1.048  0.00  0.00    +0.013 A 
ATOM     29  C   UNL     1       1.375   4.256   1.161  0.00  0.00    -0.047 A 
ATOM     30  C   UNL     1       1.740   2.919   1.253  0.00  0.00    -0.046 A 
ATOM     31  C   UNL     1       0.784   1.926   1.232  0.00  0.00    +0.030 A 
ATOM     32  C   UNL     1      -0.560   2.264   1.112  0.00  0.00    +0.049 A 
ATOM     33  N   UNL     1      -1.536   1.291   1.082  0.00  0.00    -0.322 N 
ATOM     34  H   UNL     1      -1.283   0.357   1.147  0.00  0.00    +0.169 HD
ATOM     35  C   UNL     1      -2.835   1.618   0.966  0.00  0.00    +0.251 A 
ATOM     36  O   UNL     1      -3.671   0.732   0.942  0.00  0.00    -0.268 OA
ATOM     37  C   UNL     1       3.196   2.550   1.377  0.00  0.00    +0.044 C 
ATOM     38  C   UNL     1       2.438   5.323   1.186  0.00  0.00    +0.044 C 
ENDBRANCH  24  25
ENDBRANCH   1  24
TORSDOF 9
