REMARK  Name = ZINC15936149
REMARK  9 active torsions:
REMARK  status: ('A' for Active; 'I' for Inactive)
REMARK    1  A    between atoms: C_1  and  C_2
REMARK    2  A    between atoms: C_2  and  C_3
REMARK    3  A    between atoms: C_8  and  C_27
REMARK    4  A    between atoms: C_9  and  C_26
REMARK    5  A    between atoms: C_12  and  S_13
REMARK    6  A    between atoms: S_13  and  C_14
REMARK    7  A    between atoms: C_14  and  C_15
REMARK    8  A    between atoms: N_17  and  N_18
REMARK    9  A    between atoms: C_19  and  C_21
REMARK                            x       y       z     vdW  Elec       q    Type
REMARK                         _______ _______ _______ _____ _____    ______ ____
ROOT
ATOM      1  S   UNL     1      -1.311  -0.397  -2.755  0.00  0.00    -0.096 S 
ENDROOT
BRANCH   1  11
ATOM      2  C   UNL     1      -1.303  -0.946  -0.074  0.00  0.00    -0.015 A 
ATOM      3  C   UNL     1      -1.885  -1.295   1.107  0.00  0.00    +0.016 A 
ATOM      4  C   UNL     1      -3.269  -1.563   1.116  0.00  0.00    +0.001 A 
ATOM      5  C   UNL     1      -3.933  -1.927   2.297  0.00  0.00    +0.010 A 
ATOM      6  C   UNL     1      -5.271  -2.178   2.269  0.00  0.00    +0.004 A 
ATOM      7  C   UNL     1      -5.992  -2.078   1.081  0.00  0.00    -0.045 A 
ATOM      8  C   UNL     1      -5.380  -1.727  -0.084  0.00  0.00    -0.022 A 
ATOM      9  C   UNL     1      -4.000  -1.461  -0.094  0.00  0.00    +0.075 A 
ATOM     10  N   UNL     1      -3.374  -1.114  -1.224  0.00  0.00    -0.240 NA
ATOM     11  C   UNL     1      -2.081  -0.857  -1.238  0.00  0.00    +0.101 A 
ATOM     12  C   UNL     1      -6.179  -1.626  -1.357  0.00  0.00    +0.046 C 
ATOM     13  C   UNL     1      -7.471  -2.363   1.084  0.00  0.00    +0.044 C 
BRANCH   2  15
ATOM     14  C   UNL     1       0.399   0.856   0.013  0.00  0.00    +0.009 C 
ATOM     15  C   UNL     1       0.174  -0.651  -0.129  0.00  0.00    +0.034 C 
ENDBRANCH   2  15
ENDBRANCH   1  11
BRANCH   1  16
ATOM     16  C   UNL     1      -2.669  -0.411  -3.958  0.00  0.00    +0.173 C 
BRANCH  16  17
ATOM     17  C   UNL     1      -2.140  -0.030  -5.316  0.00  0.00    +0.239 C 
ATOM     18  O   UNL     1      -0.964   0.226  -5.459  0.00  0.00    -0.273 OA
ATOM     19  N   UNL     1      -2.975   0.026  -6.373  0.00  0.00    -0.233 N 
ATOM     20  H   UNL     1      -3.917  -0.178  -6.258  0.00  0.00    +0.173 HD
BRANCH  19  21
ATOM     21  N   UNL     1      -2.484   0.381  -7.636  0.00  0.00    -0.228 N 
ATOM     22  C   UNL     1      -3.319   0.437  -8.693  0.00  0.00    +0.295 C 
ATOM     23  O   UNL     1      -4.500   0.180  -8.549  0.00  0.00    -0.265 OA
ATOM     24  H   UNL     1      -1.543   0.585  -7.750  0.00  0.00    +0.173 HD
BRANCH  22  25
ATOM     25  C   UNL     1      -2.804   0.808 -10.015  0.00  0.00    +0.190 A 
ATOM     26  C   UNL     1      -3.538   0.908 -11.162  0.00  0.00    +0.054 A 
ATOM     27  C   UNL     1      -2.647   1.286 -12.179  0.00  0.00    +0.042 A 
ATOM     28  C   UNL     1      -1.425   1.398 -11.615  0.00  0.00    +0.196 A 
ATOM     29  O   UNL     1      -1.524   1.115 -10.310  0.00  0.00    -0.458 OA
ENDBRANCH  22  25
ENDBRANCH  19  21
ENDBRANCH  16  17
ENDBRANCH   1  16
TORSDOF 6
