REMARK  Name = ZINC48217230
REMARK  10 active torsions:
REMARK  status: ('A' for Active; 'I' for Inactive)
REMARK    1  A    between atoms: C_1  and  C_2
REMARK    2  A    between atoms: C_4  and  C_26
REMARK    3  A    between atoms: C_5  and  N_9
REMARK    4  A    between atoms: C_10  and  C_12
REMARK    5  A    between atoms: C_12  and  N_13
REMARK    6  A    between atoms: N_16  and  C_19
REMARK    7  A    between atoms: C_19  and  C_20
REMARK    8  A    between atoms: N_22  and  C_23
REMARK    9  A    between atoms: C_23  and  C_24
REMARK   10  A    between atoms: C_23  and  C_25
REMARK                            x       y       z     vdW  Elec       q    Type
REMARK                         _______ _______ _______ _____ _____    ______ ____
ROOT
ATOM      1  N   UNL     1       1.062  -6.840   2.325  0.00  0.00    +0.387 N 
ATOM      2  C   UNL     1       2.420  -6.341   2.581  0.00  0.00    -0.063 C 
ATOM      3  C   UNL     1       2.897  -6.838   3.947  0.00  0.00    +0.066 C 
ATOM      4  N   UNL     1       2.886  -8.308   3.962  0.00  0.00    -0.298 NA
ATOM      5  C   UNL     1       1.537  -8.822   3.682  0.00  0.00    +0.066 C 
ATOM      6  C   UNL     1       1.071  -8.309   2.318  0.00  0.00    -0.063 C 
ATOM      7  H   UNL     1       0.441  -6.511   3.049  0.00  0.00    -0.081 HD
ENDROOT
BRANCH   1   8
ATOM      8  C   UNL     1       0.598  -6.347   1.021  0.00  0.00    +0.019 C 
BRANCH   8  10
ATOM      9  N   UNL     1       0.057  -4.171  -0.023  0.00  0.00    -0.286 N 
ATOM     10  C   UNL     1       0.471  -4.846   1.067  0.00  0.00    +0.201 C 
ATOM     11  O   UNL     1       0.741  -4.246   2.086  0.00  0.00    -0.278 OA
ATOM     12  H   UNL     1      -0.228  -4.655  -0.814  0.00  0.00    +0.155 HD
BRANCH   9  17
ATOM     13  C   UNL     1      -0.018   1.503   0.010  0.00  0.00    +0.044 C 
ATOM     14  C   UNL     1       0.002  -0.004   0.001  0.00  0.00    -0.049 A 
ATOM     15  C   UNL     1       1.139  -0.677  -0.406  0.00  0.00    +0.008 A 
ATOM     16  C   UNL     1       1.161  -2.058  -0.415  0.00  0.00    -0.028 A 
ATOM     17  C   UNL     1       0.039  -2.771  -0.015  0.00  0.00    +0.055 A 
ATOM     18  C   UNL     1      -1.103  -2.093   0.395  0.00  0.00    +0.063 A 
ATOM     19  C   UNL     1      -1.116  -0.711   0.406  0.00  0.00    +0.025 A 
ATOM     20 CL   UNL     1      -2.508  -2.979   0.896  0.00  0.00    -0.082 Cl
ATOM     21  C   UNL     1       2.401  -2.790  -0.860  0.00  0.00    +0.046 C 
ENDBRANCH   9  17
ENDBRANCH   8  10
ENDBRANCH   1   8
BRANCH   4  22
ATOM     22  C   UNL     1       3.392  -8.826   5.239  0.00  0.00    +0.180 C 
BRANCH  22  23
ATOM     23  C   UNL     1       3.597 -10.315   5.132  0.00  0.00    +0.227 C 
ATOM     24  O   UNL     1       3.346 -10.889   4.093  0.00  0.00    -0.274 OA
ATOM     25  N   UNL     1       4.060 -11.009   6.191  0.00  0.00    -0.312 N 
ATOM     26  H   UNL     1       4.260 -10.551   7.021  0.00  0.00    +0.149 HD
BRANCH  25  27
ATOM     27  C   UNL     1       4.259 -12.457   6.086  0.00  0.00    +0.067 C 
ATOM     28  C   UNL     1       5.316 -12.901   7.100  0.00  0.00    +0.027 C 
ATOM     29  C   UNL     1       2.940 -13.176   6.377  0.00  0.00    +0.027 C 
ENDBRANCH  25  27
ENDBRANCH  22  23
ENDBRANCH   4  22
TORSDOF 6
