REMARK  Name = ZINC08665952
REMARK  4 active torsions:
REMARK  status: ('A' for Active; 'I' for Inactive)
REMARK    1  A    between atoms: C_1  and  C_2
REMARK    2  A    between atoms: C_2  and  C_26
REMARK    3  A    between atoms: C_6  and  C_17
REMARK    4  A    between atoms: C_11  and  O_15
REMARK                            x       y       z     vdW  Elec       q    Type
REMARK                         _______ _______ _______ _____ _____    ______ ____
ROOT
ATOM      1  C   UNL     1      -0.019   1.526   0.010  0.00  0.00    +0.031 C 
ATOM      2  C   UNL     1       0.002  -0.004   0.002  0.00  0.00    +0.033 C 
ATOM      3  C   UNL     1       0.614  -0.501  -1.313  0.00  0.00    +0.094 C 
ATOM      4  C   UNL     1       2.078  -0.058  -1.367  0.00  0.00    +0.180 C 
ATOM      5  C   UNL     1       2.742  -0.640  -2.619  0.00  0.00    +0.082 C 
ATOM      6  C   UNL     1       4.228  -0.274  -2.591  0.00  0.00    +0.065 C 
ATOM      7  C   UNL     1       4.385   1.193  -2.280  0.00  0.00    +0.004 A 
ATOM      8  C   UNL     1       5.594   1.808  -2.566  0.00  0.00    +0.031 A 
ATOM      9  C   UNL     1       5.778   3.148  -2.291  0.00  0.00    +0.083 A 
ATOM     10  C   UNL     1       4.748   3.887  -1.724  0.00  0.00    +0.139 A 
ATOM     11  C   UNL     1       3.539   3.276  -1.439  0.00  0.00    +0.093 A 
ATOM     12  C   UNL     1       3.354   1.926  -1.718  0.00  0.00    +0.131 A 
ATOM     13  O   UNL     1       2.150   1.365  -1.432  0.00  0.00    -0.468 OA
ATOM     14 CL   UNL     1       7.296   3.909  -2.654  0.00  0.00    -0.080 Cl
ATOM     15  N   UNL     1       2.775  -0.538  -0.173  0.00  0.00    -0.289 N 
ATOM     16  C   UNL     1       2.125  -0.719   0.987  0.00  0.00    +0.133 C 
ATOM     17  S   UNL     1       3.008  -1.267   2.347  0.00  0.00    -0.019 S 
ATOM     18  N   UNL     1       0.811  -0.488   1.122  0.00  0.00    -0.321 N 
ATOM     19  C   UNL     1      -1.427  -0.535   0.136  0.00  0.00    +0.031 C 
ATOM     20  H   UNL     1       3.725  -0.729  -0.222  0.00  0.00    +0.151 HD
ATOM     21  H   UNL     1       0.387  -0.645   1.980  0.00  0.00    +0.148 HD
ENDROOT
BRANCH   6  22
ATOM     22  C   UNL     1       4.843  -0.569  -3.935  0.00  0.00    -0.003 A 
ATOM     23  C   UNL     1       5.856  -1.415  -4.243  0.00  0.00    +0.012 A 
ATOM     24  C   UNL     1       6.259  -1.526  -5.561  0.00  0.00    +0.008 A 
ATOM     25  C   UNL     1       5.628  -0.786  -6.506  0.00  0.00    +0.045 A 
ATOM     26  S   UNL     1       4.420   0.100  -5.535  0.00  0.00    -0.101 S 
ENDBRANCH   6  22
BRANCH  10  27
ATOM     27  O   UNL     1       4.926   5.206  -1.449  0.00  0.00    -0.505 OA
ATOM     28  H   UNL     1       4.683   5.795  -2.176  0.00  0.00    +0.292 HD
ENDBRANCH  10  27
TORSDOF 2
