REMARK  Name = ZINC40921056
REMARK  9 active torsions:
REMARK  status: ('A' for Active; 'I' for Inactive)
REMARK    1  A    between atoms: C_1  and  C_2
REMARK    2  A    between atoms: C_2  and  O_3
REMARK    3  A    between atoms: O_3  and  C_4
REMARK    4  A    between atoms: C_4  and  C_6
REMARK    5  A    between atoms: C_7  and  C_31
REMARK    6  A    between atoms: C_14  and  C_16
REMARK    7  A    between atoms: C_19  and  O_22
REMARK    8  A    between atoms: O_22  and  C_23
REMARK    9  A    between atoms: C_23  and  C_24
REMARK                            x       y       z     vdW  Elec       q    Type
REMARK                         _______ _______ _______ _____ _____    ______ ____
ROOT
ATOM      1  C   UNL     1       1.246  -2.359  -2.578  0.00  0.00    +0.082 C 
ATOM      2  C   UNL     1       1.597  -3.654  -2.557  0.00  0.00    +0.020 C 
ATOM      3  N   UNL     1       2.390  -4.215  -3.527  0.00  0.00    -0.286 N 
ATOM      4  C   UNL     1       2.615  -3.471  -4.676  0.00  0.00    +0.240 A 
ATOM      5  N   UNL     1       3.128  -3.808  -5.825  0.00  0.00    -0.092 NA
ATOM      6  N   UNL     1       3.144  -2.795  -6.622  0.00  0.00    -0.021 NA
ATOM      7  N   UNL     1       2.648  -1.752  -6.037  0.00  0.00    -0.042 NA
ATOM      8  N   UNL     1       2.289  -2.154  -4.751  0.00  0.00    -0.201 N 
ATOM      9  C   UNL     1       1.690  -1.404  -3.655  0.00  0.00    +0.181 C 
ATOM     10  C   UNL     1       1.105  -4.523  -1.429  0.00  0.00    +0.061 C 
ATOM     11  H   UNL     1       2.778  -5.097  -3.414  0.00  0.00    +0.155 HD
ENDROOT
BRANCH   9  12
ATOM     12  C   UNL     1       2.708  -0.447  -3.091  0.00  0.00    -0.018 A 
ATOM     13  C   UNL     1       3.894  -0.930  -2.570  0.00  0.00    +0.009 A 
ATOM     14  C   UNL     1       4.829  -0.055  -2.051  0.00  0.00    +0.046 A 
ATOM     15  C   UNL     1       4.577   1.310  -2.055  0.00  0.00    +0.121 A 
ATOM     16  C   UNL     1       3.386   1.791  -2.579  0.00  0.00    +0.046 A 
ATOM     17  C   UNL     1       2.457   0.912  -3.101  0.00  0.00    +0.009 A 
BRANCH  15  18
ATOM     18  O   UNL     1       5.495   2.172  -1.545  0.00  0.00    -0.487 OA
BRANCH  18  19
ATOM     19  C   UNL     1       5.168   3.563  -1.582  0.00  0.00    +0.264 C 
BRANCH  19  20
ATOM     20  C   UNL     1       6.296   4.360  -0.978  0.00  0.00    -0.010 A 
ATOM     21  C   UNL     1       6.303   4.628   0.378  0.00  0.00    +0.008 A 
ATOM     22  C   UNL     1       7.337   5.359   0.932  0.00  0.00    +0.020 A 
ATOM     23  C   UNL     1       8.365   5.822   0.130  0.00  0.00    +0.041 A 
ATOM     24  C   UNL     1       8.357   5.553  -1.227  0.00  0.00    +0.020 A 
ATOM     25  C   UNL     1       7.325   4.817  -1.779  0.00  0.00    +0.008 A 
ATOM     26 CL   UNL     1       9.663   6.740   0.825  0.00  0.00    -0.084 Cl
ENDBRANCH  19  20
ENDBRANCH  18  19
ENDBRANCH  15  18
ENDBRANCH   9  12
BRANCH   1  27
ATOM     27  C   UNL     1       0.417  -1.869  -1.544  0.00  0.00    +0.339 C 
ATOM     28  O   UNL     1      -0.779  -1.745  -1.731  0.00  0.00    -0.245 OA
BRANCH  27  29
ATOM     29  O   UNL     1       0.952  -1.540  -0.350  0.00  0.00    -0.462 OA
BRANCH  29  31
ATOM     30  C   UNL     1       0.838  -0.733   1.925  0.00  0.00    +0.048 C 
ATOM     31  C   UNL     1       0.055  -1.051   0.650  0.00  0.00    +0.229 C 
ENDBRANCH  29  31
ENDBRANCH  27  29
ENDBRANCH   1  27
TORSDOF 7
