REMARK  Name = ZINC11933274
REMARK  6 active torsions:
REMARK  status: ('A' for Active; 'I' for Inactive)
REMARK    1  A    between atoms: C_1  and  N_58
REMARK    2  A    between atoms: C_2  and  C_3
REMARK    3  A    between atoms: C_2  and  N_58
REMARK    4  A    between atoms: C_9  and  C_18
REMARK    5  A    between atoms: C_9  and  N_58
REMARK    6  A    between atoms: C_24  and  C_27
REMARK                            x       y       z     vdW  Elec       q    Type
REMARK                         _______ _______ _______ _____ _____    ______ ____
ROOT
ATOM      1  C   UNL     1       0.168   1.238   2.293  0.00  0.00    +0.021 C 
ATOM      2  C   UNL     1       0.213  -0.256   2.677  0.00  0.00    +0.033 C 
ATOM      3  C   UNL     1       0.203  -0.273   4.194  0.00  0.00    -0.045 A 
ATOM      4  C   UNL     1       0.540  -1.282   5.081  0.00  0.00    +0.004 A 
ATOM      5  C   UNL     1       0.457  -1.067   6.442  0.00  0.00    +0.000 A 
ATOM      6  C   UNL     1       0.036   0.159   6.923  0.00  0.00    +0.000 A 
ATOM      7  C   UNL     1      -0.300   1.167   6.040  0.00  0.00    +0.004 A 
ATOM      8  C   UNL     1      -0.218   0.953   4.674  0.00  0.00    -0.045 A 
ATOM      9  C   UNL     1      -0.524   1.878   3.516  0.00  0.00    +0.033 C 
ENDROOT
BRANCH   1  10
ATOM     10  C   UNL     1       1.559   1.788   2.117  0.00  0.00    +0.206 C 
ATOM     11  O   UNL     1       2.053   2.479   2.983  0.00  0.00    -0.277 OA
ATOM     12  N   UNL     1       2.256   1.512   0.996  0.00  0.00    -0.302 N 
ATOM     13  C   UNL     1       1.647   0.735  -0.092  0.00  0.00    +0.108 C 
ATOM     14  C   UNL     1       2.562  -0.447  -0.425  0.00  0.00    +0.020 C 
ATOM     15  C   UNL     1       3.967   0.072  -0.735  0.00  0.00    +0.016 C 
ATOM     16  C   UNL     1       4.531   0.787   0.495  0.00  0.00    +0.092 C 
ATOM     17  C   UNL     1       3.636   1.989   0.837  0.00  0.00    +0.120 C 
BRANCH  16  18
ATOM     18  C   UNL     1       5.928   1.271   0.200  0.00  0.00    +0.215 C 
ATOM     19  O   UNL     1       6.186   2.454   0.261  0.00  0.00    -0.276 OA
ATOM     20  N   UNL     1       6.890   0.388  -0.133  0.00  0.00    -0.329 N 
ATOM     21  H   UNL     1       6.684  -0.559  -0.182  0.00  0.00    +0.145 HD
ATOM     22  H   UNL     1       7.789   0.698  -0.323  0.00  0.00    +0.145 HD
ENDBRANCH  16  18
ENDBRANCH   1  10
BRANCH   1  24
ATOM     23  C   UNL     1      -0.545   2.833   0.617  0.00  0.00    -0.094 C 
ATOM     24  N   UNL     1      -0.619   1.424   1.056  0.00  0.00    +0.390 N 
ATOM     25  H   UNL     1      -0.229   0.824   0.319  0.00  0.00    -0.080 HD
BRANCH  24  26
ATOM     26  C   UNL     1      -2.028   1.042   1.290  0.00  0.00    -0.042 C 
BRANCH  26  27
ATOM     27  C   UNL     1      -2.722   0.912  -0.041  0.00  0.00    -0.064 A 
ATOM     28  C   UNL     1      -3.464   1.967  -0.539  0.00  0.00    +0.002 A 
ATOM     29  C   UNL     1      -4.098   1.849  -1.762  0.00  0.00    +0.000 A 
ATOM     30  C   UNL     1      -3.997   0.674  -2.482  0.00  0.00    +0.000 A 
ATOM     31  C   UNL     1      -3.260  -0.383  -1.981  0.00  0.00    +0.000 A 
ATOM     32  C   UNL     1      -2.622  -0.264  -0.761  0.00  0.00    +0.002 A 
ENDBRANCH  26  27
ENDBRANCH  24  26
ENDBRANCH   1  24
TORSDOF 5
