REMARK  Name = ZINC16247913
REMARK  8 active torsions:
REMARK  status: ('A' for Active; 'I' for Inactive)
REMARK    1  A    between atoms: C_1  and  C_2
REMARK    2  A    between atoms: C_7  and  N_12
REMARK    3  A    between atoms: C_9  and  C_11
REMARK    4  A    between atoms: C_13  and  C_15
REMARK    5  A    between atoms: C_15  and  O_16
REMARK    6  A    between atoms: O_16  and  C_17
REMARK    7  A    between atoms: C_25  and  O_28
REMARK    8  A    between atoms: O_28  and  C_29
REMARK                            x       y       z     vdW  Elec       q    Type
REMARK                         _______ _______ _______ _____ _____    ______ ____
ROOT
ATOM      1  C   UNL     1       2.282   4.184  -0.024  0.00  0.00    +0.125 A 
ATOM      2  C   UNL     1       3.513   3.533  -0.061  0.00  0.00    +0.046 A 
ATOM      3  C   UNL     1       3.573   2.168  -0.068  0.00  0.00    +0.019 A 
ATOM      4  C   UNL     1       2.392   1.424  -0.039  0.00  0.00    +0.068 A 
ATOM      5  C   UNL     1       1.145   2.073  -0.002  0.00  0.00    +0.142 A 
ATOM      6  C   UNL     1       1.102   3.461   0.006  0.00  0.00    +0.092 A 
ATOM      7  O   UNL     1       0.012   1.344   0.026  0.00  0.00    -0.459 OA
ATOM      8  C   UNL     1       0.019   0.005   0.020  0.00  0.00    +0.245 A 
ATOM      9  C   UNL     1       1.156  -0.718  -0.015  0.00  0.00    +0.210 A 
ATOM     10  C   UNL     1       2.413  -0.049  -0.046  0.00  0.00    +0.234 A 
ATOM     11  O   UNL     1       3.462  -0.669  -0.077  0.00  0.00    -0.283 OA
ENDROOT
BRANCH   1  12
ATOM     12  O   UNL     1       2.239   5.541  -0.016  0.00  0.00    -0.483 OA
BRANCH  12  13
ATOM     13  C   UNL     1       3.491   6.230  -0.048  0.00  0.00    +0.324 C 
BRANCH  13  15
ATOM     14  N   UNL     1       4.288   8.572  -0.059  0.00  0.00    -0.309 N 
ATOM     15  C   UNL     1       3.246   7.717  -0.034  0.00  0.00    +0.251 C 
ATOM     16  O   UNL     1       2.112   8.145  -0.001  0.00  0.00    -0.272 OA
ATOM     17  H   UNL     1       5.196   8.229  -0.086  0.00  0.00    +0.149 HD
BRANCH  14  23
ATOM     18  C   UNL     1       7.701  11.139  -0.534  0.00  0.00    +0.008 C 
ATOM     19  C   UNL     1       6.512  10.420   0.105  0.00  0.00    -0.009 C 
ATOM     20  C   UNL     1       6.345  10.897   1.550  0.00  0.00    +0.003 C 
ATOM     21  C   UNL     1       5.155  10.178   2.189  0.00  0.00    +0.002 C 
ATOM     22  C   UNL     1       3.884  10.493   1.399  0.00  0.00    +0.022 C 
ATOM     23  C   UNL     1       4.051  10.017  -0.046  0.00  0.00    +0.076 C 
ATOM     24  C   UNL     1       5.240  10.736  -0.685  0.00  0.00    +0.009 C 
ATOM     25  C   UNL     1       5.407  10.259  -2.130  0.00  0.00    +0.009 C 
ENDBRANCH  14  23
ENDBRANCH  13  15
ENDBRANCH  12  13
ENDBRANCH   1  12
BRANCH   9  26
ATOM     26  O   UNL     1       1.104  -2.078  -0.020  0.00  0.00    -0.449 OA
BRANCH  26  27
ATOM     27  C   UNL     1       1.304  -2.729   1.156  0.00  0.00    +0.129 A 
ATOM     28  C   UNL     1       1.444  -2.008   2.334  0.00  0.00    +0.049 A 
ATOM     29  C   UNL     1       1.641  -2.671   3.529  0.00  0.00    +0.042 A 
ATOM     30  C   UNL     1       1.711  -4.054   3.551  0.00  0.00    +0.124 A 
ATOM     31  C   UNL     1       1.578  -4.774   2.377  0.00  0.00    +0.042 A 
ATOM     32  C   UNL     1       1.374  -4.114   1.180  0.00  0.00    +0.049 A 
ATOM     33  F   UNL     1       1.909  -4.701   4.721  0.00  0.00    -0.205 F 
ENDBRANCH  26  27
ENDBRANCH   9  26
TORSDOF 6
