REMARK  Name = ZINC14094985
REMARK  12 active torsions:
REMARK  status: ('A' for Active; 'I' for Inactive)
REMARK    1  A    between atoms: C_1  and  C_2
REMARK    2  A    between atoms: C_2  and  N_3
REMARK    3  A    between atoms: N_3  and  C_4
REMARK    4  A    between atoms: C_14  and  C_16
REMARK    5  A    between atoms: C_16  and  C_18
REMARK    6  A    between atoms: C_16  and  N_68
REMARK    7  A    between atoms: C_19  and  N_68
REMARK    8  A    between atoms: C_20  and  C_21
REMARK    9  A    between atoms: C_20  and  N_68
REMARK   10  A    between atoms: C_22  and  C_35
REMARK   11  A    between atoms: N_24  and  C_27
REMARK   12  A    between atoms: C_25  and  C_26
REMARK                            x       y       z     vdW  Elec       q    Type
REMARK                         _______ _______ _______ _____ _____    ______ ____
ROOT
ATOM      1  C   UNL     1       4.254   7.779  -2.326  0.00  0.00    -0.095 C 
ATOM      2  N   UNL     1       4.292   7.217  -0.960  0.00  0.00    +0.388 N 
ATOM      3  H   UNL     1       4.791   6.320  -0.982  0.00  0.00    -0.081 HD
ENDROOT
BRANCH   2   4
ATOM      4  C   UNL     1       5.006   8.141  -0.053  0.00  0.00    +0.017 C 
ATOM      5  C   UNL     1       4.964   7.577   1.368  0.00  0.00    -0.004 C 
BRANCH   4   7
ATOM      6  N   UNL     1       7.136   9.383  -0.254  0.00  0.00    -0.272 N 
ATOM      7  C   UNL     1       6.439   8.257  -0.505  0.00  0.00    +0.206 C 
ATOM      8  O   UNL     1       6.965   7.338  -1.095  0.00  0.00    -0.277 OA
BRANCH   6   9
ATOM      9  C   UNL     1       6.567  10.399   0.517  0.00  0.00    +0.044 A 
ATOM     10  C   UNL     1       6.732  10.408   1.885  0.00  0.00    +0.024 A 
ATOM     11  C   UNL     1       6.169  11.415   2.663  0.00  0.00    +0.002 A 
ATOM     12  C   UNL     1       5.442  12.418   2.097  0.00  0.00    +0.008 A 
ATOM     13  C   UNL     1       5.251  12.446   0.705  0.00  0.00    -0.016 A 
ATOM     14  C   UNL     1       5.824  11.428  -0.098  0.00  0.00    +0.004 A 
ATOM     15  C   UNL     1       5.628  11.455  -1.488  0.00  0.00    +0.010 A 
ATOM     16  C   UNL     1       4.901  12.461  -2.047  0.00  0.00    +0.001 A 
ATOM     17  C   UNL     1       4.341  13.464  -1.259  0.00  0.00    +0.001 A 
ATOM     18  C   UNL     1       4.506  13.468   0.092  0.00  0.00    +0.008 A 
ENDBRANCH   6   9
BRANCH   6  20
ATOM     19  C   UNL     1       8.427  10.294  -2.121  0.00  0.00    +0.025 C 
ATOM     20  C   UNL     1       8.490   9.542  -0.790  0.00  0.00    +0.110 C 
ENDBRANCH   6  20
ENDBRANCH   4   7
ENDBRANCH   2   4
BRANCH   2  21
ATOM     21  C   UNL     1       2.917   6.990  -0.468  0.00  0.00    -0.039 C 
BRANCH  21  22
ATOM     22  C   UNL     1       2.289   5.883  -1.276  0.00  0.00    -0.021 A 
ATOM     23  C   UNL     1       1.541   6.043  -2.448  0.00  0.00    +0.062 A 
ATOM     24  N   UNL     1       1.170   4.858  -2.860  0.00  0.00    -0.176 NA
ATOM     25  N   UNL     1       1.663   3.906  -1.958  0.00  0.00    -0.263 N 
ATOM     26  C   UNL     1       2.349   4.561  -0.997  0.00  0.00    +0.038 A 
ATOM     27  C   UNL     1       3.055   3.932   0.176  0.00  0.00    +0.065 C 
ATOM     28  C   UNL     1       1.223   7.353  -3.122  0.00  0.00    +0.068 C 
BRANCH  25  29
ATOM     29  C   UNL     1       1.473   2.456  -2.045  0.00  0.00    +0.130 C 
ATOM     30  C   UNL     1       2.037   1.938  -3.378  0.00  0.00    +0.051 C 
ATOM     31  C   UNL     1       1.562   0.485  -3.622  0.00  0.00    +0.168 C 
ATOM     32  S   UNL     1      -0.039   0.426  -2.720  0.00  0.00    -0.029 S 
ATOM     33  O   UNL     1       0.058  -0.524  -1.667  0.00  0.00    -0.174 OA
ATOM     34  O   UNL     1      -1.098   0.321  -3.662  0.00  0.00    -0.174 OA
ATOM     35  C   UNL     1      -0.045   2.122  -1.999  0.00  0.00    +0.192 C 
ENDBRANCH  25  29
ENDBRANCH  21  22
ENDBRANCH   2  21
TORSDOF 7
