REMARK  Name = ZINC67049783
REMARK  6 active torsions:
REMARK  status: ('A' for Active; 'I' for Inactive)
REMARK    1  A    between atoms: C_1  and  C_2
REMARK    2  A    between atoms: C_4  and  C_30
REMARK    3  A    between atoms: C_6  and  C_8
REMARK    4  A    between atoms: C_8  and  C_11
REMARK    5  A    between atoms: N_13  and  C_14
REMARK    6  A    between atoms: N_17  and  C_20
REMARK                            x       y       z     vdW  Elec       q    Type
REMARK                         _______ _______ _______ _____ _____    ______ ____
ROOT
ATOM      1  C   UNL     1      -1.488  -6.051   1.071  0.00  0.00    +0.076 C 
ATOM      2  C   UNL     1      -2.871  -5.625   0.572  0.00  0.00    +0.041 C 
ATOM      3  C   UNL     1      -3.768  -6.861   0.450  0.00  0.00    +0.108 C 
ATOM      4  N   UNL     1      -3.097  -7.850  -0.405  0.00  0.00    -0.313 N 
ATOM      5  C   UNL     1      -1.728  -8.262  -0.067  0.00  0.00    +0.108 C 
ATOM      6  C   UNL     1      -0.854  -7.011   0.061  0.00  0.00    +0.041 C 
ENDROOT
BRANCH   4   7
ATOM      7  C   UNL     1      -3.743  -8.383  -1.507  0.00  0.00    +0.152 A 
ATOM      8  C   UNL     1      -5.093  -8.089  -1.761  0.00  0.00    +0.147 A 
ATOM      9  N   UNL     1      -6.037  -7.337  -1.145  0.00  0.00    -0.231 NA
ATOM     10  C   UNL     1      -7.152  -7.409  -1.813  0.00  0.00    +0.198 A 
ATOM     11  N   UNL     1      -6.991  -8.213  -2.902  0.00  0.00    -0.329 N 
ATOM     12  C   UNL     1      -5.694  -8.660  -2.896  0.00  0.00    +0.163 A 
ATOM     13  N   UNL     1      -4.970  -9.451  -3.681  0.00  0.00    -0.216 NA
ATOM     14  C   UNL     1      -3.707  -9.698  -3.404  0.00  0.00    +0.225 A 
ATOM     15  N   UNL     1      -3.098  -9.181  -2.352  0.00  0.00    -0.218 NA
ATOM     16  H   UNL     1      -7.670  -8.430  -3.560  0.00  0.00    +0.168 HD
ENDBRANCH   4   7
BRANCH   1  19
ATOM     17  C   UNL     1      -0.683  -4.145   2.357  0.00  0.00    +0.224 C 
ATOM     18  O   UNL     1      -1.359  -4.524   3.290  0.00  0.00    -0.275 OA
ATOM     19  N   UNL     1      -0.638  -4.868   1.221  0.00  0.00    -0.312 N 
ATOM     20  H   UNL     1      -0.042  -4.605   0.502  0.00  0.00    +0.149 HD
BRANCH  17  21
ATOM     21  C   UNL     1       0.105  -2.866   2.468  0.00  0.00    +0.072 C 
ATOM     22  C   UNL     1      -0.335  -1.854   3.528  0.00  0.00    +0.022 C 
ATOM     23  C   UNL     1      -0.589  -1.569   2.046  0.00  0.00    +0.022 C 
BRANCH  21  29
ATOM     24  C   UNL     1       4.301  -1.032   0.450  0.00  0.00    +0.044 C 
ATOM     25  C   UNL     1       3.589  -2.109   1.226  0.00  0.00    -0.050 A 
ATOM     26  C   UNL     1       4.290  -3.209   1.685  0.00  0.00    +0.006 A 
ATOM     27  C   UNL     1       3.637  -4.197   2.397  0.00  0.00    -0.050 A 
ATOM     28  C   UNL     1       2.283  -4.086   2.651  0.00  0.00    +0.008 A 
ATOM     29  C   UNL     1       1.582  -2.986   2.192  0.00  0.00    -0.032 A 
ATOM     30  C   UNL     1       2.236  -1.996   1.484  0.00  0.00    +0.008 A 
ATOM     31  C   UNL     1       4.402  -5.396   2.897  0.00  0.00    +0.044 C 
ENDBRANCH  21  29
ENDBRANCH  17  21
ENDBRANCH   1  19
TORSDOF 4
