REMARK  Name = ZINC36621444
REMARK  9 active torsions:
REMARK  status: ('A' for Active; 'I' for Inactive)
REMARK    1  A    between atoms: C_1  and  C_2
REMARK    2  A    between atoms: C_2  and  C_3
REMARK    3  A    between atoms: C_3  and  N_4
REMARK    4  A    between atoms: C_5  and  C_28
REMARK    5  A    between atoms: C_7  and  C_25
REMARK    6  A    between atoms: N_11  and  S_14
REMARK    7  A    between atoms: S_14  and  C_17
REMARK    8  A    between atoms: C_19  and  C_24
REMARK    9  A    between atoms: C_22  and  C_23
REMARK                            x       y       z     vdW  Elec       q    Type
REMARK                         _______ _______ _______ _____ _____    ______ ____
ROOT
ATOM      1  N   UNL     1       0.581  -1.741  -1.555  0.00  0.00    -0.266 N 
ATOM      2  C   UNL     1       1.567  -2.405  -0.934  0.00  0.00    +0.046 A 
ATOM      3  C   UNL     1       1.283  -3.752  -1.024  0.00  0.00    +0.050 A 
ATOM      4  C   UNL     1       1.938  -4.977  -0.567  0.00  0.00    +0.035 A 
ATOM      5  C   UNL     1       1.349  -6.166  -0.847  0.00  0.00    +0.082 A 
ATOM      6  C   UNL     1       0.136  -6.227  -1.559  0.00  0.00    +0.273 A 
ATOM      7  O   UNL     1      -0.356  -7.319  -1.786  0.00  0.00    -0.266 OA
ATOM      8  N   UNL     1      -0.500  -5.128  -1.998  0.00  0.00    -0.155 N 
ATOM      9  C   UNL     1       0.021  -3.866  -1.762  0.00  0.00    +0.187 A 
ATOM     10  N   UNL     1      -0.361  -2.649  -2.051  0.00  0.00    -0.151 NA
ATOM     11  C   UNL     1       2.768  -1.791  -0.261  0.00  0.00    +0.066 C 
ENDROOT
BRANCH   8  12
ATOM     12  S   UNL     1      -1.924  -5.283  -2.829  0.00  0.00    +0.089 S 
ATOM     13  O   UNL     1      -2.140  -4.048  -3.499  0.00  0.00    -0.147 OA
ATOM     14  O   UNL     1      -1.858  -6.523  -3.520  0.00  0.00    -0.147 OA
BRANCH  12  15
ATOM     15  C   UNL     1      -3.210  -5.440  -1.635  0.00  0.00    +0.114 A 
ATOM     16  C   UNL     1      -2.967  -5.123  -0.311  0.00  0.00    +0.032 A 
ATOM     17  C   UNL     1      -3.976  -5.246   0.625  0.00  0.00    -0.049 A 
ATOM     18  C   UNL     1      -5.229  -5.685   0.238  0.00  0.00    +0.004 A 
ATOM     19  C   UNL     1      -5.472  -6.001  -1.085  0.00  0.00    +0.005 A 
ATOM     20  C   UNL     1      -4.464  -5.874  -2.022  0.00  0.00    -0.024 A 
ATOM     21  C   UNL     1      -4.731  -6.214  -3.466  0.00  0.00    +0.046 C 
ATOM     22  C   UNL     1      -3.711  -4.901   2.068  0.00  0.00    +0.044 C 
ENDBRANCH  12  15
ENDBRANCH   8  12
BRANCH   4  23
ATOM     23  C   UNL     1       3.236  -4.919   0.195  0.00  0.00    +0.372 C 
ATOM     24  F   UNL     1       3.648  -6.218   0.513  0.00  0.00    -0.204 F 
ATOM     25  F   UNL     1       4.213  -4.300  -0.593  0.00  0.00    -0.204 F 
ENDBRANCH   4  23
BRANCH   1  26
ATOM     26  C   UNL     1       0.499  -0.284  -1.688  0.00  0.00    +0.143 C 
BRANCH  26  28
ATOM     27  C   UNL     1      -0.341   1.817  -0.628  0.00  0.00    +0.005 C 
ATOM     28  C   UNL     1      -0.256   0.296  -0.489  0.00  0.00    +0.020 C 
ENDBRANCH  26  28
ENDBRANCH   1  26
TORSDOF 5
