REMARK  Name = ZINC64165734
REMARK  8 active torsions:
REMARK  status: ('A' for Active; 'I' for Inactive)
REMARK    1  A    between atoms: C_1  and  C_2
REMARK    2  A    between atoms: C_2  and  C_4
REMARK    3  A    between atoms: C_2  and  O_18
REMARK    4  A    between atoms: N_6  and  C_7
REMARK    5  A    between atoms: C_7  and  C_8
REMARK    6  A    between atoms: C_8  and  C_9
REMARK    7  A    between atoms: O_18  and  C_19
REMARK    8  A    between atoms: C_23  and  C_30
REMARK                            x       y       z     vdW  Elec       q    Type
REMARK                         _______ _______ _______ _____ _____    ______ ____
ROOT
ATOM      1  C   UNL     1       0.004   1.494   0.272  0.00  0.00    +0.062 C 
ATOM      2  C   UNL     1       0.005  -0.012   0.001  0.00  0.00    +0.255 C 
ENDROOT
BRANCH   2   3
ATOM      3  C   UNL     1       0.625  -0.279  -1.346  0.00  0.00    +0.254 C 
ATOM      4  O   UNL     1      -0.046  -0.750  -2.240  0.00  0.00    -0.272 OA
ATOM      5  N   UNL     1       1.926   0.004  -1.557  0.00  0.00    -0.312 N 
ATOM      6  H   UNL     1       2.463   0.380  -0.842  0.00  0.00    +0.149 HD
BRANCH   5   7
ATOM      7  C   UNL     1       2.529  -0.256  -2.866  0.00  0.00    +0.108 C 
BRANCH   7   8
ATOM      8  C   UNL     1       4.003   0.151  -2.839  0.00  0.00    +0.052 C 
BRANCH   8   9
ATOM      9  C   UNL     1       4.624  -0.116  -4.186  0.00  0.00    -0.040 C 
ATOM     10  C   UNL     1       4.778   0.765  -5.200  0.00  0.00    -0.001 A 
ATOM     11  C   UNL     1       4.426   2.183  -5.347  0.00  0.00    +0.010 A 
ATOM     12  C   UNL     1       4.713   2.812  -6.509  0.00  0.00    +0.001 A 
ATOM     13  C   UNL     1       5.335   2.147  -7.574  0.00  0.00    +0.002 A 
ATOM     14  C   UNL     1       5.688   0.845  -7.514  0.00  0.00    +0.026 A 
ATOM     15  C   UNL     1       5.434   0.085  -6.339  0.00  0.00    +0.043 A 
ATOM     16  N   UNL     1       5.677  -1.168  -6.041  0.00  0.00    -0.380 N 
ATOM     17  C   UNL     1       5.206  -1.423  -4.675  0.00  0.00    +0.144 C 
ATOM     18  H   UNL     1       6.100  -1.817  -6.625  0.00  0.00    +0.160 HD
ENDBRANCH   8   9
ENDBRANCH   7   8
ENDBRANCH   5   7
ENDBRANCH   2   3
BRANCH   2  19
ATOM     19  O   UNL     1      -1.339  -0.499   0.012  0.00  0.00    -0.480 OA
BRANCH  19  20
ATOM     20  C   UNL     1      -1.869  -0.817   1.221  0.00  0.00    +0.125 A 
ATOM     21  C   UNL     1      -3.129  -1.407   1.289  0.00  0.00    +0.046 A 
ATOM     22  C   UNL     1      -3.675  -1.733   2.497  0.00  0.00    +0.016 A 
ATOM     23  C   UNL     1      -2.965  -1.473   3.672  0.00  0.00    +0.026 A 
ATOM     24  C   UNL     1      -3.529  -1.814   4.989  0.00  0.00    -0.000 A 
ATOM     25  C   UNL     1      -2.772  -1.530   6.109  0.00  0.00    +0.101 A 
ATOM     26  C   UNL     1      -1.508  -0.933   5.958  0.00  0.00    +0.338 A 
ATOM     27  O   UNL     1      -0.847  -0.686   6.951  0.00  0.00    -0.245 OA
ATOM     28  O   UNL     1      -1.010  -0.630   4.749  0.00  0.00    -0.422 OA
ATOM     29  C   UNL     1      -1.693  -0.879   3.612  0.00  0.00    +0.143 A 
ATOM     30  C   UNL     1      -1.150  -0.559   2.376  0.00  0.00    +0.092 A 
BRANCH  24  31
ATOM     31  C   UNL     1      -4.864  -2.441   5.109  0.00  0.00    -0.017 A 
ATOM     32  C   UNL     1      -5.084  -3.723   4.604  0.00  0.00    +0.008 A 
ATOM     33  C   UNL     1      -6.331  -4.302   4.719  0.00  0.00    +0.001 A 
ATOM     34  C   UNL     1      -7.362  -3.614   5.334  0.00  0.00    +0.000 A 
ATOM     35  C   UNL     1      -7.151  -2.342   5.837  0.00  0.00    +0.001 A 
ATOM     36  C   UNL     1      -5.907  -1.755   5.733  0.00  0.00    +0.008 A 
ENDBRANCH  24  31
ENDBRANCH  19  20
ENDBRANCH   2  19
TORSDOF 7
