REMARK  Name = ZINC20720333
REMARK  6 active torsions:
REMARK  status: ('A' for Active; 'I' for Inactive)
REMARK    1  A    between atoms: C_1  and  C_2
REMARK    2  A    between atoms: C_2  and  C_3
REMARK    3  A    between atoms: C_2  and  C_4
REMARK    4  A    between atoms: C_2  and  N_5
REMARK    5  A    between atoms: C_6  and  C_8
REMARK    6  A    between atoms: C_15  and  C_24
REMARK                            x       y       z     vdW  Elec       q    Type
REMARK                         _______ _______ _______ _____ _____    ______ ____
ROOT
ATOM      1  C   UNL     1      -0.059   3.841   0.019  0.00  0.00    +0.058 A 
ATOM      2  C   UNL     1      -1.252   3.120   0.025  0.00  0.00    +0.015 A 
ATOM      3  C   UNL     1      -1.227   1.743   0.017  0.00  0.00    +0.001 A 
ATOM      4  C   UNL     1      -0.013   1.076   0.008  0.00  0.00    +0.006 A 
ATOM      5  C   UNL     1       1.176   1.772   0.000  0.00  0.00    -0.019 A 
ATOM      6  C   UNL     1       1.181   3.170   0.013  0.00  0.00    +0.044 A 
ATOM      7  N   UNL     1       2.329   3.945   0.033  0.00  0.00    -0.336 N 
ATOM      8  C   UNL     1       3.614   3.233  -0.058  0.00  0.00    +0.107 C 
ATOM      9  C   UNL     1       3.482   1.970   0.767  0.00  0.00    +0.029 C 
ATOM     10  C   UNL     1       2.483   1.079  -0.035  0.00  0.00    +0.049 C 
ATOM     11  C   UNL     1       2.690  -0.269   0.550  0.00  0.00    -0.023 C 
ATOM     12  C   UNL     1       3.938  -0.346   0.999  0.00  0.00    -0.030 C 
ATOM     13  C   UNL     1       4.658   0.986   0.773  0.00  0.00    +0.033 C 
ATOM     14  H   UNL     1       2.313   5.042   0.112  0.00  0.00    +0.147 HD
ENDROOT
BRANCH   8  15
ATOM     15  C   UNL     1       3.907   2.880  -1.494  0.00  0.00    -0.002 A 
ATOM     16  C   UNL     1       3.023   2.843  -2.503  0.00  0.00    +0.089 A 
ATOM     17  N   UNL     1       3.654   2.485  -3.663  0.00  0.00    -0.360 N 
ATOM     18  H   UNL     1       3.083   2.411  -4.600  0.00  0.00    +0.165 HD
ATOM     19  C   UNL     1       4.992   2.268  -3.421  0.00  0.00    +0.047 A 
ATOM     20  C   UNL     1       5.209   2.506  -2.051  0.00  0.00    +0.005 A 
ATOM     21  C   UNL     1       6.489   2.360  -1.513  0.00  0.00    +0.010 A 
ATOM     22  C   UNL     1       7.526   1.987  -2.321  0.00  0.00    +0.001 A 
ATOM     23  C   UNL     1       7.317   1.751  -3.672  0.00  0.00    +0.002 A 
ATOM     24  C   UNL     1       6.062   1.889  -4.224  0.00  0.00    +0.026 A 
ENDBRANCH   8  15
BRANCH   1  26
ATOM     25  N   UNL     1      -1.277   5.961   0.025  0.00  0.00    -0.307 N 
ATOM     26  C   UNL     1      -0.094   5.315   0.020  0.00  0.00    +0.246 C 
ATOM     27  O   UNL     1       0.944   5.948   0.015  0.00  0.00    -0.270 OA
ATOM     28  H   UNL     1      -2.216   5.389   0.030  0.00  0.00    +0.150 HD
BRANCH  25  30
ATOM     29  C   UNL     1      -0.609   7.953  -1.227  0.00  0.00    +0.031 C 
ATOM     30  C   UNL     1      -1.312   7.426   0.026  0.00  0.00    +0.026 C 
ATOM     31  C   UNL     1      -2.766   7.901   0.033  0.00  0.00    +0.031 C 
ATOM     32  C   UNL     1      -0.597   7.952   1.272  0.00  0.00    +0.031 C 
ENDBRANCH  25  30
ENDBRANCH   1  26
TORSDOF 3
