REMARK  Name = ZINC09088858
REMARK  7 active torsions:
REMARK  status: ('A' for Active; 'I' for Inactive)
REMARK    1  A    between atoms: C_5  and  C_7
REMARK    2  A    between atoms: C_7  and  O_8
REMARK    3  A    between atoms: O_8  and  C_9
REMARK    4  A    between atoms: C_14  and  C_15
REMARK    5  A    between atoms: C_17  and  C_21
REMARK    6  A    between atoms: N_23  and  N_24
REMARK    7  A    between atoms: C_25  and  C_26
REMARK                            x       y       z     vdW  Elec       q    Type
REMARK                         _______ _______ _______ _____ _____    ______ ____
ROOT
ATOM      1  C   UNL     1      -2.748  -3.701   0.009  0.00  0.00    +0.097 A 
ATOM      2  C   UNL     1      -4.091  -4.119   0.026  0.00  0.00    +0.062 A 
ATOM      3  C   UNL     1      -4.836  -2.955   0.038  0.00  0.00    +0.122 A 
ATOM      4  N   UNL     1      -3.940  -1.923   0.028  0.00  0.00    -0.272 N 
ATOM      5  H   UNL     1      -4.174  -0.981   0.033  0.00  0.00    +0.189 HD
ATOM      6  N   UNL     1      -2.741  -2.385   0.017  0.00  0.00    -0.173 NA
ENDROOT
BRANCH   1  12
ATOM      7  C   UNL     1      -0.272  -4.030  -0.017  0.00  0.00    +0.130 A 
ATOM      8  C   UNL     1       0.837  -4.861  -0.027  0.00  0.00    +0.046 A 
ATOM      9  C   UNL     1       0.673  -6.233  -0.033  0.00  0.00    +0.004 A 
ATOM     10  C   UNL     1      -0.597  -6.785  -0.028  0.00  0.00    +0.001 A 
ATOM     11  C   UNL     1      -1.709  -5.968  -0.019  0.00  0.00    +0.014 A 
ATOM     12  C   UNL     1      -1.555  -4.584  -0.007  0.00  0.00    +0.044 A 
BRANCH   7  13
ATOM     13  O   UNL     1      -0.112  -2.680  -0.011  0.00  0.00    -0.487 OA
BRANCH  13  14
ATOM     14  C   UNL     1       1.229  -2.186  -0.022  0.00  0.00    +0.266 C 
BRANCH  14  19
ATOM     15  C   UNL     1      -0.017   1.378   0.010  0.00  0.00    +0.000 A 
ATOM     16  C   UNL     1       1.171   2.086   0.002  0.00  0.00    +0.001 A 
ATOM     17  C   UNL     1       2.377   1.412  -0.013  0.00  0.00    +0.020 A 
ATOM     18  C   UNL     1       2.397   0.029  -0.021  0.00  0.00    +0.047 A 
ATOM     19  C   UNL     1       1.208  -0.679  -0.013  0.00  0.00    +0.008 A 
ATOM     20  C   UNL     1       0.002  -0.004   0.002  0.00  0.00    +0.008 A 
ATOM     21 CL   UNL     1       3.912  -0.818  -0.041  0.00  0.00    -0.083 Cl
ENDBRANCH  14  19
ENDBRANCH  13  14
ENDBRANCH   7  13
ENDBRANCH   1  12
BRANCH   3  22
ATOM     22  C   UNL     1      -6.303  -2.847   0.058  0.00  0.00    +0.281 C 
ATOM     23  O   UNL     1      -6.987  -3.854   0.065  0.00  0.00    -0.267 OA
ATOM     24  N   UNL     1      -6.889  -1.634   0.068  0.00  0.00    -0.202 N 
ATOM     25  H   UNL     1      -6.345  -0.832   0.062  0.00  0.00    +0.178 HD
BRANCH  24  26
ATOM     26  N   UNL     1      -8.287  -1.532   0.086  0.00  0.00    -0.184 NA
ATOM     27  C   UNL     1      -8.853  -0.360   0.096  0.00  0.00    +0.176 C 
BRANCH  27  28
ATOM     28  C   UNL     1     -10.315  -0.253   0.115  0.00  0.00    +0.147 A 
ATOM     29  C   UNL     1     -11.034   0.907   0.121  0.00  0.00    +0.051 A 
ATOM     30  C   UNL     1     -12.392   0.541   0.141  0.00  0.00    +0.042 A 
ATOM     31  C   UNL     1     -12.440  -0.807   0.145  0.00  0.00    +0.196 A 
ATOM     32  O   UNL     1     -11.184  -1.283   0.124  0.00  0.00    -0.462 OA
ENDBRANCH  27  28
ENDBRANCH  24  26
ENDBRANCH   3  22
TORSDOF 7
