REMARK  Name = ZINC15675542
REMARK  5 active torsions:
REMARK  status: ('A' for Active; 'I' for Inactive)
REMARK    1  A    between atoms: C_8  and  C_10
REMARK    2  A    between atoms: C_10  and  N_11
REMARK    3  A    between atoms: C_20  and  C_22
REMARK    4  A    between atoms: C_24  and  C_27
REMARK    5  A    between atoms: C_30  and  C_33
REMARK                            x       y       z     vdW  Elec       q    Type
REMARK                         _______ _______ _______ _____ _____    ______ ____
ROOT
ATOM      1  N   UNL     1      -1.615   5.226  -1.338  0.00  0.00    -0.278 NA
ATOM      2  C   UNL     1      -0.377   5.611  -2.036  0.00  0.00    +0.140 C 
ATOM      3  C   UNL     1      -0.746   6.128  -3.405  0.00  0.00    +0.051 A 
ATOM      4  C   UNL     1      -2.000   6.503  -3.743  0.00  0.00    +0.040 A 
ATOM      5  N   UNL     1      -1.963   6.905  -5.040  0.00  0.00    -0.349 N 
ATOM      6  H   UNL     1      -2.881   7.255  -5.534  0.00  0.00    +0.166 HD
ATOM      7  C   UNL     1      -0.683   6.766  -5.460  0.00  0.00    +0.171 A 
ATOM      8  N   UNL     1       0.036   6.300  -4.471  0.00  0.00    -0.349 N 
ATOM      9  C   UNL     1      -3.168   6.454  -2.792  0.00  0.00    +0.083 C 
ATOM     10  C   UNL     1      -2.609   6.308  -1.369  0.00  0.00    +0.152 C 
ATOM     11  H   UNL     1       1.107   6.054  -4.414  0.00  0.00    +0.166 HD
ENDROOT
BRANCH  10  12
ATOM     12  C   UNL     1      -3.734   5.982  -0.419  0.00  0.00    +0.245 A 
ATOM     13  N   UNL     1      -4.286   6.801   0.442  0.00  0.00    -0.190 NA
ATOM     14  C   UNL     1      -5.243   6.078   1.066  0.00  0.00    +0.202 A 
ATOM     15  N   UNL     1      -5.211   4.874   0.559  0.00  0.00    -0.056 NA
ATOM     16  O   UNL     1      -4.351   4.803  -0.293  0.00  0.00    -0.336 OA
BRANCH  14  17
ATOM     17  C   UNL     1      -6.156   6.561   2.133  0.00  0.00    +0.022 A 
ATOM     18  C   UNL     1      -6.072   7.877   2.582  0.00  0.00    +0.012 A 
ATOM     19  C   UNL     1      -6.927   8.322   3.570  0.00  0.00    +0.013 A 
ATOM     20  C   UNL     1      -7.858   7.461   4.122  0.00  0.00    +0.055 A 
ATOM     21  C   UNL     1      -7.941   6.152   3.684  0.00  0.00    +0.013 A 
ATOM     22  C   UNL     1      -7.096   5.698   2.692  0.00  0.00    +0.012 A 
BRANCH  20  23
ATOM     23  C   UNL     1      -8.785   7.951   5.205  0.00  0.00    +0.417 C 
ATOM     24  F   UNL     1      -8.193   7.740   6.455  0.00  0.00    -0.166 F 
ATOM     25  F   UNL     1      -9.027   9.317   5.028  0.00  0.00    -0.166 F 
ATOM     26  F   UNL     1      -9.993   7.250   5.137  0.00  0.00    -0.166 F 
ENDBRANCH  20  23
ENDBRANCH  14  17
ENDBRANCH  10  12
BRANCH   1  27
ATOM     27  C   UNL     1      -1.333   4.808   0.041  0.00  0.00    +0.160 C 
BRANCH  27  35
ATOM     28  C   UNL     1       2.405   0.026  -0.021  0.00  0.00    +0.001 A 
ATOM     29  C   UNL     1       1.207  -0.673  -0.013  0.00  0.00    +0.004 A 
ATOM     30  C   UNL     1       0.002  -0.004   0.002  0.00  0.00    +0.047 A 
ATOM     31  C   UNL     1      -0.017   1.385   0.010  0.00  0.00    +0.135 A 
ATOM     32  C   UNL     1       1.200   2.088   0.002  0.00  0.00    +0.020 A 
ATOM     33  C   UNL     1       2.409   1.394  -0.013  0.00  0.00    +0.011 A 
ATOM     34  C   UNL     1       0.832   3.509   0.013  0.00  0.00    +0.054 A 
ATOM     35  C   UNL     1      -0.507   3.548   0.026  0.00  0.00    +0.120 A 
ATOM     36  O   UNL     1      -1.007   2.300   0.019  0.00  0.00    -0.458 OA
ENDBRANCH  27  35
ENDBRANCH   1  27
TORSDOF 5
