REMARK  Name = ZINC41585900
REMARK  4 active torsions:
REMARK  status: ('A' for Active; 'I' for Inactive)
REMARK    1  A    between atoms: N_10  and  C_13
REMARK    2  A    between atoms: C_13  and  C_14
REMARK    3  A    between atoms: C_15  and  O_32
REMARK    4  A    between atoms: C_22  and  C_23
REMARK                            x       y       z     vdW  Elec       q    Type
REMARK                         _______ _______ _______ _____ _____    ______ ____
ROOT
ATOM      1  C   UNL     1       0.351  -6.642   1.532  0.00  0.00    +0.051 A 
ATOM      2  C   UNL     1      -0.851  -6.483   2.203  0.00  0.00    +0.125 A 
ATOM      3  C   UNL     1      -1.879  -7.409   2.045  0.00  0.00    +0.046 A 
ATOM      4  C   UNL     1      -1.710  -8.487   1.222  0.00  0.00    +0.019 A 
ATOM      5  C   UNL     1      -0.506  -8.659   0.540  0.00  0.00    +0.068 A 
ATOM      6  C   UNL     1       0.536  -7.729   0.687  0.00  0.00    +0.147 A 
ATOM      7  O   UNL     1       1.590  -8.102  -0.070  0.00  0.00    -0.451 OA
ATOM      8  C   UNL     1       1.343  -9.246  -0.750  0.00  0.00    +0.176 C 
ATOM      9  C   UNL     1       2.197  -9.878  -1.593  0.00  0.00    +0.058 C 
ATOM     10  C   UNL     1      -0.016  -9.687  -0.397  0.00  0.00    +0.231 C 
ATOM     11  O   UNL     1      -0.609 -10.672  -0.799  0.00  0.00    -0.283 OA
ENDROOT
BRANCH   9  12
ATOM     12  C   UNL     1       3.583  -9.406  -1.725  0.00  0.00    -0.020 A 
ATOM     13  C   UNL     1       4.067  -8.401  -0.881  0.00  0.00    +0.008 A 
ATOM     14  C   UNL     1       5.368  -7.964  -1.011  0.00  0.00    +0.002 A 
ATOM     15  C   UNL     1       6.195  -8.516  -1.974  0.00  0.00    +0.020 A 
ATOM     16  C   UNL     1       5.724  -9.511  -2.814  0.00  0.00    +0.042 A 
ATOM     17  C   UNL     1       4.426  -9.964  -2.693  0.00  0.00    +0.028 A 
ATOM     18 CL   UNL     1       6.771 -10.195  -4.018  0.00  0.00    -0.084 Cl
ENDBRANCH   9  12
BRANCH   2  19
ATOM     19  O   UNL     1      -1.028  -5.415   3.023  0.00  0.00    -0.506 OA
ATOM     20  H   UNL     1      -1.396  -4.638   2.582  0.00  0.00    +0.292 HD
ENDBRANCH   2  19
BRANCH   1  21
ATOM     21  C   UNL     1       1.454  -5.632   1.712  0.00  0.00    +0.127 C 
BRANCH  21  31
ATOM     22  C   UNL     1       2.132   1.500  -0.518  0.00  0.00    +0.005 A 
ATOM     23  C   UNL     1       0.876   2.092  -0.544  0.00  0.00    +0.018 A 
ATOM     24  C   UNL     1      -0.249   1.293  -0.516  0.00  0.00    +0.084 A 
ATOM     25  N   UNL     1      -0.144  -0.021  -0.463  0.00  0.00    -0.350 N 
ATOM     26  C   UNL     1       1.034  -0.624  -0.436  0.00  0.00    +0.099 A 
ATOM     27  C   UNL     1       2.210   0.120  -0.463  0.00  0.00    +0.042 A 
ATOM     28  N   UNL     1       1.098  -2.011  -0.380  0.00  0.00    -0.314 N 
ATOM     29  C   UNL     1       2.388  -2.712  -0.473  0.00  0.00    +0.122 C 
ATOM     30  C   UNL     1       2.494  -3.694   0.699  0.00  0.00    +0.103 C 
ATOM     31  N   UNL     1       1.312  -4.566   0.712  0.00  0.00    -0.295 NA
ATOM     32  C   UNL     1       0.082  -3.795   0.935  0.00  0.00    +0.103 C 
ATOM     33  C   UNL     1      -0.122  -2.817  -0.221  0.00  0.00    +0.122 C 
ATOM     34  H   UNL     1      -0.951  -0.560  -0.444  0.00  0.00    +0.166 HD
ENDBRANCH  21  31
ENDBRANCH   1  21
TORSDOF 4
