REMARK  Name = ZINC40598008
REMARK  4 active torsions:
REMARK  status: ('A' for Active; 'I' for Inactive)
REMARK    1  A    between atoms: C_4  and  N_18
REMARK    2  A    between atoms: C_5  and  N_7
REMARK    3  A    between atoms: N_7  and  C_8
REMARK    4  A    between atoms: N_21  and  C_22
REMARK                            x       y       z     vdW  Elec       q    Type
REMARK                         _______ _______ _______ _____ _____    ______ ____
ROOT
ATOM      1  C   UNL     1      -0.016   1.313   0.009  0.00  0.00    +0.225 A 
ATOM      2  N   UNL     1       1.093   2.025   0.003  0.00  0.00    -0.218 NA
ATOM      3  C   UNL     1       2.285   1.432  -0.012  0.00  0.00    +0.155 A 
ATOM      4  C   UNL     1       2.349   0.042  -0.020  0.00  0.00    +0.205 A 
ATOM      5  C   UNL     1       1.154  -0.672  -0.013  0.00  0.00    +0.155 A 
ATOM      6  N   UNL     1       0.002  -0.004   0.002  0.00  0.00    -0.218 NA
ATOM      7  N   UNL     1       3.447   2.189  -0.019  0.00  0.00    -0.324 N 
ATOM      8  H   UNL     1       4.312   1.750  -0.030  0.00  0.00    +0.148 HD
ENDROOT
BRANCH   7   9
ATOM      9  C   UNL     1       3.368   3.652  -0.011  0.00  0.00    +0.072 C 
ATOM     10  C   UNL     1       3.201   4.161  -1.444  0.00  0.00    +0.022 C 
ATOM     11  C   UNL     1       3.119   5.689  -1.436  0.00  0.00    +0.002 C 
ATOM     12  C   UNL     1       4.403   6.266  -0.836  0.00  0.00    +0.000 C 
ATOM     13  C   UNL     1       4.570   5.756   0.597  0.00  0.00    +0.002 C 
ATOM     14  C   UNL     1       4.652   4.228   0.589  0.00  0.00    +0.022 C 
ENDBRANCH   7   9
BRANCH   4  15
ATOM     15  N   UNL     1       3.652  -0.659  -0.037  0.00  0.00    +0.063 N 
ATOM     16  O   UNL     1       4.195  -0.951   1.004  0.00  0.00    -0.126 OA
ATOM     17  O   UNL     1       4.174  -0.940  -1.090  0.00  0.00    -0.126 OA
ENDBRANCH   4  15
BRANCH   5  18
ATOM     18  N   UNL     1       1.164  -2.058  -0.020  0.00  0.00    -0.322 N 
ATOM     19  H   UNL     1       2.007  -2.538  -0.031  0.00  0.00    +0.148 HD
BRANCH  18  20
ATOM     20  C   UNL     1      -0.100  -2.799  -0.012  0.00  0.00    +0.034 C 
ATOM     21  C   UNL     1      -0.917  -2.428  -1.252  0.00  0.00    +0.029 C 
ATOM     22  C   UNL     1      -2.237  -3.202  -1.243  0.00  0.00    -0.008 C 
ATOM     23  C   UNL     1      -1.947  -4.704  -1.254  0.00  0.00    +0.007 C 
ATOM     24  C   UNL     1      -1.131  -5.075  -0.015  0.00  0.00    -0.008 C 
ATOM     25  C   UNL     1       0.189  -4.302  -0.024  0.00  0.00    +0.029 C 
ATOM     26  C   UNL     1      -1.923  -4.718   1.244  0.00  0.00    +0.007 C 
ATOM     27  C   UNL     1      -2.213  -3.216   1.255  0.00  0.00    -0.008 C 
ATOM     28  C   UNL     1      -3.029  -2.845   0.016  0.00  0.00    +0.007 C 
ATOM     29  C   UNL     1      -0.893  -2.442   1.247  0.00  0.00    +0.029 C 
ENDBRANCH  18  20
ENDBRANCH   5  18
TORSDOF 4
