REMARK  Name = ZINC44592972
REMARK  5 active torsions:
REMARK  status: ('A' for Active; 'I' for Inactive)
REMARK    1  A    between atoms: C_1  and  C_2
REMARK    2  A    between atoms: C_2  and  C_3
REMARK    3  A    between atoms: C_2  and  C_4
REMARK    4  A    between atoms: C_2  and  C_5
REMARK    5  A    between atoms: C_7  and  C_10
REMARK                            x       y       z     vdW  Elec       q    Type
REMARK                         _______ _______ _______ _____ _____    ______ ____
ROOT
ATOM      1  C   UNL     1       1.949  -3.118  -3.405  0.00  0.00    +0.175 C 
ATOM      2  C   UNL     1       3.450  -3.339  -3.239  0.00  0.00    -0.011 A 
ATOM      3  C   UNL     1       4.140  -3.122  -2.049  0.00  0.00    +0.013 A 
ATOM      4  C   UNL     1       5.475  -3.342  -1.991  0.00  0.00    +0.046 A 
ATOM      5  S   UNL     1       5.833  -3.881  -3.657  0.00  0.00    -0.101 S 
ATOM      6  C   UNL     1       4.187  -3.773  -4.300  0.00  0.00    -0.004 A 
ATOM      7  C   UNL     1       3.681  -4.079  -5.672  0.00  0.00    +0.058 C 
ATOM      8  C   UNL     1       2.147  -4.161  -5.598  0.00  0.00    +0.087 C 
ATOM      9  N   UNL     1       1.643  -3.008  -4.837  0.00  0.00    -0.302 NA
ATOM     10  H   UNL     1       0.654  -2.878  -4.986  0.00  0.00    +0.123 HD
ENDROOT
BRANCH   1  13
ATOM     11  C   UNL     1       0.707  -0.490  -1.238  0.00  0.00    +0.177 A 
ATOM     12  N   UNL     1       0.902  -1.771  -1.570  0.00  0.00    -0.194 NA
ATOM     13  C   UNL     1       1.545  -1.847  -2.703  0.00  0.00    +0.249 A 
ATOM     14  O   UNL     1       1.783  -0.602  -3.134  0.00  0.00    -0.336 OA
ATOM     15  N   UNL     1       1.222   0.269  -2.163  0.00  0.00    -0.061 NA
BRANCH  11  17
ATOM     16  C   UNL     1      -0.019   1.526   0.010  0.00  0.00    +0.019 C 
ATOM     17  C   UNL     1       0.002  -0.004   0.002  0.00  0.00    +0.025 C 
ATOM     18  C   UNL     1       0.742  -0.511   1.242  0.00  0.00    +0.019 C 
ATOM     19  C   UNL     1      -1.433  -0.534   0.013  0.00  0.00    +0.019 C 
ENDBRANCH  11  17
ENDBRANCH   1  13
TORSDOF 2
