REMARK  Name = ZINC40585673
REMARK  6 active torsions:
REMARK  status: ('A' for Active; 'I' for Inactive)
REMARK    1  A    between atoms: C_4  and  C_7
REMARK    2  A    between atoms: C_7  and  C_8
REMARK    3  A    between atoms: C_15  and  N_28
REMARK    4  A    between atoms: C_16  and  N_20
REMARK    5  A    between atoms: N_20  and  C_21
REMARK    6  A    between atoms: C_21  and  C_22
REMARK                            x       y       z     vdW  Elec       q    Type
REMARK                         _______ _______ _______ _____ _____    ______ ____
ROOT
ATOM      1  C   UNL     1       3.678  -1.016   1.601  0.00  0.00    -0.004 C 
ATOM      2  C   UNL     1       2.806  -1.942   2.452  0.00  0.00    +0.023 C 
ATOM      3  C   UNL     1       3.466  -2.146   3.819  0.00  0.00    +0.107 C 
ATOM      4  N   UNL     1       4.839  -2.629   3.613  0.00  0.00    -0.313 N 
ATOM      5  C   UNL     1       5.735  -1.861   2.738  0.00  0.00    +0.107 C 
ATOM      6  C   UNL     1       5.048  -1.661   1.383  0.00  0.00    +0.023 C 
ATOM      7  C   UNL     1       5.279  -3.788   4.234  0.00  0.00    +0.157 A 
ATOM      8  C   UNL     1       5.861  -3.734   5.497  0.00  0.00    +0.205 A 
ATOM      9  C   UNL     1       6.287  -4.925   6.077  0.00  0.00    +0.154 A 
ATOM     10  N   UNL     1       6.124  -6.065   5.407  0.00  0.00    -0.218 NA
ATOM     11  C   UNL     1       5.568  -6.074   4.213  0.00  0.00    +0.225 A 
ATOM     12  N   UNL     1       5.148  -4.968   3.632  0.00  0.00    -0.218 NA
ENDROOT
BRANCH   8  13
ATOM     13  N   UNL     1       6.023  -2.444   6.205  0.00  0.00    +0.063 N 
ATOM     14  O   UNL     1       5.149  -2.042   6.937  0.00  0.00    -0.126 OA
ATOM     15  O   UNL     1       7.030  -1.793   6.051  0.00  0.00    -0.126 OA
ENDBRANCH   8  13
BRANCH   9  16
ATOM     16  N   UNL     1       6.873  -4.925   7.334  0.00  0.00    -0.325 N 
ATOM     17  H   UNL     1       6.989  -4.091   7.815  0.00  0.00    +0.148 HD
BRANCH  16  18
ATOM     18  C   UNL     1       7.317  -6.185   7.934  0.00  0.00    +0.134 C 
BRANCH  18  19
ATOM     19  C   UNL     1       7.923  -5.908   9.312  0.00  0.00    +0.135 C 
ATOM     20  C   UNL     1       8.432  -7.225   9.950  0.00  0.00    +0.035 C 
ATOM     21  C   UNL     1       9.515  -6.682  10.922  0.00  0.00    +0.031 C 
ATOM     22  C   UNL     1      10.077  -5.473  10.144  0.00  0.00    +0.160 C 
ATOM     23  O   UNL     1       9.087  -5.076   9.186  0.00  0.00    -0.375 OA
ENDBRANCH  18  19
ENDBRANCH  16  18
ENDBRANCH   9  16
BRANCH   1  24
ATOM     24  C   UNL     1       3.004  -0.783   0.247  0.00  0.00    +0.038 C 
BRANCH  24  28
ATOM     25  C   UNL     1      -0.664   1.329   0.825  0.00  0.00    +0.000 A 
ATOM     26  C   UNL     1       0.511   2.027   0.622  0.00  0.00    +0.000 A 
ATOM     27  C   UNL     1       1.698   1.344   0.435  0.00  0.00    +0.003 A 
ATOM     28  C   UNL     1       1.710  -0.038   0.452  0.00  0.00    -0.047 A 
ATOM     29  C   UNL     1       0.535  -0.737   0.656  0.00  0.00    +0.003 A 
ATOM     30  C   UNL     1      -0.653  -0.054   0.841  0.00  0.00    +0.000 A 
ENDBRANCH  24  28
ENDBRANCH   1  24
TORSDOF 6
