REMARK  Name = ZINC62831897
REMARK  3 active torsions:
REMARK  status: ('A' for Active; 'I' for Inactive)
REMARK    1  A    between atoms: C_3  and  C_19
REMARK    2  A    between atoms: C_4  and  N_8
REMARK    3  A    between atoms: C_6  and  N_7
REMARK                            x       y       z     vdW  Elec       q    Type
REMARK                         _______ _______ _______ _____ _____    ______ ____
ROOT
ATOM      1  C   UNL     1      -0.017   1.390   0.010  0.00  0.00    +0.023 A 
ATOM      2  C   UNL     1       1.151   2.096   0.002  0.00  0.00    +0.019 A 
ATOM      3  C   UNL     1       2.378   1.423  -0.013  0.00  0.00    +0.085 A 
ATOM      4  C   UNL     1       2.403   0.016  -0.021  0.00  0.00    +0.060 A 
ATOM      5  C   UNL     1       1.212  -0.688  -0.013  0.00  0.00    +0.047 A 
ATOM      6  C   UNL     1       0.002  -0.004   0.002  0.00  0.00    +0.026 A 
ENDROOT
BRANCH   4   7
ATOM      7  N   UNL     1       3.621  -0.664  -0.037  0.00  0.00    -0.209 N 
ATOM      8  C   UNL     1       4.264  -1.030   1.082  0.00  0.00    +0.227 C 
ATOM      9  O   UNL     1       3.879  -0.821   2.212  0.00  0.00    -0.275 OA
ATOM     10  C   UNL     1       5.546  -1.745   0.707  0.00  0.00    +0.113 C 
ATOM     11  C   UNL     1       5.524  -1.725  -0.826  0.00  0.00    +0.056 C 
ATOM     12  C   UNL     1       4.245  -1.013  -1.173  0.00  0.00    +0.233 C 
ATOM     13  O   UNL     1       3.844  -0.788  -2.295  0.00  0.00    -0.274 OA
ATOM     14  C   UNL     1       5.535  -3.150  -1.393  0.00  0.00    +0.016 C 
ATOM     15  C   UNL     1       6.383  -3.031  -2.687  0.00  0.00    +0.001 C 
ATOM     16  C   UNL     1       7.482  -2.014  -2.287  0.00  0.00    +0.001 C 
ATOM     17  C   UNL     1       6.747  -0.996  -1.387  0.00  0.00    +0.016 C 
ENDBRANCH   4   7
BRANCH   6  18
ATOM     18  N   UNL     1      -1.193  -0.712   0.010  0.00  0.00    -0.358 N 
ATOM     19  H   UNL     1      -2.039  -0.237   0.020  0.00  0.00    +0.142 HD
ATOM     20  H   UNL     1      -1.182  -1.682   0.004  0.00  0.00    +0.142 HD
ENDBRANCH   6  18
BRANCH   3  21
ATOM     21  C   UNL     1       3.635   2.182  -0.021  0.00  0.00    +0.388 C 
ATOM     22  O   UNL     1       3.611   3.406  -0.015  0.00  0.00    -0.241 OA
ATOM     23  O   UNL     1       4.707   1.591  -0.035  0.00  0.00    -0.241 OA
ENDBRANCH   3  21
TORSDOF 3
