REMARK  Name = ZINC20907235
REMARK  12 active torsions:
REMARK  status: ('A' for Active; 'I' for Inactive)
REMARK    1  A    between atoms: C_1  and  C_2
REMARK    2  A    between atoms: C_2  and  C_3
REMARK    3  A    between atoms: C_2  and  C_4
REMARK    4  A    between atoms: N_7  and  C_33
REMARK    5  A    between atoms: C_11  and  C_13
REMARK    6  A    between atoms: C_13  and  C_14
REMARK    7  A    between atoms: C_14  and  C_26
REMARK    8  A    between atoms: N_18  and  C_21
REMARK    9  A    between atoms: C_21  and  C_22
REMARK   10  A    between atoms: C_22  and  N_23
REMARK   11  A    between atoms: N_23  and  C_24
REMARK   12  A    between atoms: N_23  and  C_25
REMARK                            x       y       z     vdW  Elec       q    Type
REMARK                         _______ _______ _______ _____ _____    ______ ____
ROOT
ATOM      1  C   UNL     1      -0.783   3.862   0.175  0.00  0.00    +0.090 C 
ATOM      2  C   UNL     1      -2.045   4.747   0.234  0.00  0.00    +0.117 C 
ATOM      3  C   UNL     1      -1.948   5.587  -1.020  0.00  0.00    +0.223 C 
ATOM      4  O   UNL     1      -2.749   6.428  -1.366  0.00  0.00    -0.275 OA
ATOM      5  N   UNL     1      -0.836   5.254  -1.688  0.00  0.00    -0.243 N 
ATOM      6  C   UNL     1      -0.106   4.295  -1.107  0.00  0.00    +0.233 C 
ATOM      7  O   UNL     1       0.934   3.845  -1.538  0.00  0.00    -0.274 OA
ENDROOT
BRANCH   1   8
ATOM      8  C   UNL     1       0.106   4.125   1.364  0.00  0.00    -0.013 A 
ATOM      9  C   UNL     1       1.377   4.635   1.177  0.00  0.00    +0.006 A 
ATOM     10  C   UNL     1       2.192   4.876   2.266  0.00  0.00    +0.000 A 
ATOM     11  C   UNL     1       1.737   4.609   3.544  0.00  0.00    +0.001 A 
ATOM     12  C   UNL     1       0.466   4.099   3.732  0.00  0.00    +0.020 A 
ATOM     13  C   UNL     1      -0.352   3.862   2.642  0.00  0.00    +0.045 A 
ATOM     14 CL   UNL     1      -1.952   3.229   2.878  0.00  0.00    -0.083 Cl
ENDBRANCH   1   8
BRANCH   1  15
ATOM     15  C   UNL     1      -1.166   2.382   0.109  0.00  0.00    +0.117 C 
BRANCH  15  22
ATOM     16  C   UNL     1       1.193  -0.635  -0.166  0.00  0.00    +0.093 C 
ATOM     17  C   UNL     1       1.175  -1.720   0.916  0.00  0.00    +0.106 C 
ATOM     18  N   UNL     1      -0.099  -2.449   0.853  0.00  0.00    -0.302 NA
ATOM     19  C   UNL     1      -1.234  -1.564   1.145  0.00  0.00    +0.103 C 
ATOM     20  C   UNL     1      -1.315  -0.472   0.078  0.00  0.00    +0.123 C 
ATOM     21  N   UNL     1      -0.009   0.199  -0.011  0.00  0.00    -0.296 N 
ATOM     22  C   UNL     1       0.084   1.542   0.052  0.00  0.00    +0.217 C 
ATOM     23  O   UNL     1       1.174   2.075   0.059  0.00  0.00    -0.276 OA
ATOM     24  C   UNL     1      -0.088  -3.607   1.757  0.00  0.00    +0.105 C 
BRANCH  16  26
ATOM     25  C   UNL     1       2.530   0.740   1.436  0.00  0.00    +0.009 C 
ATOM     26  C   UNL     1       2.443   0.232  -0.005  0.00  0.00    +0.005 C 
ATOM     27  C   UNL     1       3.686  -0.601  -0.327  0.00  0.00    +0.009 C 
ENDBRANCH  16  26
ENDBRANCH  15  22
ENDBRANCH   1  15
BRANCH   5  28
ATOM     28  C   UNL     1      -0.451   5.888  -2.952  0.00  0.00    +0.098 C 
BRANCH  28  29
ATOM     29  C   UNL     1       0.420   7.112  -2.663  0.00  0.00    -0.060 C 
BRANCH  29  30
ATOM     30  N   UNL     1       0.807   7.747  -3.930  0.00  0.00    +0.377 N 
ATOM     31  C   UNL     1       1.440   9.052  -3.694  0.00  0.00    -0.097 C 
ATOM     32  C   UNL     1       1.686   6.869  -4.713  0.00  0.00    -0.097 C 
ATOM     33  H   UNL     1      -0.109   7.918  -4.516  0.00  0.00    -0.083 HD
ENDBRANCH  29  30
ENDBRANCH  28  29
ENDBRANCH   5  28
TORSDOF 7
