REMARK  Name = ZINC46562033
REMARK  9 active torsions:
REMARK  status: ('A' for Active; 'I' for Inactive)
REMARK    1  A    between atoms: C_1  and  C_2
REMARK    2  A    between atoms: C_4  and  C_19
REMARK    3  A    between atoms: C_6  and  S_9
REMARK    4  A    between atoms: C_7  and  C_8
REMARK    5  A    between atoms: S_9  and  N_12
REMARK    6  A    between atoms: C_15  and  C_18
REMARK    7  A    between atoms: N_21  and  C_22
REMARK    8  A    between atoms: C_22  and  C_23
REMARK    9  A    between atoms: C_23  and  C_24
REMARK                            x       y       z     vdW  Elec       q    Type
REMARK                         _______ _______ _______ _____ _____    ______ ____
ROOT
ATOM      1  C   UNL     1      -0.429   0.837  -0.759  0.00  0.00    +0.044 C 
ATOM      2  C   UNL     1      -0.301  -0.634  -0.457  0.00  0.00    -0.045 A 
ATOM      3  C   UNL     1      -0.275  -1.549  -1.489  0.00  0.00    +0.016 A 
ATOM      4  C   UNL     1      -0.155  -2.911  -1.207  0.00  0.00    +0.039 A 
ATOM      5  C   UNL     1      -0.064  -3.338   0.119  0.00  0.00    +0.041 A 
ATOM      6  C   UNL     1      -0.092  -2.412   1.141  0.00  0.00    +0.109 A 
ATOM      7  C   UNL     1      -0.205  -1.063   0.855  0.00  0.00    -0.021 A 
ATOM      8  C   UNL     1      -0.229  -0.058   1.977  0.00  0.00    +0.046 C 
ENDROOT
BRANCH   4   9
ATOM      9  C   UNL     1      -0.127  -3.897  -2.308  0.00  0.00    +0.244 C 
ATOM     10  O   UNL     1      -0.023  -5.083  -2.060  0.00  0.00    -0.270 OA
ATOM     11  N   UNL     1      -0.216  -3.482  -3.588  0.00  0.00    -0.311 N 
ATOM     12  H   UNL     1      -0.299  -2.536  -3.786  0.00  0.00    +0.149 HD
BRANCH  11  13
ATOM     13  C   UNL     1      -0.188  -4.460  -4.678  0.00  0.00    +0.113 C 
BRANCH  13  14
ATOM     14  C   UNL     1      -0.304  -3.731  -6.019  0.00  0.00    +0.114 C 
BRANCH  14  15
ATOM     15  C   UNL     1      -0.275  -4.736  -7.141  0.00  0.00    +0.217 C 
ATOM     16  O   UNL     1      -0.171  -5.919  -6.893  0.00  0.00    -0.276 OA
ATOM     17  N   UNL     1      -0.364  -4.321  -8.420  0.00  0.00    -0.301 N 
ATOM     18  C   UNL     1      -0.486  -2.924  -8.861  0.00  0.00    +0.108 C 
ATOM     19  C   UNL     1      -0.582  -2.936 -10.401  0.00  0.00    +0.020 C 
ATOM     20  C   UNL     1      -1.078  -4.374 -10.707  0.00  0.00    +0.020 C 
ATOM     21  C   UNL     1      -0.348  -5.192  -9.610  0.00  0.00    +0.108 C 
ENDBRANCH  14  15
ENDBRANCH  13  14
ENDBRANCH  11  13
ENDBRANCH   4   9
BRANCH   6  22
ATOM     22  S   UNL     1       0.023  -2.949   2.816  0.00  0.00    +0.061 S 
ATOM     23  O   UNL     1       0.077  -4.368   2.784  0.00  0.00    -0.153 OA
ATOM     24  O   UNL     1       1.036  -2.161   3.426  0.00  0.00    -0.153 OA
BRANCH  22  25
ATOM     25  N   UNL     1      -1.401  -2.546   3.558  0.00  0.00    -0.177 NA
ATOM     26  C   UNL     1      -1.511  -1.312   4.347  0.00  0.00    +0.110 C 
ATOM     27  C   UNL     1      -2.038  -1.664   5.742  0.00  0.00    +0.020 C 
ATOM     28  C   UNL     1      -3.348  -2.442   5.607  0.00  0.00    -0.012 C 
ATOM     29  C   UNL     1      -3.094  -3.744   4.844  0.00  0.00    +0.020 C 
ATOM     30  C   UNL     1      -2.581  -3.413   3.434  0.00  0.00    +0.110 C 
ATOM     31  C   UNL     1      -3.895  -2.766   6.999  0.00  0.00    +0.007 C 
ENDBRANCH  22  25
ENDBRANCH   6  22
TORSDOF 6
