REMARK  Name = ZINC36642436
REMARK  10 active torsions:
REMARK  status: ('A' for Active; 'I' for Inactive)
REMARK    1  A    between atoms: C_1  and  C_2
REMARK    2  A    between atoms: C_2  and  N_3
REMARK    3  A    between atoms: N_3  and  C_4
REMARK    4  A    between atoms: N_3  and  C_6
REMARK    5  A    between atoms: C_4  and  C_5
REMARK    6  A    between atoms: C_6  and  C_7
REMARK    7  A    between atoms: C_7  and  N_8
REMARK    8  A    between atoms: C_19  and  C_21
REMARK    9  A    between atoms: C_24  and  N_30
REMARK   10  A    between atoms: C_25  and  N_27
REMARK                            x       y       z     vdW  Elec       q    Type
REMARK                         _______ _______ _______ _____ _____    ______ ____
ROOT
ATOM      1  N   UNL     1       1.087  -4.220  -2.975  0.00  0.00    -0.248 N 
ATOM      2  C   UNL     1       0.278  -4.832  -3.917  0.00  0.00    +0.168 A 
ATOM      3  N   UNL     1      -0.182  -4.346  -5.047  0.00  0.00    -0.224 NA
ATOM      4  C   UNL     1      -0.971  -5.064  -5.877  0.00  0.00    +0.080 A 
ATOM      5  C   UNL     1      -1.529  -4.663  -7.113  0.00  0.00    +0.032 A 
ATOM      6  C   UNL     1      -2.315  -5.520  -7.838  0.00  0.00    +0.040 A 
ATOM      7  C   UNL     1      -2.590  -6.806  -7.391  0.00  0.00    +0.125 A 
ATOM      8  C   UNL     1      -2.059  -7.231  -6.185  0.00  0.00    +0.055 A 
ATOM      9  C   UNL     1      -1.272  -6.378  -5.453  0.00  0.00    +0.043 A 
ATOM     10  S   UNL     1      -0.400  -6.485  -3.909  0.00  0.00    -0.052 S 
ATOM     11  F   UNL     1      -3.368  -7.632  -8.124  0.00  0.00    -0.205 F 
ATOM     12  C   UNL     1       1.463  -4.894  -1.870  0.00  0.00    +0.252 C 
ATOM     13  O   UNL     1       1.136  -6.056  -1.726  0.00  0.00    -0.270 OA
ENDROOT
BRANCH  12  14
ATOM     14  C   UNL     1       2.269  -4.221  -0.835  0.00  0.00    +0.040 A 
ATOM     15  C   UNL     1       2.137  -2.844  -0.629  0.00  0.00    +0.015 A 
ATOM     16  C   UNL     1       2.891  -2.219   0.338  0.00  0.00    +0.026 A 
ATOM     17  C   UNL     1       3.784  -2.956   1.111  0.00  0.00    +0.060 A 
ATOM     18  C   UNL     1       3.918  -4.327   0.908  0.00  0.00    +0.148 A 
ATOM     19  C   UNL     1       3.162  -4.959  -0.053  0.00  0.00    +0.047 A 
BRANCH  17  20
ATOM     20  N   UNL     1       4.545  -2.322   2.087  0.00  0.00    -0.324 N 
ATOM     21  C   UNL     1       5.866  -1.757   1.770  0.00  0.00    +0.133 C 
ATOM     22  C   UNL     1       5.910  -0.312   2.280  0.00  0.00    +0.178 C 
ATOM     23  O   UNL     1       5.522  -0.287   3.656  0.00  0.00    -0.377 OA
ATOM     24  C   UNL     1       4.183  -0.729   3.895  0.00  0.00    +0.178 C 
ATOM     25  C   UNL     1       4.049  -2.190   3.466  0.00  0.00    +0.133 C 
ENDBRANCH  17  20
BRANCH  18  26
ATOM     26  N   UNL     1       4.869  -5.107   1.732  0.00  0.00    +0.058 N 
ATOM     27  O   UNL     1       4.986  -6.297   1.556  0.00  0.00    -0.126 OA
ATOM     28  O   UNL     1       5.530  -4.553   2.580  0.00  0.00    -0.126 OA
ENDBRANCH  18  26
ENDBRANCH  12  14
BRANCH   1  29
ATOM     29  C   UNL     1       1.536  -2.840  -3.180  0.00  0.00    +0.097 C 
BRANCH  29  30
ATOM     30  C   UNL     1       0.393  -1.878  -2.849  0.00  0.00    -0.059 C 
BRANCH  30  31
ATOM     31  N   UNL     1       0.879  -0.494  -2.933  0.00  0.00    +0.380 N 
ATOM     32  H   UNL     1       1.677  -0.380  -2.326  0.00  0.00    -0.082 HD
BRANCH  31  34
ATOM     33  C   UNL     1       1.889   1.202  -4.382  0.00  0.00    -0.017 C 
ATOM     34  C   UNL     1       1.268  -0.195  -4.317  0.00  0.00    -0.082 C 
ENDBRANCH  31  34
BRANCH  31  35
ATOM     35  C   UNL     1      -0.188   0.425  -2.515  0.00  0.00    -0.082 C 
ATOM     36  C   UNL     1      -0.475   0.230  -1.025  0.00  0.00    -0.017 C 
ENDBRANCH  31  35
ENDBRANCH  30  31
ENDBRANCH  29  30
ENDBRANCH   1  29
TORSDOF 8
