REMARK  Name = ZINC48300405
REMARK  6 active torsions:
REMARK  status: ('A' for Active; 'I' for Inactive)
REMARK    1  A    between atoms: C_1  and  C_2
REMARK    2  A    between atoms: C_2  and  C_3
REMARK    3  A    between atoms: C_3  and  C_4
REMARK    4  A    between atoms: N_6  and  C_7
REMARK    5  A    between atoms: N_10  and  C_13
REMARK    6  A    between atoms: C_18  and  N_19
REMARK                            x       y       z     vdW  Elec       q    Type
REMARK                         _______ _______ _______ _____ _____    ______ ____
ROOT
ATOM      1  C   UNL     1       1.241  -7.632   4.495  0.00  0.00    +0.062 A 
ATOM      2  C   UNL     1       1.237  -7.204   5.815  0.00  0.00    +0.049 A 
ATOM      3  C   UNL     1       1.179  -8.134   6.842  0.00  0.00    +0.038 A 
ATOM      4  C   UNL     1       1.124  -9.491   6.547  0.00  0.00    -0.023 A 
ATOM      5  C   UNL     1       1.129  -9.914   5.232  0.00  0.00    +0.040 A 
ATOM      6  C   UNL     1       1.181  -8.990   4.206  0.00  0.00    +0.147 A 
ATOM      7  C   UNL     1       1.060 -10.499   7.665  0.00  0.00    +0.046 C 
ATOM      8  C   UNL     1       1.867  -9.989   8.860  0.00  0.00    +0.101 C 
ATOM      9  C   UNL     1       1.488  -8.565   9.165  0.00  0.00    +0.218 C 
ATOM     10  O   UNL     1       1.464  -8.184  10.316  0.00  0.00    -0.275 OA
ATOM     11  N   UNL     1       1.174  -7.709   8.175  0.00  0.00    -0.285 N 
ATOM     12  H   UNL     1       0.943  -6.791   8.387  0.00  0.00    +0.155 HD
ENDROOT
BRANCH   1  16
ATOM     13  C   UNL     1       1.349  -4.152   2.227  0.00  0.00    +0.076 C 
ATOM     14  C   UNL     1       0.060  -4.683   2.859  0.00  0.00    +0.041 C 
ATOM     15  C   UNL     1       0.069  -6.214   2.816  0.00  0.00    +0.107 C 
ATOM     16  N   UNL     1       1.299  -6.699   3.457  0.00  0.00    -0.328 N 
ATOM     17  C   UNL     1       2.591  -6.182   2.987  0.00  0.00    +0.107 C 
ATOM     18  C   UNL     1       2.554  -4.651   3.027  0.00  0.00    +0.041 C 
BRANCH  13  21
ATOM     19  C   UNL     1       0.716  -2.015   1.242  0.00  0.00    +0.213 C 
ATOM     20  O   UNL     1       0.180  -2.623   0.339  0.00  0.00    -0.276 OA
ATOM     21  N   UNL     1       1.329  -2.687   2.236  0.00  0.00    -0.312 N 
ATOM     22  H   UNL     1       1.758  -2.201   2.958  0.00  0.00    +0.149 HD
BRANCH  19  23
ATOM     23  C   UNL     1       0.696  -0.508   1.251  0.00  0.00    +0.095 C 
BRANCH  23  25
ATOM     24  C   UNL     1      -0.078   1.529   0.030  0.00  0.00    +0.004 C 
ATOM     25  C   UNL     1      -0.058  -0.001   0.020  0.00  0.00    +0.006 C 
ENDBRANCH  23  25
ENDBRANCH  19  23
ENDBRANCH  13  21
ENDBRANCH   1  16
BRANCH   6  26
ATOM     26  N   UNL     1       1.180  -9.447   2.798  0.00  0.00    +0.058 N 
ATOM     27  O   UNL     1       1.028 -10.619   2.544  0.00  0.00    -0.126 OA
ATOM     28  O   UNL     1       1.332  -8.648   1.903  0.00  0.00    -0.126 OA
ENDBRANCH   6  26
TORSDOF 5
