REMARK  Name = ZINC20106795
REMARK  9 active torsions:
REMARK  status: ('A' for Active; 'I' for Inactive)
REMARK    1  A    between atoms: C_1  and  C_2
REMARK    2  A    between atoms: C_2  and  C_3
REMARK    3  A    between atoms: C_2  and  C_4
REMARK    4  A    between atoms: C_7  and  N_10
REMARK    5  A    between atoms: C_11  and  C_13
REMARK    6  A    between atoms: N_24  and  C_36
REMARK    7  A    between atoms: C_25  and  C_27
REMARK    8  A    between atoms: N_29  and  C_30
REMARK    9  A    between atoms: C_36  and  C_37
REMARK                            x       y       z     vdW  Elec       q    Type
REMARK                         _______ _______ _______ _____ _____    ______ ____
ROOT
ATOM      1  C   UNL     1      -4.921   3.883  -0.148  0.00  0.00    +0.123 C 
ATOM      2  C   UNL     1      -5.028   4.652  -1.505  0.00  0.00    +0.155 C 
ATOM      3  C   UNL     1      -4.765   3.630  -2.617  0.00  0.00    +0.004 C 
ATOM      4  C   UNL     1      -5.843   2.841  -2.696  0.00  0.00    +0.009 C 
ATOM      5  C   UNL     1      -6.732   3.350  -1.619  0.00  0.00    +0.127 C 
ATOM      6  C   UNL     1      -6.105   2.904  -0.247  0.00  0.00    +0.128 C 
ATOM      7  C   UNL     1      -7.234   3.179   0.706  0.00  0.00    +0.223 C 
ATOM      8  O   UNL     1      -7.114   3.403   1.891  0.00  0.00    -0.275 OA
ATOM      9  N   UNL     1      -8.411   3.136   0.030  0.00  0.00    -0.284 N 
ATOM     10  C   UNL     1      -8.177   2.972  -1.425  0.00  0.00    +0.198 C 
ATOM     11  O   UNL     1      -6.492   4.783  -1.608  0.00  0.00    -0.358 OA
ENDROOT
BRANCH   1  13
ATOM     12  N   UNL     1      -2.456   3.823   0.044  0.00  0.00    -0.285 N 
ATOM     13  C   UNL     1      -3.614   3.140  -0.051  0.00  0.00    +0.224 C 
ATOM     14  O   UNL     1      -3.604   1.927  -0.057  0.00  0.00    -0.275 OA
ATOM     15  H   UNL     1      -2.470   4.920   0.127  0.00  0.00    +0.155 HD
BRANCH  12  19
ATOM     16  C   UNL     1       1.175   1.781   0.023  0.00  0.00    -0.045 A 
ATOM     17  C   UNL     1       1.078   3.022  -0.578  0.00  0.00    +0.006 A 
ATOM     18  C   UNL     1      -0.123   3.704  -0.568  0.00  0.00    +0.023 A 
ATOM     19  C   UNL     1      -1.236   3.137   0.037  0.00  0.00    +0.033 A 
ATOM     20  C   UNL     1      -1.136   1.890   0.639  0.00  0.00    +0.023 A 
ATOM     21  C   UNL     1       0.069   1.215   0.630  0.00  0.00    +0.006 A 
BRANCH  16  23
ATOM     22  C   UNL     1       2.943   0.795   1.455  0.00  0.00    +0.012 C 
ATOM     23  C   UNL     1       2.488   1.042   0.015  0.00  0.00    +0.013 C 
ATOM     24  C   UNL     1       2.316  -0.298  -0.702  0.00  0.00    +0.012 C 
ENDBRANCH  16  23
ENDBRANCH  12  19
ENDBRANCH   1  13
BRANCH  10  25
ATOM     25  C   UNL     1      -8.392   1.538  -1.836  0.00  0.00    +0.237 C 
ATOM     26  O   UNL     1      -8.377   0.659  -1.000  0.00  0.00    -0.274 OA
ATOM     27  N   UNL     1      -8.601   1.232  -3.132  0.00  0.00    -0.311 N 
ATOM     28  H   UNL     1      -8.615   2.029  -3.889  0.00  0.00    +0.149 HD
BRANCH  27  29
ATOM     29  C   UNL     1      -8.810  -0.162  -3.531  0.00  0.00    +0.073 C 
ATOM     30  C   UNL     1      -7.455  -0.841  -3.741  0.00  0.00    +0.022 C 
ATOM     31  C   UNL     1      -7.673  -2.297  -4.158  0.00  0.00    +0.002 C 
ATOM     32  C   UNL     1      -8.473  -2.340  -5.462  0.00  0.00    +0.000 C 
ATOM     33  C   UNL     1      -9.828  -1.661  -5.251  0.00  0.00    +0.002 C 
ATOM     34  C   UNL     1      -9.610  -0.205  -4.834  0.00  0.00    +0.022 C 
ENDBRANCH  27  29
ENDBRANCH  10  25
BRANCH   9  35
ATOM     35  C   UNL     1      -9.732   3.238   0.654  0.00  0.00    +0.140 C 
BRANCH  35  36
ATOM     36  C   UNL     1     -10.155   4.708   0.715  0.00  0.00    +0.136 C 
ATOM     37  C   UNL     1     -11.493   4.836   1.474  0.00  0.00    +0.035 C 
ATOM     38  C   UNL     1     -12.234   5.927   0.653  0.00  0.00    +0.031 C 
ATOM     39  C   UNL     1     -11.728   5.614  -0.777  0.00  0.00    +0.160 C 
ATOM     40  O   UNL     1     -10.359   5.210  -0.611  0.00  0.00    -0.375 OA
ENDBRANCH  35  36
ENDBRANCH   9  35
TORSDOF 7
