REMARK  Name = ZINC13019239
REMARK  9 active torsions:
REMARK  status: ('A' for Active; 'I' for Inactive)
REMARK    1  A    between atoms: C_1  and  C_2
REMARK    2  A    between atoms: C_2  and  O_3
REMARK    3  A    between atoms: O_3  and  C_4
REMARK    4  A    between atoms: N_6  and  N_7
REMARK    5  A    between atoms: C_8  and  C_10
REMARK    6  A    between atoms: C_10  and  C_11
REMARK    7  A    between atoms: C_11  and  C_12
REMARK    8  A    between atoms: C_13  and  C_26
REMARK    9  A    between atoms: C_24  and  C_25
REMARK                            x       y       z     vdW  Elec       q    Type
REMARK                         _______ _______ _______ _____ _____    ______ ____
ROOT
ATOM      1  C   UNL     1      -0.018   1.503   0.010  0.00  0.00    -0.005 A 
ATOM      2  C   UNL     1       1.179   2.226   0.003  0.00  0.00    +0.045 A 
ATOM      3  N   UNL     1       1.155   3.541   0.010  0.00  0.00    -0.232 NA
ATOM      4  C   UNL     1      -0.000   4.206   0.024  0.00  0.00    +0.164 A 
ATOM      5  C   UNL     1      -0.302   5.585   0.034  0.00  0.00    +0.046 A 
ATOM      6  C   UNL     1       0.487   6.744   0.033  0.00  0.00    +0.014 A 
ATOM      7  C   UNL     1      -0.111   7.968   0.045  0.00  0.00    +0.001 A 
ATOM      8  C   UNL     1      -1.500   8.087   0.058  0.00  0.00    +0.002 A 
ATOM      9  C   UNL     1      -2.297   6.986   0.060  0.00  0.00    +0.030 A 
ATOM     10  C   UNL     1      -1.717   5.701   0.048  0.00  0.00    +0.095 A 
ATOM     11  N   UNL     1      -2.230   4.474   0.046  0.00  0.00    -0.165 NA
ATOM     12  N   UNL     1      -1.191   3.536   0.031  0.00  0.00    -0.217 N 
ATOM     13  C   UNL     1      -1.199   2.173   0.019  0.00  0.00    +0.047 A 
ATOM     14  C   UNL     1      -2.504   1.419   0.022  0.00  0.00    +0.066 C 
ATOM     15  C   UNL     1       2.498   1.498  -0.013  0.00  0.00    +0.066 C 
ENDROOT
BRANCH   1  16
ATOM     16  C   UNL     1       0.002  -0.004   0.002  0.00  0.00    +0.048 C 
BRANCH  16  17
ATOM     17  C   UNL     1       0.023  -0.522   1.442  0.00  0.00    +0.102 C 
BRANCH  17  19
ATOM     18  N   UNL     1       0.064  -2.709   2.597  0.00  0.00    -0.232 N 
ATOM     19  C   UNL     1       0.043  -2.029   1.433  0.00  0.00    +0.229 C 
ATOM     20  O   UNL     1       0.041  -2.629   0.380  0.00  0.00    -0.274 OA
ATOM     21  H   UNL     1       0.065  -2.228   3.439  0.00  0.00    +0.173 HD
BRANCH  18  24
ATOM     22  C   UNL     1       0.103  -4.790   3.752  0.00  0.00    +0.417 C 
ATOM     23  O   UNL     1       0.119  -6.005   3.746  0.00  0.00    -0.225 OA
ATOM     24  N   UNL     1       0.083  -4.109   2.589  0.00  0.00    -0.200 N 
ATOM     25  H   UNL     1       0.081  -4.590   1.746  0.00  0.00    +0.176 HD
BRANCH  22  26
ATOM     26  O   UNL     1       0.105  -4.123   4.922  0.00  0.00    -0.450 OA
BRANCH  26  28
ATOM     27  C   UNL     1       0.126  -3.995   7.354  0.00  0.00    +0.048 C 
ATOM     28  C   UNL     1       0.127  -4.920   6.135  0.00  0.00    +0.230 C 
ENDBRANCH  26  28
ENDBRANCH  22  26
ENDBRANCH  18  24
ENDBRANCH  17  19
ENDBRANCH  16  17
ENDBRANCH   1  16
TORSDOF 6
