REMARK  Name = ZINC09192369
REMARK  1 active torsions:
REMARK  status: ('A' for Active; 'I' for Inactive)
REMARK    1  A    between atoms: C_5  and  N_7
REMARK                            x       y       z     vdW  Elec       q    Type
REMARK                         _______ _______ _______ _____ _____    ______ ____
ROOT
ATOM      1  N   UNL     1       1.236  -2.083  -0.021  0.00  0.00    -0.207 N 
ATOM      2  C   UNL     1       1.236  -2.801  -1.150  0.00  0.00    +0.229 C 
ATOM      3  O   UNL     1       1.215  -2.342  -2.272  0.00  0.00    -0.275 OA
ATOM      4  C   UNL     1       1.267  -4.274  -0.809  0.00  0.00    +0.074 C 
ATOM      5  C   UNL     1      -0.072  -4.920  -1.208  0.00  0.00    -0.054 C 
ATOM      6  C   UNL     1      -0.733  -4.084  -2.318  0.00  0.00    -0.016 C 
ATOM      7  C   UNL     1      -1.636  -3.070  -1.588  0.00  0.00    -0.020 C 
ATOM      8  C   UNL     1      -1.427  -3.352  -0.087  0.00  0.00    -0.076 C 
ATOM      9  C   UNL     1      -0.059  -4.925   1.138  0.00  0.00    +0.053 C 
ATOM     10  C   UNL     1       1.276  -4.282   0.744  0.00  0.00    +0.089 C 
ATOM     11  C   UNL     1       1.263  -2.812   1.101  0.00  0.00    +0.229 C 
ATOM     12  O   UNL     1       1.274  -2.365   2.228  0.00  0.00    -0.275 OA
ATOM     13  C   UNL     1      -0.628  -4.288   2.376  0.00  0.00    -0.026 A 
ATOM     14  C   UNL     1      -1.004  -3.002   2.690  0.00  0.00    +0.019 A 
ATOM     15  C   UNL     1      -1.506  -2.715   3.948  0.00  0.00    +0.018 A 
ATOM     16  C   UNL     1      -1.630  -3.726   4.886  0.00  0.00    +0.017 A 
ATOM     17  C   UNL     1      -1.256  -5.016   4.573  0.00  0.00    +0.024 A 
ATOM     18  C   UNL     1      -0.748  -5.312   3.310  0.00  0.00    +0.036 A 
ATOM     19  N   UNL     1      -0.307  -6.519   2.763  0.00  0.00    -0.286 N 
ATOM     20  C   UNL     1       0.115  -6.377   1.492  0.00  0.00    +0.212 C 
ATOM     21  O   UNL     1       0.550  -7.251   0.772  0.00  0.00    -0.277 OA
ATOM     22 BR   UNL     1      -2.021  -0.949   4.384  0.00  0.00    -0.050 Br
ATOM     23  H   UNL     1      -0.304  -7.362   3.244  0.00  0.00    +0.155 HD
ATOM     24  N   UNL     1      -0.907  -4.734  -0.042  0.00  0.00    +0.395 N 
ATOM     25  H   UNL     1      -1.683  -5.406  -0.036  0.00  0.00    -0.079 HD
ENDROOT
BRANCH   1  30
ATOM     26  C   UNL     1      -0.017   1.377   0.010  0.00  0.00    +0.002 A 
ATOM     27  C   UNL     1       1.170   2.087   0.002  0.00  0.00    +0.003 A 
ATOM     28  C   UNL     1       2.380   1.418  -0.013  0.00  0.00    +0.040 A 
ATOM     29  C   UNL     1       2.405   0.035  -0.021  0.00  0.00    +0.145 A 
ATOM     30  C   UNL     1       1.214  -0.681  -0.013  0.00  0.00    +0.079 A 
ATOM     31  C   UNL     1       0.002  -0.004   0.002  0.00  0.00    +0.027 A 
ATOM     32  F   UNL     1       3.587  -0.620  -0.035  0.00  0.00    -0.204 F 
ENDBRANCH   1  30
TORSDOF 1
