REMARK  Name = ZINC39670498
REMARK  6 active torsions:
REMARK  status: ('A' for Active; 'I' for Inactive)
REMARK    1  A    between atoms: C_1  and  C_2
REMARK    2  A    between atoms: C_7  and  C_11
REMARK    3  A    between atoms: C_11  and  N_12
REMARK    4  A    between atoms: C_13  and  C_15
REMARK    5  A    between atoms: C_26  and  C_28
REMARK    6  A    between atoms: C_31  and  C_36
REMARK                            x       y       z     vdW  Elec       q    Type
REMARK                         _______ _______ _______ _____ _____    ______ ____
ROOT
ATOM      1  C   UNL     1       3.154  -7.607   3.247  0.00  0.00    +0.100 C 
ATOM      2  C   UNL     1       3.722  -8.001   1.865  0.00  0.00    +0.121 C 
ATOM      3  N   UNL     1       4.570  -9.186   2.133  0.00  0.00    -0.296 N 
ATOM      4  C   UNL     1       3.810  -9.964   3.140  0.00  0.00    +0.115 C 
ATOM      5  C   UNL     1       3.213  -8.898   4.081  0.00  0.00    -0.004 C 
ATOM      6  C   UNL     1       1.810  -9.308   4.519  0.00  0.00    -0.010 C 
ATOM      7  C   UNL     1       1.899 -10.561   5.395  0.00  0.00    -0.082 C 
ATOM      8  N   UNL     1       2.738 -10.282   6.567  0.00  0.00    +0.379 N 
ATOM      9  C   UNL     1       4.110  -9.979   6.140  0.00  0.00    -0.082 C 
ATOM     10  C   UNL     1       4.114  -8.702   5.296  0.00  0.00    -0.010 C 
ATOM     11  C   UNL     1       5.764  -9.489   1.585  0.00  0.00    +0.250 C 
ATOM     12  O   UNL     1       6.309  -8.697   0.840  0.00  0.00    -0.270 OA
ATOM     13  H   UNL     1       2.361  -9.492   7.068  0.00  0.00    -0.086 HD
ATOM     14  H   UNL     1       2.746 -11.089   7.173  0.00  0.00    -0.086 HD
ENDROOT
BRANCH  11  15
ATOM     15  C   UNL     1       6.410 -10.781   1.889  0.00  0.00    +0.075 A 
ATOM     16  C   UNL     1       5.633 -11.927   2.075  0.00  0.00    +0.016 A 
ATOM     17  C   UNL     1       6.241 -13.131   2.359  0.00  0.00    +0.007 A 
ATOM     18  C   UNL     1       7.620 -13.210   2.461  0.00  0.00    -0.012 A 
ATOM     19  C   UNL     1       8.399 -12.081   2.278  0.00  0.00    +0.162 A 
ATOM     20  C   UNL     1       7.801 -10.865   1.987  0.00  0.00    +0.171 A 
ATOM     21  F   UNL     1       8.561  -9.763   1.803  0.00  0.00    -0.202 F 
ATOM     22  F   UNL     1       9.743 -12.165   2.379  0.00  0.00    -0.202 F 
ATOM     23  C   UNL     1       8.275 -14.531   2.772  0.00  0.00    +0.047 C 
ENDBRANCH  11  15
BRANCH   1  25
ATOM     24  N   UNL     1       1.182  -6.366   4.077  0.00  0.00    -0.309 N 
ATOM     25  C   UNL     1       1.730  -7.133   3.113  0.00  0.00    +0.219 C 
ATOM     26  O   UNL     1       1.077  -7.441   2.139  0.00  0.00    -0.275 OA
ATOM     27  H   UNL     1       1.704  -6.120   4.856  0.00  0.00    +0.149 HD
BRANCH  24  28
ATOM     28  C   UNL     1      -0.203  -5.905   3.947  0.00  0.00    +0.159 C 
BRANCH  28  35
ATOM     29  C   UNL     1      -2.520  -3.010  10.340  0.00  0.00    +0.045 C 
ATOM     30  C   UNL     1      -1.906  -3.131   8.969  0.00  0.00    -0.034 A 
ATOM     31  C   UNL     1      -1.348  -2.001   8.350  0.00  0.00    +0.008 A 
ATOM     32  C   UNL     1      -0.794  -2.114   7.114  0.00  0.00    +0.045 A 
ATOM     33  C   UNL     1      -0.788  -3.369   6.472  0.00  0.00    +0.115 A 
ATOM     34  N   UNL     1      -0.329  -3.767   5.294  0.00  0.00    -0.342 N 
ATOM     35  C   UNL     1      -0.570  -5.072   5.148  0.00  0.00    +0.051 A 
ATOM     36  C   UNL     1      -1.196  -5.522   6.258  0.00  0.00    +0.115 A 
ATOM     37  N   UNL     1      -1.340  -4.454   7.101  0.00  0.00    -0.308 N 
ATOM     38  C   UNL     1      -1.889  -4.328   8.345  0.00  0.00    +0.096 A 
ATOM     39  H   UNL     1       0.111  -3.200   4.641  0.00  0.00    +0.167 HD
ENDBRANCH  28  35
ENDBRANCH  24  28
ENDBRANCH   1  25
TORSDOF 4
