REMARK  Name = ZINC02241455
REMARK  8 active torsions:
REMARK  status: ('A' for Active; 'I' for Inactive)
REMARK    1  A    between atoms: C_1  and  C_2
REMARK    2  A    between atoms: C_4  and  C_35
REMARK    3  A    between atoms: C_5  and  O_34
REMARK    4  A    between atoms: C_6  and  C_8
REMARK    5  A    between atoms: C_10  and  C_14
REMARK    6  A    between atoms: N_16  and  C_17
REMARK    7  A    between atoms: C_25  and  C_26
REMARK    8  A    between atoms: C_26  and  C_28
REMARK                            x       y       z     vdW  Elec       q    Type
REMARK                         _______ _______ _______ _____ _____    ______ ____
ROOT
ATOM      1  C   UNL     1       0.322  -3.365   6.075  0.00  0.00    +0.266 C 
ATOM      2  O   UNL     1       0.542  -2.306   6.632  0.00  0.00    -0.268 OA
ATOM      3  N   UNL     1       0.065  -4.469   6.804  0.00  0.00    -0.277 N 
ATOM      4  H   UNL     1      -0.187  -5.295   6.362  0.00  0.00    +0.155 HD
ENDROOT
BRANCH   3   5
ATOM      5  C   UNL     1       0.162  -4.425   8.187  0.00  0.00    +0.091 A 
ATOM      6  C   UNL     1      -0.170  -3.296   9.063  0.00  0.00    +0.042 A 
ATOM      7  C   UNL     1      -0.648  -2.003   8.839  0.00  0.00    +0.013 A 
ATOM      8  C   UNL     1      -0.861  -1.166   9.898  0.00  0.00    +0.001 A 
ATOM      9  C   UNL     1      -0.604  -1.593  11.194  0.00  0.00    +0.004 A 
ATOM     10  C   UNL     1      -0.131  -2.865  11.435  0.00  0.00    +0.047 A 
ATOM     11  C   UNL     1       0.092  -3.735  10.373  0.00  0.00    +0.138 A 
ATOM     12  O   UNL     1       0.539  -5.005  10.306  0.00  0.00    -0.450 OA
ATOM     13  C   UNL     1       0.585  -5.438   9.027  0.00  0.00    +0.197 A 
BRANCH  13  14
ATOM     14  C   UNL     1       1.003  -6.726   8.612  0.00  0.00    +0.230 C 
ATOM     15  O   UNL     1       1.103  -6.981   7.425  0.00  0.00    -0.283 OA
BRANCH  14  16
ATOM     16  C   UNL     1       1.319  -7.761   9.620  0.00  0.00    +0.025 A 
ATOM     17  C   UNL     1       1.325  -7.439  10.978  0.00  0.00    +0.012 A 
ATOM     18  C   UNL     1       1.620  -8.409  11.913  0.00  0.00    +0.001 A 
ATOM     19  C   UNL     1       1.909  -9.700  11.507  0.00  0.00    +0.000 A 
ATOM     20  C   UNL     1       1.905 -10.026  10.162  0.00  0.00    +0.001 A 
ATOM     21  C   UNL     1       1.606  -9.067   9.218  0.00  0.00    +0.012 A 
ENDBRANCH  14  16
ENDBRANCH  13  14
ENDBRANCH   3   5
BRANCH   1  24
ATOM     22  C   UNL     1       0.482  -2.972   2.444  0.00  0.00    +0.097 A 
ATOM     23  C   UNL     1       0.580  -2.402   3.727  0.00  0.00    +0.062 A 
ATOM     24  C   UNL     1       0.335  -3.440   4.606  0.00  0.00    +0.121 A 
ATOM     25  N   UNL     1       0.108  -4.550   3.841  0.00  0.00    -0.272 N 
ATOM     26  H   UNL     1      -0.093  -5.434   4.188  0.00  0.00    +0.189 HD
ATOM     27  N   UNL     1       0.194  -4.247   2.596  0.00  0.00    -0.173 NA
BRANCH  22  33
ATOM     28  C   UNL     1       1.462   1.224  -0.078  0.00  0.00    +0.044 C 
ATOM     29  C   UNL     1       1.134  -0.247  -0.064  0.00  0.00    -0.049 A 
ATOM     30  C   UNL     1       1.003  -0.935  -1.257  0.00  0.00    +0.010 A 
ATOM     31  C   UNL     1       0.702  -2.284  -1.254  0.00  0.00    -0.008 A 
ATOM     32  C   UNL     1       0.531  -2.955  -0.053  0.00  0.00    +0.129 A 
ATOM     33  C   UNL     1       0.664  -2.262   1.153  0.00  0.00    +0.044 A 
ATOM     34  C   UNL     1       0.972  -0.904   1.139  0.00  0.00    +0.017 A 
ATOM     35  C   UNL     1       0.560  -3.027  -2.558  0.00  0.00    +0.047 C 
BRANCH  32  36
ATOM     36  O   UNL     1       0.235  -4.281  -0.049  0.00  0.00    -0.506 OA
ATOM     37  H   UNL     1       1.011  -4.857  -0.033  0.00  0.00    +0.292 HD
ENDBRANCH  32  36
ENDBRANCH  22  33
ENDBRANCH   1  24
TORSDOF 6
