REMARK  Name = ZINC38767736
REMARK  6 active torsions:
REMARK  status: ('A' for Active; 'I' for Inactive)
REMARK    1  A    between atoms: C_4  and  C_7
REMARK    2  A    between atoms: C_7  and  C_8
REMARK    3  A    between atoms: C_8  and  C_10
REMARK    4  A    between atoms: C_8  and  N_27
REMARK    5  A    between atoms: C_28  and  C_30
REMARK    6  A    between atoms: C_30  and  C_31
REMARK                            x       y       z     vdW  Elec       q    Type
REMARK                         _______ _______ _______ _____ _____    ______ ____
ROOT
ATOM      1  C   UNL     1       4.171  -0.964   1.402  0.00  0.00    +0.163 C 
ENDROOT
BRANCH   1   2
ATOM      2  C   UNL     1       5.348  -1.904   1.389  0.00  0.00    +0.236 C 
ATOM      3  O   UNL     1       6.466  -1.480   1.593  0.00  0.00    -0.274 OA
ATOM      4  N   UNL     1       5.159  -3.217   1.151  0.00  0.00    -0.300 N 
ATOM      5  C   UNL     1       3.831  -3.729   0.787  0.00  0.00    +0.106 C 
ATOM      6  C   UNL     1       3.460  -4.865   1.745  0.00  0.00    +0.009 C 
ATOM      7  C   UNL     1       4.567  -5.920   1.733  0.00  0.00    -0.037 C 
ATOM      8  C   UNL     1       5.881  -5.297   2.205  0.00  0.00    +0.009 C 
ATOM      9  C   UNL     1       6.279  -4.164   1.246  0.00  0.00    +0.106 C 
ATOM     10  C   UNL     1       4.185  -7.077   2.657  0.00  0.00    +0.140 C 
ATOM     11  C   UNL     1       5.272  -8.131   2.471  0.00  0.00    +0.042 C 
ATOM     12  N   UNL     1       5.745  -8.361   3.633  0.00  0.00    -0.243 NA
ATOM     13  C   UNL     1       5.198  -7.544   4.567  0.00  0.00    +0.216 C 
ATOM     14  N   UNL     1       4.284  -6.735   4.077  0.00  0.00    -0.264 NA
ATOM     15  C   UNL     1       5.680  -8.606   1.099  0.00  0.00    +0.034 C 
ATOM     16  C   UNL     1       5.892  -7.334   0.257  0.00  0.00    -0.076 C 
ATOM     17  N   UNL     1       4.731  -6.447   0.371  0.00  0.00    +0.385 N 
ATOM     18  H   UNL     1       3.901  -6.960   0.116  0.00  0.00    -0.085 HD
ATOM     19  H   UNL     1       4.846  -5.675  -0.268  0.00  0.00    -0.085 HD
ENDBRANCH   1   2
BRANCH   1  20
ATOM     20  N   UNL     1       4.502   0.223   2.195  0.00  0.00    -0.303 N 
ATOM     21  C   UNL     1       3.520   0.944   2.771  0.00  0.00    +0.218 C 
ATOM     22  O   UNL     1       2.362   0.610   2.634  0.00  0.00    -0.275 OA
ATOM     23  H   UNL     1       5.428   0.489   2.305  0.00  0.00    +0.149 HD
BRANCH  21  24
ATOM     24  C   UNL     1       3.861   2.164   3.587  0.00  0.00    +0.130 C 
BRANCH  24  25
ATOM     25  C   UNL     1       2.594   2.784   4.117  0.00  0.00    -0.039 A 
ATOM     26  C   UNL     1       1.931   3.743   3.374  0.00  0.00    +0.004 A 
ATOM     27  C   UNL     1       0.769   4.312   3.860  0.00  0.00    +0.000 A 
ATOM     28  C   UNL     1       0.269   3.921   5.088  0.00  0.00    +0.000 A 
ATOM     29  C   UNL     1       0.931   2.962   5.831  0.00  0.00    +0.000 A 
ATOM     30  C   UNL     1       2.091   2.390   5.343  0.00  0.00    +0.004 A 
ENDBRANCH  24  25
ENDBRANCH  21  24
ENDBRANCH   1  20
BRANCH   1  31
ATOM     31  C   UNL     1       3.839  -0.543  -0.031  0.00  0.00    +0.067 C 
BRANCH  31  35
ATOM     32  C   UNL     1       0.268   1.801  -0.038  0.00  0.00    +0.000 A 
ATOM     33  C   UNL     1       1.498   2.416   0.105  0.00  0.00    +0.000 A 
ATOM     34  C   UNL     1       2.654   1.657   0.107  0.00  0.00    +0.004 A 
ATOM     35  C   UNL     1       2.579   0.284  -0.033  0.00  0.00    -0.045 A 
ATOM     36  C   UNL     1       1.349  -0.331  -0.175  0.00  0.00    +0.004 A 
ATOM     37  C   UNL     1       0.194   0.428  -0.179  0.00  0.00    +0.000 A 
ENDBRANCH  31  35
ENDBRANCH   1  31
TORSDOF 6
