REMARK  Name = ZINC18227480
REMARK  5 active torsions:
REMARK  status: ('A' for Active; 'I' for Inactive)
REMARK    1  A    between atoms: C_1  and  C_2
REMARK    2  A    between atoms: C_5  and  C_10
REMARK    3  A    between atoms: C_10  and  C_11
REMARK    4  A    between atoms: C_10  and  C_20
REMARK    5  A    between atoms: C_23  and  C_28
REMARK                            x       y       z     vdW  Elec       q    Type
REMARK                         _______ _______ _______ _____ _____    ______ ____
ROOT
ATOM      1  C   UNL     1       0.060  -4.261   0.036  0.00  0.00    +0.097 C 
ENDROOT
BRANCH   1   6
ATOM      2  C   UNL     1      -1.747  -1.681  -4.792  0.00  0.00    +0.063 C 
ATOM      3  C   UNL     1      -1.272  -2.342  -3.523  0.00  0.00    +0.020 A 
ATOM      4  C   UNL     1      -0.879  -1.579  -2.481  0.00  0.00    +0.072 A 
ATOM      5  C   UNL     1      -0.434  -2.191  -1.292  0.00  0.00    +0.190 A 
ATOM      6  C   UNL     1      -0.410  -3.572  -1.219  0.00  0.00    +0.075 A 
ATOM      7  C   UNL     1      -0.828  -4.320  -2.325  0.00  0.00    +0.257 A 
ATOM      8  O   UNL     1      -0.812  -5.540  -2.276  0.00  0.00    -0.267 OA
ATOM      9  N   UNL     1      -1.251  -3.699  -3.441  0.00  0.00    -0.326 N 
ATOM     10  H   UNL     1      -1.542  -4.227  -4.201  0.00  0.00    +0.169 HD
ATOM     11  O   UNL     1      -0.036  -1.439  -0.239  0.00  0.00    -0.287 OA
ENDBRANCH   1   6
BRANCH   1  12
ATOM     12  C   UNL     1      -0.819  -3.855   1.192  0.00  0.00    +0.075 A 
ATOM     13  C   UNL     1      -2.012  -3.195   0.966  0.00  0.00    +0.190 A 
ATOM     14  C   UNL     1      -2.810  -2.829   2.068  0.00  0.00    +0.072 A 
ATOM     15  C   UNL     1      -2.401  -3.126   3.320  0.00  0.00    +0.020 A 
ATOM     16  N   UNL     1      -1.226  -3.775   3.535  0.00  0.00    -0.326 N 
ATOM     17  H   UNL     1      -0.952  -3.978   4.443  0.00  0.00    +0.169 HD
ATOM     18  C   UNL     1      -0.440  -4.146   2.507  0.00  0.00    +0.257 A 
ATOM     19  O   UNL     1       0.609  -4.733   2.723  0.00  0.00    -0.267 OA
ATOM     20  C   UNL     1      -3.257  -2.732   4.496  0.00  0.00    +0.063 C 
ATOM     21  O   UNL     1      -2.409  -2.904  -0.296  0.00  0.00    -0.287 OA
ENDBRANCH   1  12
BRANCH   1  22
ATOM     22  C   UNL     1       1.484  -3.863   0.325  0.00  0.00    -0.031 A 
ATOM     23  C   UNL     1       1.755  -2.636   0.901  0.00  0.00    +0.008 A 
ATOM     24  C   UNL     1       3.060  -2.267   1.168  0.00  0.00    +0.050 A 
ATOM     25  C   UNL     1       4.101  -3.127   0.857  0.00  0.00    +0.166 A 
ATOM     26  C   UNL     1       3.829  -4.363   0.276  0.00  0.00    +0.167 A 
ATOM     27  C   UNL     1       2.518  -4.729   0.017  0.00  0.00    +0.054 A 
ATOM     28  O   UNL     1       5.008  -5.017   0.069  0.00  0.00    -0.453 OA
ATOM     29  C   UNL     1       6.029  -4.005   0.152  0.00  0.00    +0.466 C 
ATOM     30  O   UNL     1       5.452  -3.007   1.014  0.00  0.00    -0.453 OA
ENDBRANCH   1  22
TORSDOF 3
