REMARK  Name = ZINC60212172
REMARK  9 active torsions:
REMARK  status: ('A' for Active; 'I' for Inactive)
REMARK    1  A    between atoms: C_1  and  C_2
REMARK    2  A    between atoms: C_2  and  C_3
REMARK    3  A    between atoms: C_2  and  C_4
REMARK    4  A    between atoms: C_6  and  C_29
REMARK    5  A    between atoms: C_7  and  N_9
REMARK    6  A    between atoms: N_9  and  N_10
REMARK    7  A    between atoms: C_11  and  C_13
REMARK    8  A    between atoms: N_18  and  S_19
REMARK    9  A    between atoms: S_19  and  C_22
REMARK                            x       y       z     vdW  Elec       q    Type
REMARK                         _______ _______ _______ _____ _____    ______ ____
ROOT
ATOM      1  N   UNL     1       0.336  -3.010   4.832  0.00  0.00    -0.233 N 
ATOM      2  C   UNL     1      -0.150  -3.513   5.984  0.00  0.00    +0.248 C 
ATOM      3  O   UNL     1       0.482  -3.394   7.012  0.00  0.00    -0.273 OA
ATOM      4  H   UNL     1      -0.170  -3.105   4.010  0.00  0.00    +0.173 HD
ENDROOT
BRANCH   2   5
ATOM      5  C   UNL     1      -1.480  -4.222   5.995  0.00  0.00    +0.167 C 
ATOM      6  C   UNL     1      -2.616  -3.204   6.230  0.00  0.00    +0.031 C 
ATOM      7  C   UNL     1      -3.592  -3.980   7.154  0.00  0.00    +0.019 C 
ATOM      8  C   UNL     1      -2.609  -4.803   8.023  0.00  0.00    +0.110 C 
ATOM      9  N   UNL     1      -1.521  -5.190   7.101  0.00  0.00    -0.165 NA
BRANCH   9  10
ATOM     10  S   UNL     1      -0.515  -6.493   7.281  0.00  0.00    +0.062 S 
ATOM     11  O   UNL     1       0.610  -6.256   6.446  0.00  0.00    -0.153 OA
ATOM     12  O   UNL     1      -0.392  -6.722   8.678  0.00  0.00    -0.153 OA
BRANCH  10  13
ATOM     13  C   UNL     1      -1.352  -7.893   6.614  0.00  0.00    +0.106 A 
ATOM     14  C   UNL     1      -2.232  -8.612   7.401  0.00  0.00    +0.031 A 
ATOM     15  C   UNL     1      -2.889  -9.709   6.878  0.00  0.00    +0.040 A 
ATOM     16  C   UNL     1      -2.666 -10.089   5.566  0.00  0.00    +0.124 A 
ATOM     17  C   UNL     1      -1.785  -9.368   4.778  0.00  0.00    +0.040 A 
ATOM     18  C   UNL     1      -1.133  -8.268   5.301  0.00  0.00    +0.031 A 
ATOM     19  F   UNL     1      -3.308 -11.162   5.054  0.00  0.00    -0.205 F 
ENDBRANCH  10  13
ENDBRANCH   9  10
ENDBRANCH   2   5
BRANCH   1  20
ATOM     20  N   UNL     1       1.572  -2.350   4.822  0.00  0.00    -0.232 N 
ATOM     21  H   UNL     1       2.078  -2.255   5.644  0.00  0.00    +0.173 HD
BRANCH  20  25
ATOM     22  C   UNL     1       2.289  -1.275   1.548  0.00  0.00    +0.202 A 
ATOM     23  N   UNL     1       3.351  -0.837   2.152  0.00  0.00    -0.200 NA
ATOM     24  C   UNL     1       3.267  -1.162   3.473  0.00  0.00    +0.202 A 
ATOM     25  C   UNL     1       2.069  -1.835   3.643  0.00  0.00    +0.241 A 
ATOM     26  O   UNL     1       1.483  -1.885   2.433  0.00  0.00    -0.423 OA
BRANCH  22  28
ATOM     27  C   UNL     1       1.957   0.372  -0.276  0.00  0.00    +0.017 C 
ATOM     28  C   UNL     1       2.000  -1.116   0.078  0.00  0.00    +0.069 C 
ATOM     29  C   UNL     1       3.099  -1.802  -0.735  0.00  0.00    +0.017 C 
ENDBRANCH  22  28
BRANCH  24  30
ATOM     30  C   UNL     1       4.231  -0.865   4.489  0.00  0.00    +0.124 C 
ATOM     31  N   UNL     1       4.996  -0.629   5.295  0.00  0.00    -0.189 NA
ENDBRANCH  24  30
ENDBRANCH  20  25
ENDBRANCH   1  20
TORSDOF 7
