REMARK  Name = ZINC16488475
REMARK  10 active torsions:
REMARK  status: ('A' for Active; 'I' for Inactive)
REMARK    1  A    between atoms: C_1  and  C_2
REMARK    2  A    between atoms: C_2  and  O_3
REMARK    3  A    between atoms: O_3  and  C_4
REMARK    4  A    between atoms: C_4  and  C_5
REMARK    5  A    between atoms: C_5  and  C_6
REMARK    6  A    between atoms: C_6  and  N_7
REMARK    7  A    between atoms: N_7  and  C_8
REMARK    8  A    between atoms: C_8  and  C_9
REMARK    9  A    between atoms: C_19  and  C_21
REMARK   10  A    between atoms: C_28  and  C_30
REMARK                            x       y       z     vdW  Elec       q    Type
REMARK                         _______ _______ _______ _____ _____    ______ ____
ROOT
ATOM      1  C   UNL     1      -4.869  -7.056  -0.822  0.00  0.00    +0.234 C 
ATOM      2  O   UNL     1      -4.272  -7.640   0.057  0.00  0.00    -0.274 OA
ATOM      3  N   UNL     1      -5.472  -7.753  -1.805  0.00  0.00    -0.289 N 
ATOM      4  C   UNL     1      -6.193  -7.054  -2.880  0.00  0.00    +0.114 C 
ATOM      5  C   UNL     1      -5.464  -7.324  -4.205  0.00  0.00    +0.062 C 
ATOM      6  C   UNL     1      -5.090  -8.769  -4.260  0.00  0.00    -0.003 A 
ATOM      7  C   UNL     1      -5.044  -9.661  -3.233  0.00  0.00    -0.012 A 
ATOM      8  C   UNL     1      -4.651 -10.961  -3.550  0.00  0.00    +0.013 A 
ATOM      9  C   UNL     1      -4.345 -11.282  -4.828  0.00  0.00    +0.046 A 
ATOM     10  S   UNL     1      -4.600  -9.727  -5.670  0.00  0.00    -0.101 S 
ATOM     11  C   UNL     1      -5.412  -9.221  -1.823  0.00  0.00    +0.137 C 
ENDROOT
BRANCH  11  12
ATOM     12  C   UNL     1      -6.756  -9.790  -1.449  0.00  0.00    -0.023 A 
ATOM     13  C   UNL     1      -7.862  -9.524  -2.235  0.00  0.00    +0.007 A 
ATOM     14  C   UNL     1      -9.095 -10.046  -1.893  0.00  0.00    +0.020 A 
ATOM     15  C   UNL     1      -9.223 -10.836  -0.764  0.00  0.00    +0.041 A 
ATOM     16  C   UNL     1      -8.116 -11.102   0.022  0.00  0.00    +0.020 A 
ATOM     17  C   UNL     1      -6.882 -10.584  -0.324  0.00  0.00    +0.007 A 
ATOM     18 CL   UNL     1     -10.771 -11.492  -0.333  0.00  0.00    -0.084 Cl
ENDBRANCH  11  12
BRANCH   1  19
ATOM     19  C   UNL     1      -4.936  -5.550  -0.815  0.00  0.00    +0.203 C 
BRANCH  19  20
ATOM     20  N   UNL     1      -4.209  -5.034   0.348  0.00  0.00    -0.292 N 
ATOM     21  C   UNL     1      -4.856  -4.836   1.514  0.00  0.00    +0.219 C 
ATOM     22  O   UNL     1      -4.270  -4.345   2.455  0.00  0.00    -0.275 OA
BRANCH  21  23
ATOM     23  C   UNL     1      -6.305  -5.225   1.647  0.00  0.00    +0.075 C 
ATOM     24  C   UNL     1      -7.182  -4.162   0.982  0.00  0.00    +0.013 C 
ATOM     25  C   UNL     1      -8.654  -4.557   1.117  0.00  0.00    +0.001 C 
ATOM     26  C   UNL     1      -9.019  -4.665   2.599  0.00  0.00    +0.000 C 
ATOM     27  C   UNL     1      -8.142  -5.728   3.264  0.00  0.00    +0.001 C 
ATOM     28  C   UNL     1      -6.670  -5.333   3.129  0.00  0.00    +0.013 C 
ENDBRANCH  21  23
BRANCH  20  29
ATOM     29  C   UNL     1      -2.779  -4.734   0.242  0.00  0.00    +0.110 C 
BRANCH  29  30
ATOM     30  C   UNL     1      -2.595  -3.318  -0.308  0.00  0.00    +0.047 C 
BRANCH  30  31
ATOM     31  C   UNL     1      -1.101  -3.004  -0.418  0.00  0.00    +0.161 C 
BRANCH  31  32
ATOM     32  O   UNL     1      -0.929  -1.683  -0.933  0.00  0.00    -0.380 OA
BRANCH  32  34
ATOM     33  C   UNL     1       0.501   0.137  -1.631  0.00  0.00    +0.034 C 
ATOM     34  C   UNL     1       0.437  -1.288  -1.075  0.00  0.00    +0.156 C 
ENDBRANCH  32  34
ENDBRANCH  31  32
ENDBRANCH  30  31
ENDBRANCH  29  30
ENDBRANCH  20  29
ENDBRANCH  19  20
ENDBRANCH   1  19
TORSDOF 9
