REMARK  Name = ZINC15223212
REMARK  9 active torsions:
REMARK  status: ('A' for Active; 'I' for Inactive)
REMARK    1  A    between atoms: C_1  and  C_2
REMARK    2  A    between atoms: C_5  and  N_8
REMARK    3  A    between atoms: C_12  and  C_13
REMARK    4  A    between atoms: C_15  and  N_22
REMARK    5  A    between atoms: C_16  and  O_21
REMARK    6  A    between atoms: C_17  and  O_19
REMARK    7  A    between atoms: O_19  and  C_20
REMARK    8  A    between atoms: N_27  and  C_30
REMARK    9  A    between atoms: C_33  and  C_36
REMARK                            x       y       z     vdW  Elec       q    Type
REMARK                         _______ _______ _______ _____ _____    ______ ____
ROOT
ATOM      1  N   UNL     1       0.503  -4.211  -0.096  0.00  0.00    -0.217 N 
ATOM      2  C   UNL     1       0.072  -4.861  -1.197  0.00  0.00    +0.262 C 
ATOM      3  O   UNL     1      -0.308  -4.247  -2.176  0.00  0.00    -0.269 OA
ATOM      4  C   UNL     1       0.077  -6.337  -1.181  0.00  0.00    +0.101 C 
ATOM      5  C   UNL     1      -0.349  -7.072  -2.272  0.00  0.00    +0.026 C 
ATOM      6  C   UNL     1       0.557  -6.994   0.051  0.00  0.00    +0.262 C 
ATOM      7  O   UNL     1       0.591  -8.206   0.140  0.00  0.00    -0.269 OA
ATOM      8  N   UNL     1       0.958  -6.211   1.074  0.00  0.00    -0.217 N 
ATOM      9  C   UNL     1       0.931  -4.874   0.987  0.00  0.00    +0.158 C 
ATOM     10  S   UNL     1       1.466  -3.964   2.335  0.00  0.00    -0.017 S 
ENDROOT
BRANCH   1  15
ATOM     11  C   UNL     1       0.524   1.464  -0.061  0.00  0.00    +0.044 C 
ATOM     12  C   UNL     1       0.518  -0.043  -0.070  0.00  0.00    -0.050 A 
ATOM     13  C   UNL     1       1.714  -0.738  -0.102  0.00  0.00    +0.005 A 
ATOM     14  C   UNL     1       1.712  -2.119  -0.110  0.00  0.00    +0.024 A 
ATOM     15  C   UNL     1       0.508  -2.810  -0.087  0.00  0.00    +0.043 A 
ATOM     16  C   UNL     1      -0.691  -2.110  -0.055  0.00  0.00    +0.024 A 
ATOM     17  C   UNL     1      -0.682  -0.729  -0.041  0.00  0.00    +0.005 A 
ENDBRANCH   1  15
BRANCH   8  18
ATOM     18  C   UNL     1       1.417  -6.811   2.254  0.00  0.00    +0.043 A 
ATOM     19  C   UNL     1       2.645  -7.459   2.272  0.00  0.00    +0.024 A 
ATOM     20  C   UNL     1       3.095  -8.050   3.437  0.00  0.00    +0.005 A 
ATOM     21  C   UNL     1       2.324  -7.995   4.584  0.00  0.00    -0.050 A 
ATOM     22  C   UNL     1       1.101  -7.351   4.569  0.00  0.00    +0.005 A 
ATOM     23  C   UNL     1       0.648  -6.753   3.409  0.00  0.00    +0.024 A 
ATOM     24  C   UNL     1       2.818  -8.641   5.853  0.00  0.00    +0.044 C 
ENDBRANCH   8  18
BRANCH   5  25
ATOM     25  C   UNL     1      -0.550  -8.515  -2.147  0.00  0.00    -0.018 A 
ATOM     26  C   UNL     1      -1.246  -9.037  -1.047  0.00  0.00    +0.044 A 
ATOM     27  C   UNL     1      -1.434 -10.395  -0.934  0.00  0.00    +0.172 A 
ATOM     28  C   UNL     1      -0.934 -11.253  -1.907  0.00  0.00    +0.189 A 
ATOM     29  C   UNL     1      -0.239 -10.743  -3.005  0.00  0.00    +0.164 A 
ATOM     30  C   UNL     1      -0.051  -9.383  -3.131  0.00  0.00    +0.057 A 
BRANCH  27  31
ATOM     31  N   UNL     1      -2.169 -10.945   0.227  0.00  0.00    +0.060 N 
ATOM     32  O   UNL     1      -2.521 -10.211   1.122  0.00  0.00    -0.126 OA
ATOM     33  O   UNL     1      -2.418 -12.127   0.281  0.00  0.00    -0.126 OA
ENDBRANCH  27  31
BRANCH  29  34
ATOM     34  O   UNL     1       0.247 -11.588  -3.953  0.00  0.00    -0.491 OA
ATOM     35  C   UNL     1       0.948 -10.997  -5.049  0.00  0.00    +0.277 C 
ENDBRANCH  29  34
BRANCH  28  36
ATOM     36  O   UNL     1      -1.122 -12.592  -1.789  0.00  0.00    -0.502 OA
ATOM     37  H   UNL     1      -1.935 -12.913  -2.203  0.00  0.00    +0.292 HD
ENDBRANCH  28  36
ENDBRANCH   5  25
TORSDOF 6
