REMARK  Name = ZINC19928367
REMARK  13 active torsions:
REMARK  status: ('A' for Active; 'I' for Inactive)
REMARK    1  A    between atoms: C_1  and  C_2
REMARK    2  A    between atoms: C_2  and  N_3
REMARK    3  A    between atoms: N_3  and  C_4
REMARK    4  A    between atoms: N_3  and  C_6
REMARK    5  A    between atoms: C_4  and  C_5
REMARK    6  A    between atoms: C_6  and  C_7
REMARK    7  A    between atoms: C_8  and  C_18
REMARK    8  A    between atoms: N_20  and  N_21
REMARK    9  A    between atoms: C_22  and  C_23
REMARK   10  A    between atoms: C_26  and  O_29
REMARK   11  A    between atoms: O_29  and  C_30
REMARK   12  A    between atoms: C_30  and  C_31
REMARK   13  A    between atoms: C_34  and  C_37
REMARK                            x       y       z     vdW  Elec       q    Type
REMARK                         _______ _______ _______ _____ _____    ______ ____
ROOT
ATOM      1  C   UNL     1      -2.427  -1.161  -1.865  0.00  0.00    +0.284 C 
ATOM      2  O   UNL     1      -1.290  -1.023  -2.275  0.00  0.00    -0.267 OA
ATOM      3  N   UNL     1      -3.455  -1.209  -2.735  0.00  0.00    -0.202 N 
ATOM      4  H   UNL     1      -4.475  -1.404  -2.372  0.00  0.00    +0.178 HD
ENDROOT
BRANCH   1   6
ATOM      5  C   UNL     1      -2.697  -0.260   0.501  0.00  0.00    +0.079 A 
ATOM      6  C   UNL     1      -2.680  -1.275  -0.421  0.00  0.00    +0.154 A 
ATOM      7  N   UNL     1      -2.948  -2.421   0.288  0.00  0.00    -0.183 N 
ATOM      8  N   UNL     1      -3.108  -2.094   1.522  0.00  0.00    -0.058 NA
ATOM      9  N   UNL     1      -2.960  -0.827   1.679  0.00  0.00    -0.135 NA
ATOM     10  C   UNL     1      -3.034  -3.713  -0.239  0.00  0.00    +0.241 A 
ATOM     11  C   UNL     1      -3.421  -4.917   0.501  0.00  0.00    +0.206 A 
ATOM     12  N   UNL     1      -3.387  -5.932  -0.319  0.00  0.00    -0.032 NA
ATOM     13  O   UNL     1      -2.988  -5.449  -1.589  0.00  0.00    -0.239 OA
ATOM     14  N   UNL     1      -2.787  -4.051  -1.473  0.00  0.00    -0.027 NA
ATOM     15  N   UNL     1      -3.767  -4.970   1.847  0.00  0.00    -0.337 N 
ATOM     16  H   UNL     1      -4.043  -5.930   2.307  0.00  0.00    +0.144 HD
ATOM     17  H   UNL     1      -3.763  -4.051   2.452  0.00  0.00    +0.144 HD
BRANCH   5  18
ATOM     18  C   UNL     1      -2.460   1.204   0.236  0.00  0.00    -0.018 C 
BRANCH  18  19
ATOM     19  N   UNL     1      -3.738   1.859  -0.073  0.00  0.00    +0.383 N 
ATOM     20  H   UNL     1      -4.448   1.610   0.729  0.00  0.00    -0.081 HD
BRANCH  19  22
ATOM     21  C   UNL     1      -3.482   3.852   1.327  0.00  0.00    -0.017 C 
ATOM     22  C   UNL     1      -3.586   3.320  -0.104  0.00  0.00    -0.082 C 
ENDBRANCH  19  22
BRANCH  19  23
ATOM     23  C   UNL     1      -4.293   1.361  -1.339  0.00  0.00    -0.082 C 
ATOM     24  C   UNL     1      -5.749   1.812  -1.470  0.00  0.00    -0.017 C 
ENDBRANCH  19  23
ENDBRANCH  18  19
ENDBRANCH   5  18
ENDBRANCH   1   6
BRANCH   3  25
ATOM     25  N   UNL     1      -3.225  -1.011  -4.103  0.00  0.00    -0.187 NA
ATOM     26  C   UNL     1      -4.215  -1.058  -4.941  0.00  0.00    +0.138 C 
BRANCH  26  27
ATOM     27  C   UNL     1      -3.974  -0.849  -6.380  0.00  0.00    -0.005 A 
ATOM     28  C   UNL     1      -2.680  -0.595  -6.844  0.00  0.00    +0.013 A 
ATOM     29  C   UNL     1      -2.458  -0.407  -8.191  0.00  0.00    +0.046 A 
ATOM     30  C   UNL     1      -3.519  -0.458  -9.086  0.00  0.00    +0.121 A 
ATOM     31  C   UNL     1      -4.807  -0.703  -8.629  0.00  0.00    +0.046 A 
ATOM     32  C   UNL     1      -5.038  -0.899  -7.284  0.00  0.00    +0.013 A 
BRANCH  30  33
ATOM     33  O   UNL     1      -3.296  -0.265 -10.412  0.00  0.00    -0.487 OA
BRANCH  33  34
ATOM     34  C   UNL     1      -1.947  -0.017 -10.814  0.00  0.00    +0.264 C 
BRANCH  34  35
ATOM     35  C   UNL     1      -1.895   0.170 -12.308  0.00  0.00    -0.010 A 
ATOM     36  C   UNL     1      -1.691  -0.919 -13.134  0.00  0.00    +0.007 A 
ATOM     37  C   UNL     1      -1.647  -0.749 -14.505  0.00  0.00    +0.004 A 
ATOM     38  C   UNL     1      -1.797   0.513 -15.050  0.00  0.00    -0.050 A 
ATOM     39  C   UNL     1      -1.996   1.603 -14.223  0.00  0.00    +0.004 A 
ATOM     40  C   UNL     1      -2.045   1.432 -12.852  0.00  0.00    +0.007 A 
ATOM     41  C   UNL     1      -1.745   0.700 -16.544  0.00  0.00    +0.044 C 
ENDBRANCH  34  35
ENDBRANCH  33  34
ENDBRANCH  30  33
ENDBRANCH  26  27
ENDBRANCH   3  25
TORSDOF 10
