REMARK  Name = ZINC14041278
REMARK  10 active torsions:
REMARK  status: ('A' for Active; 'I' for Inactive)
REMARK    1  A    between atoms: C_1  and  C_2
REMARK    2  A    between atoms: C_2  and  C_3
REMARK    3  A    between atoms: C_3  and  C_4
REMARK    4  A    between atoms: C_4  and  O_5
REMARK    5  A    between atoms: O_5  and  C_6
REMARK    6  A    between atoms: C_9  and  C_13
REMARK    7  A    between atoms: N_15  and  N_16
REMARK    8  A    between atoms: C_17  and  C_19
REMARK    9  A    between atoms: C_19  and  O_20
REMARK   10  A    between atoms: O_20  and  C_21
REMARK                            x       y       z     vdW  Elec       q    Type
REMARK                         _______ _______ _______ _____ _____    ______ ____
ROOT
ATOM      1  C   UNL     1       2.278   4.283   0.003  0.00  0.00    +0.260 C 
ATOM      2  O   UNL     1       3.340   3.689  -0.010  0.00  0.00    -0.269 OA
ATOM      3  N   UNL     1       1.121   3.593   0.011  0.00  0.00    -0.230 N 
ATOM      4  H   UNL     1       0.274   4.067   0.021  0.00  0.00    +0.173 HD
ENDROOT
BRANCH   1   8
ATOM      5  C   UNL     1       2.220   8.530   0.026  0.00  0.00    +0.134 A 
ATOM      6  C   UNL     1       1.025   7.820   0.034  0.00  0.00    +0.047 A 
ATOM      7  C   UNL     1       1.040   6.443   0.021  0.00  0.00    +0.017 A 
ATOM      8  C   UNL     1       2.258   5.759   0.011  0.00  0.00    +0.039 A 
ATOM      9  C   UNL     1       3.458   6.476   0.004  0.00  0.00    +0.032 A 
ATOM     10  C   UNL     1       3.435   7.853   0.011  0.00  0.00    +0.060 A 
ATOM     11 BR   UNL     1       5.057   8.825   0.001  0.00  0.00    -0.046 Br
BRANCH   5  12
ATOM     12  O   UNL     1       2.201   9.887   0.034  0.00  0.00    -0.491 OA
BRANCH  12  13
ATOM     13  C   UNL     1       0.918  10.518   0.049  0.00  0.00    +0.229 C 
BRANCH  13  14
ATOM     14  C   UNL     1       1.098  12.037   0.056  0.00  0.00    +0.041 C 
BRANCH  14  16
ATOM     15  C   UNL     1      -0.096  14.232   0.079  0.00  0.00    +0.004 C 
ATOM     16  C   UNL     1      -0.275  12.712   0.072  0.00  0.00    -0.000 C 
ENDBRANCH  14  16
ENDBRANCH  13  14
ENDBRANCH  12  13
ENDBRANCH   5  12
ENDBRANCH   1   8
BRANCH   3  17
ATOM     17  N   UNL     1       1.139   2.192   0.003  0.00  0.00    -0.231 N 
ATOM     18  C   UNL     1      -0.018   1.503   0.010  0.00  0.00    +0.267 C 
ATOM     19  O   UNL     1      -1.077   2.095   0.018  0.00  0.00    -0.271 OA
ATOM     20  H   UNL     1       1.986   1.719  -0.008  0.00  0.00    +0.173 HD
BRANCH  18  21
ATOM     21  C   UNL     1       0.002  -0.004   0.002  0.00  0.00    +0.326 C 
BRANCH  21  22
ATOM     22  O   UNL     1      -1.339  -0.499   0.012  0.00  0.00    -0.483 OA
BRANCH  22  23
ATOM     23  C   UNL     1      -1.498  -1.848   0.006  0.00  0.00    +0.121 A 
ATOM     24  C   UNL     1      -0.388  -2.679  -0.014  0.00  0.00    +0.047 A 
ATOM     25  C   UNL     1      -0.552  -4.051  -0.014  0.00  0.00    +0.019 A 
ATOM     26  C   UNL     1      -1.824  -4.596  -0.005  0.00  0.00    +0.018 A 
ATOM     27  C   UNL     1      -2.933  -3.769   0.010  0.00  0.00    +0.019 A 
ATOM     28  C   UNL     1      -2.772  -2.397   0.016  0.00  0.00    +0.047 A 
ATOM     29 BR   UNL     1      -2.046  -6.474  -0.011  0.00  0.00    -0.050 Br
ENDBRANCH  22  23
ENDBRANCH  21  22
ENDBRANCH  18  21
ENDBRANCH   3  17
TORSDOF 9
