REMARK  Name = ZINC11909244
REMARK  8 active torsions:
REMARK  status: ('A' for Active; 'I' for Inactive)
REMARK    1  A    between atoms: C_1  and  O_2
REMARK    2  A    between atoms: O_2  and  C_3
REMARK    3  A    between atoms: C_5  and  N_27
REMARK    4  A    between atoms: C_18  and  C_19
REMARK    5  A    between atoms: C_18  and  N_63
REMARK    6  A    between atoms: C_24  and  O_25
REMARK    7  A    between atoms: C_28  and  C_30
REMARK    8  A    between atoms: C_30  and  C_31
REMARK                            x       y       z     vdW  Elec       q    Type
REMARK                         _______ _______ _______ _____ _____    ______ ____
ROOT
ATOM      1  C   UNL     1      -3.308   2.454  -3.607  0.00  0.00    +0.153 C 
ATOM      2  C   UNL     1      -4.404   2.958  -4.571  0.00  0.00    +0.133 C 
ATOM      3  C   UNL     1      -4.448   4.458  -4.373  0.00  0.00    -0.021 A 
ATOM      4  C   UNL     1      -5.419   5.382  -4.723  0.00  0.00    +0.006 A 
ATOM      5  C   UNL     1      -5.239   6.721  -4.440  0.00  0.00    +0.000 A 
ATOM      6  C   UNL     1      -4.086   7.143  -3.805  0.00  0.00    +0.000 A 
ATOM      7  C   UNL     1      -3.116   6.225  -3.455  0.00  0.00    +0.004 A 
ATOM      8  C   UNL     1      -3.294   4.880  -3.737  0.00  0.00    -0.034 A 
ATOM      9  C   UNL     1      -2.404   3.692  -3.463  0.00  0.00    +0.021 C 
ATOM     10  C   UNL     1      -1.268   3.630  -4.481  0.00  0.00    -0.005 C 
ATOM     11  C   UNL     1      -0.366   2.435  -4.161  0.00  0.00    -0.077 C 
ATOM     12  C   UNL     1      -0.921   2.565  -1.804  0.00  0.00    -0.077 C 
ATOM     13  C   UNL     1      -1.841   3.764  -2.045  0.00  0.00    -0.005 C 
ATOM     14  N   UNL     1       0.176   2.597  -2.795  0.00  0.00    +0.383 N 
ATOM     15  H   UNL     1       0.655   3.503  -2.733  0.00  0.00    -0.081 HD
ENDROOT
BRANCH   2  16
ATOM     16  N   UNL     1      -4.049   2.638  -5.956  0.00  0.00    -0.306 N 
ATOM     17  C   UNL     1      -5.009   2.567  -6.899  0.00  0.00    +0.218 C 
ATOM     18  O   UNL     1      -6.168   2.768  -6.601  0.00  0.00    -0.275 OA
ATOM     19  H   UNL     1      -3.122   2.478  -6.194  0.00  0.00    +0.149 HD
BRANCH  17  20
ATOM     20  C   UNL     1      -4.644   2.239  -8.323  0.00  0.00    +0.138 C 
BRANCH  20  21
ATOM     21  C   UNL     1      -5.890   2.221  -9.170  0.00  0.00    -0.001 A 
ATOM     22  C   UNL     1      -6.471   3.237  -9.855  0.00  0.00    +0.011 A 
ATOM     23  C   UNL     1      -7.625   2.987 -10.574  0.00  0.00    +0.008 A 
ATOM     24  C   UNL     1      -8.141   1.734 -10.573  0.00  0.00    +0.045 A 
ATOM     25  S   UNL     1      -6.980   0.857  -9.539  0.00  0.00    -0.101 S 
ENDBRANCH  20  21
ENDBRANCH  17  20
ENDBRANCH   2  16
BRANCH   1  27
ATOM     26  C   UNL     1      -4.128   0.687  -2.211  0.00  0.00    +0.194 C 
ATOM     27  O   UNL     1      -3.870   2.086  -2.346  0.00  0.00    -0.377 OA
ENDBRANCH   1  27
BRANCH  14  28
ATOM     28  C   UNL     1       1.147   1.521  -2.507  0.00  0.00    -0.039 C 
BRANCH  28  29
ATOM     29  C   UNL     1       1.842   1.830  -1.206  0.00  0.00    -0.021 A 
ATOM     30  C   UNL     1       3.096   2.409  -1.213  0.00  0.00    +0.025 A 
ATOM     31  C   UNL     1       3.735   2.693  -0.019  0.00  0.00    +0.041 A 
ATOM     32  C   UNL     1       3.119   2.397   1.184  0.00  0.00    +0.023 A 
ATOM     33  C   UNL     1       1.863   1.823   1.195  0.00  0.00    +0.047 A 
ATOM     34  C   UNL     1       1.223   1.532  -0.001  0.00  0.00    +0.118 A 
ATOM     35 CL   UNL     1       5.311   3.420  -0.030  0.00  0.00    -0.084 Cl
BRANCH  34  36
ATOM     36  O   UNL     1      -0.011   0.963   0.007  0.00  0.00    -0.507 OA
ATOM     37  H   UNL     1       0.002  -0.004   0.002  0.00  0.00    +0.292 HD
ENDBRANCH  34  36
ENDBRANCH  28  29
ENDBRANCH  14  28
TORSDOF 7
