REMARK  Name = ZINC41098700
REMARK  9 active torsions:
REMARK  status: ('A' for Active; 'I' for Inactive)
REMARK    1  A    between atoms: C_1  and  C_2
REMARK    2  A    between atoms: C_2  and  C_4
REMARK    3  A    between atoms: C_2  and  N_10
REMARK    4  A    between atoms: C_11  and  C_13
REMARK    5  A    between atoms: C_13  and  C_15
REMARK    6  A    between atoms: C_13  and  S_16
REMARK    7  A    between atoms: S_16  and  C_17
REMARK    8  A    between atoms: C_20  and  C_23
REMARK    9  A    between atoms: N_21  and  N_22
REMARK                            x       y       z     vdW  Elec       q    Type
REMARK                         _______ _______ _______ _____ _____    ______ ____
ROOT
ATOM      1  S   UNL     1       4.428  -1.693   1.916  0.00  0.00    -0.072 S 
ENDROOT
BRANCH   1   2
ATOM      2  C   UNL     1       5.087  -2.370   3.403  0.00  0.00    +0.209 A 
ATOM      3  N   UNL     1       4.488  -2.420   4.570  0.00  0.00    -0.121 NA
ATOM      4  N   UNL     1       5.258  -2.981   5.433  0.00  0.00    -0.132 NA
ATOM      5  C   UNL     1       6.385  -3.319   4.873  0.00  0.00    +0.154 A 
ATOM      6  N   UNL     1       6.314  -2.947   3.559  0.00  0.00    -0.228 N 
BRANCH   5   7
ATOM      7  C   UNL     1       7.548  -3.999   5.547  0.00  0.00    +0.059 C 
ATOM      8  C   UNL     1       7.097  -5.351   6.103  0.00  0.00    +0.011 C 
ATOM      9  C   UNL     1       8.278  -6.042   6.787  0.00  0.00    +0.001 C 
ATOM     10  C   UNL     1       8.787  -5.164   7.933  0.00  0.00    +0.000 C 
ATOM     11  C   UNL     1       9.239  -3.812   7.378  0.00  0.00    +0.001 C 
ATOM     12  C   UNL     1       8.058  -3.122   6.693  0.00  0.00    +0.011 C 
ENDBRANCH   5   7
BRANCH   6  13
ATOM     13  N   UNL     1       7.274  -3.116   2.601  0.00  0.00    -0.295 N 
ATOM     14  H   UNL     1       7.895  -2.322   2.567  0.00  0.00    +0.163 HD
ATOM     15  H   UNL     1       7.788  -3.971   2.751  0.00  0.00    +0.163 HD
ENDBRANCH   6  13
ENDBRANCH   1   2
BRANCH   1  16
ATOM     16  C   UNL     1       2.783  -1.099   2.395  0.00  0.00    +0.137 C 
ATOM     17  C   UNL     1       2.926   0.041   3.405  0.00  0.00    +0.029 C 
BRANCH  16  19
ATOM     18  N   UNL     1       0.711  -0.489   1.189  0.00  0.00    -0.308 N 
ATOM     19  C   UNL     1       2.054  -0.600   1.174  0.00  0.00    +0.227 C 
ATOM     20  O   UNL     1       2.676  -0.297   0.177  0.00  0.00    -0.275 OA
ATOM     21  H   UNL     1       0.213  -0.731   1.986  0.00  0.00    +0.149 HD
BRANCH  18  23
ATOM     22  C   UNL     1      -0.019   1.526   0.010  0.00  0.00    +0.033 C 
ATOM     23  C   UNL     1       0.002  -0.004   0.002  0.00  0.00    +0.100 C 
BRANCH  23  24
ATOM     24  C   UNL     1      -1.412  -0.526   0.013  0.00  0.00    -0.027 A 
ATOM     25  C   UNL     1      -2.123  -0.571   1.197  0.00  0.00    +0.005 A 
ATOM     26  C   UNL     1      -3.420  -1.049   1.207  0.00  0.00    +0.000 A 
ATOM     27  C   UNL     1      -4.006  -1.482   0.032  0.00  0.00    +0.000 A 
ATOM     28  C   UNL     1      -3.295  -1.436  -1.153  0.00  0.00    +0.000 A 
ATOM     29  C   UNL     1      -2.000  -0.954  -1.163  0.00  0.00    +0.005 A 
ENDBRANCH  23  24
ENDBRANCH  18  23
ENDBRANCH  16  19
ENDBRANCH   1  16
TORSDOF 7
