REMARK  Name = ZINC35097253
REMARK  13 active torsions:
REMARK  status: ('A' for Active; 'I' for Inactive)
REMARK    1  A    between atoms: C_1  and  C_2
REMARK    2  A    between atoms: C_2  and  C_3
REMARK    3  A    between atoms: C_3  and  C_4
REMARK    4  A    between atoms: N_6  and  C_7
REMARK    5  A    between atoms: N_6  and  C_24
REMARK    6  A    between atoms: C_7  and  C_8
REMARK    7  A    between atoms: C_8  and  N_9
REMARK    8  A    between atoms: C_15  and  C_17
REMARK    9  A    between atoms: C_17  and  C_18
REMARK   10  A    between atoms: C_18  and  C_19
REMARK   11  A    between atoms: C_24  and  C_25
REMARK   12  A    between atoms: C_33  and  C_34
REMARK   13  A    between atoms: C_33  and  C_35
REMARK                            x       y       z     vdW  Elec       q    Type
REMARK                         _______ _______ _______ _____ _____    ______ ____
ROOT
ATOM      1  C   UNL     1       1.863  -2.363  -2.118  0.00  0.00    +0.123 C 
ENDROOT
BRANCH   1   4
ATOM      2  C   UNL     1       0.391  -0.423  -2.208  0.00  0.00    +0.216 C 
ATOM      3  O   UNL     1       0.088  -0.633  -1.053  0.00  0.00    -0.276 OA
ATOM      4  N   UNL     1       1.310  -1.199  -2.815  0.00  0.00    -0.296 N 
BRANCH   2   5
ATOM      5  C   UNL     1      -0.261   0.706  -2.965  0.00  0.00    +0.096 C 
BRANCH   5   7
ATOM      6  C   UNL     1      -1.842   2.632  -2.792  0.00  0.00    +0.004 C 
ATOM      7  C   UNL     1      -1.181   1.486  -2.024  0.00  0.00    +0.006 C 
ENDBRANCH   5   7
ENDBRANCH   2   5
BRANCH   4   8
ATOM      8  C   UNL     1       1.757  -0.879  -4.173  0.00  0.00    +0.138 C 
BRANCH   8   9
ATOM      9  C   UNL     1       0.812  -1.496  -5.172  0.00  0.00    -0.053 C 
ATOM     10  C   UNL     1      -0.161  -0.799  -5.711  0.00  0.00    -0.025 C 
ATOM     11  C   UNL     1      -1.091  -1.457  -6.701  0.00  0.00    +0.031 C 
ATOM     12  C   UNL     1      -0.637  -2.901  -6.957  0.00  0.00    -0.000 C 
ATOM     13  C   UNL     1       0.882  -3.020  -7.167  0.00  0.00    +0.012 C 
ATOM     14  C   UNL     1       0.953  -2.947  -5.598  0.00  0.00    +0.022 C 
ATOM     15  C   UNL     1      -0.421  -3.652  -5.626  0.00  0.00    -0.025 C 
ATOM     16  C   UNL     1      -0.335  -5.171  -5.780  0.00  0.00    +0.012 C 
ATOM     17  C   UNL     1      -1.369  -3.214  -4.508  0.00  0.00    +0.012 C 
ENDBRANCH   8   9
ENDBRANCH   4   8
ENDBRANCH   1   4
BRANCH   1  18
ATOM     18  C   UNL     1       0.956  -3.574  -2.349  0.00  0.00    +0.103 C 
BRANCH  18  19
ATOM     19  N   UNL     1       1.493  -4.733  -1.623  0.00  0.00    -0.298 NA
ATOM     20  C   UNL     1       1.437  -4.518  -0.171  0.00  0.00    +0.103 C 
ATOM     21  C   UNL     1       2.167  -5.662   0.540  0.00  0.00    +0.123 C 
ATOM     22  N   UNL     1       1.599  -6.937   0.078  0.00  0.00    -0.299 N 
ATOM     23  C   UNL     1       1.495  -7.169  -1.371  0.00  0.00    +0.123 C 
ATOM     24  C   UNL     1       0.791  -5.965  -2.007  0.00  0.00    +0.103 C 
ATOM     25  C   UNL     1       1.185  -7.869   0.959  0.00  0.00    +0.216 C 
ATOM     26  O   UNL     1       1.278  -7.662   2.150  0.00  0.00    -0.276 OA
BRANCH  25  27
ATOM     27  C   UNL     1       0.605  -9.169   0.464  0.00  0.00    +0.096 C 
BRANCH  27  28
ATOM     28  C   UNL     1       0.217 -10.043   1.659  0.00  0.00    +0.013 C 
BRANCH  28  29
ATOM     29  C   UNL     1      -0.371 -11.363   1.156  0.00  0.00    -0.011 C 
ATOM     30  C   UNL     1      -1.728 -11.108   0.467  0.00  0.00    +0.003 C 
ATOM     31  C   UNL     1      -2.592 -12.330   0.866  0.00  0.00    +0.000 C 
ATOM     32  C   UNL     1      -2.167 -12.584   2.334  0.00  0.00    +0.000 C 
ATOM     33  C   UNL     1      -0.650 -12.301   2.343  0.00  0.00    +0.003 C 
ENDBRANCH  28  29
ENDBRANCH  27  28
ENDBRANCH  25  27
ENDBRANCH  18  19
ENDBRANCH   1  18
TORSDOF 10
