REMARK  Name = ZINC02108705
REMARK  7 active torsions:
REMARK  status: ('A' for Active; 'I' for Inactive)
REMARK    1  A    between atoms: C_1  and  C_2
REMARK    2  A    between atoms: C_2  and  O_3
REMARK    3  A    between atoms: O_3  and  C_4
REMARK    4  A    between atoms: C_9  and  C_10
REMARK    5  A    between atoms: N_29  and  C_32
REMARK    6  A    between atoms: C_32  and  C_33
REMARK    7  A    between atoms: C_33  and  C_34
REMARK                            x       y       z     vdW  Elec       q    Type
REMARK                         _______ _______ _______ _____ _____    ______ ____
ROOT
ATOM      1  C   UNL     1       2.396  -0.151  -0.764  0.00  0.00    +0.157 C 
ATOM      2  C   UNL     1       2.634   1.302  -0.421  0.00  0.00    +0.046 A 
ATOM      3  C   UNL     1       1.652   2.147  -0.038  0.00  0.00    -0.015 A 
ATOM      4  C   UNL     1       2.272   3.434   0.202  0.00  0.00    +0.003 A 
ATOM      5  C   UNL     1       1.763   4.670   0.613  0.00  0.00    +0.010 A 
ATOM      6  C   UNL     1       2.661   5.701   0.738  0.00  0.00    +0.001 A 
ATOM      7  C   UNL     1       4.011   5.537   0.473  0.00  0.00    +0.002 A 
ATOM      8  C   UNL     1       4.542   4.326   0.066  0.00  0.00    +0.026 A 
ATOM      9  C   UNL     1       3.654   3.261  -0.070  0.00  0.00    +0.047 A 
ATOM     10  N   UNL     1       3.834   1.960  -0.443  0.00  0.00    -0.356 N 
ATOM     11  H   UNL     1       4.684   1.562  -0.687  0.00  0.00    +0.166 HD
ATOM     12  C   UNL     1       0.199   1.771   0.095  0.00  0.00    +0.069 C 
ATOM     13  C   UNL     1       0.086   0.241   0.158  0.00  0.00    +0.167 C 
ATOM     14  N   UNL     1       0.935  -0.346  -0.878  0.00  0.00    -0.276 N 
ATOM     15  C   UNL     1       0.481  -1.048  -1.901  0.00  0.00    +0.234 C 
ATOM     16  O   UNL     1       1.278  -1.434  -2.729  0.00  0.00    -0.274 OA
ATOM     17  C   UNL     1      -0.959  -1.391  -2.106  0.00  0.00    +0.203 C 
ATOM     18  N   UNL     1      -1.798  -0.893  -1.029  0.00  0.00    -0.291 N 
ATOM     19  C   UNL     1      -1.343  -0.165  -0.011  0.00  0.00    +0.237 C 
ATOM     20  O   UNL     1      -2.137   0.191   0.833  0.00  0.00    -0.274 OA
ENDROOT
BRANCH   1  26
ATOM     21  C   UNL     1       3.120  -2.390   0.102  0.00  0.00    +0.126 A 
ATOM     22  C   UNL     1       3.631  -3.198   1.108  0.00  0.00    +0.046 A 
ATOM     23  C   UNL     1       3.956  -2.651   2.334  0.00  0.00    +0.004 A 
ATOM     24  C   UNL     1       3.777  -1.298   2.557  0.00  0.00    +0.001 A 
ATOM     25  C   UNL     1       3.273  -0.490   1.555  0.00  0.00    +0.009 A 
ATOM     26  C   UNL     1       2.947  -1.033   0.327  0.00  0.00    +0.020 A 
BRANCH  21  27
ATOM     27  O   UNL     1       2.795  -2.928  -1.103  0.00  0.00    -0.492 OA
BRANCH  27  29
ATOM     28  C   UNL     1       2.580  -4.751  -2.674  0.00  0.00    +0.048 C 
ATOM     29  C   UNL     1       3.000  -4.332  -1.264  0.00  0.00    +0.225 C 
ENDBRANCH  27  29
ENDBRANCH  21  27
ENDBRANCH   1  26
BRANCH  18  30
ATOM     30  C   UNL     1      -3.228  -1.210  -1.064  0.00  0.00    +0.113 C 
BRANCH  30  31
ATOM     31  C   UNL     1      -3.975  -0.115  -1.827  0.00  0.00    +0.054 C 
BRANCH  31  32
ATOM     32  C   UNL     1      -5.446  -0.442  -1.864  0.00  0.00    -0.046 A 
ATOM     33  C   UNL     1      -5.962  -1.190  -2.905  0.00  0.00    +0.004 A 
ATOM     34  C   UNL     1      -7.310  -1.494  -2.936  0.00  0.00    +0.000 A 
ATOM     35  C   UNL     1      -8.144  -1.041  -1.931  0.00  0.00    +0.000 A 
ATOM     36  C   UNL     1      -7.629  -0.288  -0.893  0.00  0.00    +0.000 A 
ATOM     37  C   UNL     1      -6.279   0.012  -0.859  0.00  0.00    +0.004 A 
ENDBRANCH  31  32
ENDBRANCH  30  31
ENDBRANCH  18  30
TORSDOF 6
