REMARK  Name = ZINC09595345
REMARK  12 active torsions:
REMARK  status: ('A' for Active; 'I' for Inactive)
REMARK    1  A    between atoms: C_1  and  C_2
REMARK    2  A    between atoms: C_2  and  C_3
REMARK    3  A    between atoms: C_3  and  C_4
REMARK    4  A    between atoms: C_4  and  N_64
REMARK    5  A    between atoms: C_5  and  C_6
REMARK    6  A    between atoms: C_5  and  N_64
REMARK    7  A    between atoms: C_18  and  C_19
REMARK    8  A    between atoms: C_18  and  N_64
REMARK    9  A    between atoms: N_21  and  C_22
REMARK   10  A    between atoms: C_23  and  C_34
REMARK   11  A    between atoms: N_25  and  C_28
REMARK   12  A    between atoms: C_26  and  C_27
REMARK                            x       y       z     vdW  Elec       q    Type
REMARK                         _______ _______ _______ _____ _____    ______ ____
ROOT
ATOM      1  N   UNL     1       2.864   5.652   0.785  0.00  0.00    +0.390 N 
ATOM      2  H   UNL     1       1.943   6.041   0.551  0.00  0.00    -0.081 HD
ENDROOT
BRANCH   1   3
ATOM      3  C   UNL     1       3.101   5.820   2.235  0.00  0.00    -0.078 C 
BRANCH   3   4
ATOM      4  C   UNL     1       4.420   5.160   2.643  0.00  0.00    -0.019 C 
BRANCH   4   6
ATOM      5  C   UNL     1       5.938   4.650   4.560  0.00  0.00    +0.004 C 
ATOM      6  C   UNL     1       4.619   5.310   4.152  0.00  0.00    -0.005 C 
ENDBRANCH   4   6
ENDBRANCH   3   4
ENDBRANCH   1   3
BRANCH   1   7
ATOM      7  C   UNL     1       2.881   4.216   0.434  0.00  0.00    -0.003 C 
BRANCH   7   8
ATOM      8  C   UNL     1       1.683   3.548   1.057  0.00  0.00    +0.094 A 
ATOM      9  N   UNL     1       1.500   2.220   0.840  0.00  0.00    -0.312 N 
ATOM     10  H   UNL     1       2.135   1.730   0.294  0.00  0.00    +0.170 HD
ATOM     11  C   UNL     1       0.439   1.573   1.377  0.00  0.00    +0.259 A 
ATOM     12  O   UNL     1       0.263   0.383   1.190  0.00  0.00    -0.267 OA
ATOM     13  C   UNL     1      -0.496   2.365   2.190  0.00  0.00    +0.065 A 
ATOM     14  C   UNL     1      -1.615   1.795   2.792  0.00  0.00    +0.015 A 
ATOM     15  C   UNL     1      -2.455   2.583   3.548  0.00  0.00    +0.001 A 
ATOM     16  C   UNL     1      -2.190   3.935   3.719  0.00  0.00    +0.002 A 
ATOM     17  C   UNL     1      -1.087   4.517   3.137  0.00  0.00    +0.028 A 
ATOM     18  C   UNL     1      -0.220   3.740   2.366  0.00  0.00    +0.078 A 
ATOM     19  N   UNL     1       0.878   4.272   1.774  0.00  0.00    -0.236 NA
ENDBRANCH   7   8
ENDBRANCH   1   7
BRANCH   1  20
ATOM     20  C   UNL     1       3.900   6.373   0.017  0.00  0.00    +0.019 C 
BRANCH  20  21
ATOM     21  C   UNL     1       3.636   7.853   0.118  0.00  0.00    +0.201 C 
ATOM     22  O   UNL     1       2.674   8.256   0.738  0.00  0.00    -0.278 OA
ATOM     23  N   UNL     1       4.468   8.728  -0.479  0.00  0.00    -0.284 N 
ATOM     24  H   UNL     1       5.202   8.405  -1.024  0.00  0.00    +0.155 HD
BRANCH  23  25
ATOM     25  C   UNL     1       4.272  10.112  -0.313  0.00  0.00    +0.078 A 
ATOM     26  C   UNL     1       3.040  10.783  -0.356  0.00  0.00    +0.082 A 
ATOM     27  N   UNL     1       3.257  12.057  -0.155  0.00  0.00    -0.170 NA
ATOM     28  N   UNL     1       4.634  12.250   0.014  0.00  0.00    -0.235 N 
ATOM     29  C   UNL     1       5.241  11.036  -0.087  0.00  0.00    +0.063 A 
ATOM     30  C   UNL     1       6.719  10.765   0.030  0.00  0.00    +0.068 C 
ATOM     31  C   UNL     1       1.696  10.143  -0.590  0.00  0.00    +0.069 C 
BRANCH  28  32
ATOM     32  C   UNL     1       5.274  13.475   0.246  0.00  0.00    +0.066 A 
ATOM     33  C   UNL     1       4.723  14.390   1.133  0.00  0.00    +0.028 A 
ATOM     34  C   UNL     1       5.358  15.595   1.364  0.00  0.00    +0.002 A 
ATOM     35  C   UNL     1       6.537  15.893   0.706  0.00  0.00    +0.000 A 
ATOM     36  C   UNL     1       7.086  14.986  -0.182  0.00  0.00    +0.002 A 
ATOM     37  C   UNL     1       6.458  13.778  -0.413  0.00  0.00    +0.028 A 
ENDBRANCH  28  32
ENDBRANCH  23  25
ENDBRANCH  20  21
ENDBRANCH   1  20
TORSDOF 9
