REMARK  Name = ZINC63652884
REMARK  8 active torsions:
REMARK  status: ('A' for Active; 'I' for Inactive)
REMARK    1  A    between atoms: C_1  and  C_2
REMARK    2  A    between atoms: C_4  and  C_20
REMARK    3  A    between atoms: C_5  and  C_19
REMARK    4  A    between atoms: C_20  and  C_21
REMARK    5  A    between atoms: C_21  and  C_22
REMARK    6  A    between atoms: N_24  and  C_25
REMARK    7  A    between atoms: C_25  and  C_26
REMARK    8  A    between atoms: C_26  and  C_27
REMARK                            x       y       z     vdW  Elec       q    Type
REMARK                         _______ _______ _______ _____ _____    ______ ____
ROOT
ATOM      1  C   UNL     1      -0.019   1.526   0.010  0.00  0.00    +0.035 C 
ATOM      2  C   UNL     1       0.002  -0.004   0.002  0.00  0.00    +0.120 C 
ATOM      3  C   UNL     1      -1.407  -0.551   0.054  0.00  0.00    -0.030 C 
ATOM      4  C   UNL     1      -1.515  -1.263   1.156  0.00  0.00    +0.020 C 
ATOM      5  N   UNL     1      -0.338  -1.274   1.880  0.00  0.00    -0.267 N 
ATOM      6  N   UNL     1       0.645  -0.516   1.224  0.00  0.00    -0.228 N 
ATOM      7  C   UNL     1       1.956  -0.293   1.641  0.00  0.00    +0.161 A 
ATOM      8  C   UNL     1       2.418  -0.859   2.831  0.00  0.00    +0.050 A 
ATOM      9  C   UNL     1       3.727  -0.609   3.203  0.00  0.00    +0.049 A 
ATOM     10  C   UNL     1       4.503   0.194   2.366  0.00  0.00    +0.144 A 
ATOM     11  N   UNL     1       3.980   0.688   1.256  0.00  0.00    -0.132 NA
ATOM     12  N   UNL     1       2.768   0.451   0.908  0.00  0.00    -0.131 NA
ATOM     13  N   UNL     1       5.827   0.474   2.699  0.00  0.00    -0.314 N 
ATOM     14  C   UNL     1       6.719   1.388   1.970  0.00  0.00    +0.106 C 
ATOM     15  C   UNL     1       8.086   1.361   2.685  0.00  0.00    +0.020 C 
ATOM     16  C   UNL     1       8.058   0.005   3.439  0.00  0.00    +0.020 C 
ATOM     17  C   UNL     1       6.564  -0.091   3.844  0.00  0.00    +0.106 C 
ATOM     18  C   UNL     1      -2.772  -1.980   1.577  0.00  0.00    +0.062 C 
ATOM     19  H   UNL     1      -0.210  -1.740   2.721  0.00  0.00    +0.170 HD
ENDROOT
BRANCH   3  20
ATOM     20  C   UNL     1      -2.490  -0.323  -0.969  0.00  0.00    +0.043 C 
BRANCH  20  21
ATOM     21  C   UNL     1      -3.205   0.996  -0.667  0.00  0.00    +0.100 C 
BRANCH  21  22
ATOM     22  C   UNL     1      -4.288   1.225  -1.690  0.00  0.00    +0.213 C 
ATOM     23  O   UNL     1      -4.470   0.413  -2.573  0.00  0.00    -0.276 OA
ATOM     24  N   UNL     1      -5.055   2.331  -1.624  0.00  0.00    -0.315 N 
ATOM     25  H   UNL     1      -4.910   2.980  -0.918  0.00  0.00    +0.149 HD
BRANCH  24  26
ATOM     26  C   UNL     1      -6.108   2.554  -2.618  0.00  0.00    +0.108 C 
BRANCH  26  27
ATOM     27  C   UNL     1      -6.824   3.872  -2.317  0.00  0.00    +0.052 C 
BRANCH  27  28
ATOM     28  C   UNL     1      -7.907   4.101  -3.339  0.00  0.00    -0.040 C 
ATOM     29  C   UNL     1      -9.217   3.786  -3.221  0.00  0.00    -0.001 A 
ATOM     30  C   UNL     1      -9.995   3.160  -2.146  0.00  0.00    +0.010 A 
ATOM     31  C   UNL     1     -11.323   2.970  -2.323  0.00  0.00    +0.001 A 
ATOM     32  C   UNL     1     -11.972   3.355  -3.504  0.00  0.00    +0.002 A 
ATOM     33  C   UNL     1     -11.324   3.936  -4.535  0.00  0.00    +0.026 A 
ATOM     34  C   UNL     1      -9.925   4.184  -4.458  0.00  0.00    +0.043 A 
ATOM     35  N   UNL     1      -9.086   4.724  -5.308  0.00  0.00    -0.380 N 
ATOM     36  C   UNL     1      -7.750   4.735  -4.704  0.00  0.00    +0.144 C 
ATOM     37  H   UNL     1      -9.312   5.063  -6.189  0.00  0.00    +0.160 HD
ENDBRANCH  27  28
ENDBRANCH  26  27
ENDBRANCH  24  26
ENDBRANCH  21  22
ENDBRANCH  20  21
ENDBRANCH   3  20
TORSDOF 6
