REMARK  Name = ZINC35614287
REMARK  12 active torsions:
REMARK  status: ('A' for Active; 'I' for Inactive)
REMARK    1  A    between atoms: C_1  and  C_2
REMARK    2  A    between atoms: C_2  and  C_3
REMARK    3  A    between atoms: N_7  and  C_19
REMARK    4  A    between atoms: C_8  and  C_11
REMARK    5  A    between atoms: C_16  and  O_17
REMARK    6  A    between atoms: O_17  and  C_18
REMARK    7  A    between atoms: C_19  and  C_20
REMARK    8  A    between atoms: C_20  and  N_21
REMARK    9  A    between atoms: N_29  and  C_30
REMARK   10  A    between atoms: C_30  and  C_31
REMARK   11  A    between atoms: C_30  and  C_32
REMARK   12  A    between atoms: C_30  and  C_33
REMARK                            x       y       z     vdW  Elec       q    Type
REMARK                         _______ _______ _______ _____ _____    ______ ____
ROOT
ATOM      1  C   UNL     1      -1.448  -0.530   0.022  0.00  0.00    +0.134 C 
ATOM      2  C   UNL     1      -1.470  -2.050  -0.019  0.00  0.00    +0.230 C 
ATOM      3  O   UNL     1      -0.792  -2.666  -0.814  0.00  0.00    -0.274 OA
ATOM      4  N   UNL     1      -2.256  -2.676   0.846  0.00  0.00    -0.283 N 
ATOM      5  C   UNL     1      -3.066  -1.883   1.789  0.00  0.00    +0.169 C 
ATOM      6  S   UNL     1      -2.268  -0.225   1.646  0.00  0.00    -0.121 S 
ENDROOT
BRANCH   5   7
ATOM      7  C   UNL     1      -4.508  -1.829   1.353  0.00  0.00    +0.025 A 
ATOM      8  C   UNL     1      -4.975  -2.715   0.401  0.00  0.00    +0.010 A 
ATOM      9  C   UNL     1      -6.297  -2.666   0.000  0.00  0.00    +0.001 A 
ATOM     10  C   UNL     1      -7.155  -1.732   0.551  0.00  0.00    +0.004 A 
ATOM     11  C   UNL     1      -6.693  -0.845   1.504  0.00  0.00    +0.046 A 
ATOM     12  C   UNL     1      -5.368  -0.895   1.912  0.00  0.00    +0.126 A 
BRANCH  12  13
ATOM     13  O   UNL     1      -4.912  -0.028   2.853  0.00  0.00    -0.495 OA
ATOM     14  C   UNL     1      -5.854   0.907   3.384  0.00  0.00    +0.277 C 
ENDBRANCH  12  13
ENDBRANCH   5   7
BRANCH   1  16
ATOM     15  C   UNL     1      -0.040   1.534   0.026  0.00  0.00    +0.005 C 
ATOM     16  C   UNL     1      -0.015   0.004   0.017  0.00  0.00    +0.020 C 
ENDBRANCH   1  16
BRANCH   4  17
ATOM     17  C   UNL     1      -2.320  -4.140   0.864  0.00  0.00    +0.124 C 
BRANCH  17  18
ATOM     18  C   UNL     1      -1.263  -4.685   1.827  0.00  0.00    +0.103 C 
BRANCH  18  19
ATOM     19  N   UNL     1      -1.327  -6.152   1.844  0.00  0.00    -0.298 NA
ATOM     20  C   UNL     1      -2.599  -6.617   2.412  0.00  0.00    +0.103 C 
ATOM     21  C   UNL     1      -2.703  -8.137   2.248  0.00  0.00    +0.124 C 
ATOM     22  N   UNL     1      -1.501  -8.753   2.829  0.00  0.00    -0.283 N 
ATOM     23  C   UNL     1      -0.186  -8.244   2.410  0.00  0.00    +0.124 C 
ATOM     24  C   UNL     1      -0.181  -6.720   2.568  0.00  0.00    +0.103 C 
ATOM     25  C   UNL     1      -1.602  -9.758   3.722  0.00  0.00    +0.303 C 
ATOM     26  O   UNL     1      -2.694 -10.103   4.128  0.00  0.00    -0.253 OA
ATOM     27  N   UNL     1      -0.491 -10.380   4.164  0.00  0.00    -0.294 N 
ATOM     28  H   UNL     1       0.384 -10.059   3.895  0.00  0.00    +0.151 HD
BRANCH  27  29
ATOM     29  C   UNL     1      -0.605 -11.541   5.050  0.00  0.00    +0.028 C 
ATOM     30  C   UNL     1      -1.392 -12.647   4.343  0.00  0.00    +0.031 C 
ATOM     31  C   UNL     1       0.793 -12.054   5.401  0.00  0.00    +0.031 C 
ATOM     32  C   UNL     1      -1.336 -11.134   6.331  0.00  0.00    +0.031 C 
ENDBRANCH  27  29
ENDBRANCH  18  19
ENDBRANCH  17  18
ENDBRANCH   4  17
TORSDOF 7
