REMARK  Name = ZINC09764723
REMARK  12 active torsions:
REMARK  status: ('A' for Active; 'I' for Inactive)
REMARK    1  A    between atoms: C_1  and  C_2
REMARK    2  A    between atoms: C_4  and  C_35
REMARK    3  A    between atoms: N_8  and  C_31
REMARK    4  A    between atoms: N_10  and  C_11
REMARK    5  A    between atoms: C_11  and  C_13
REMARK    6  A    between atoms: C_16  and  S_19
REMARK    7  A    between atoms: S_19  and  N_22
REMARK    8  A    between atoms: N_22  and  C_23
REMARK    9  A    between atoms: N_22  and  C_24
REMARK   10  A    between atoms: C_31  and  C_32
REMARK   11  A    between atoms: C_32  and  O_33
REMARK   12  A    between atoms: O_33  and  C_34
REMARK                            x       y       z     vdW  Elec       q    Type
REMARK                         _______ _______ _______ _____ _____    ______ ____
ROOT
ATOM      1  C   UNL     1       0.108  -6.530   2.646  0.00  0.00    +0.269 C 
ATOM      2  O   UNL     1       0.105  -6.819   1.461  0.00  0.00    -0.268 OA
ENDROOT
BRANCH   1  12
ATOM      3  C   UNL     1      -0.018   1.503   0.010  0.00  0.00    +0.044 C 
ATOM      4  C   UNL     1       0.002  -0.004   0.002  0.00  0.00    -0.048 A 
ATOM      5  C   UNL     1       0.005  -0.677  -1.208  0.00  0.00    +0.008 A 
ATOM      6  C   UNL     1       0.025  -2.061  -1.214  0.00  0.00    -0.034 A 
ATOM      7  C   UNL     1       0.040  -2.744  -0.021  0.00  0.00    +0.042 A 
ATOM      8  C   UNL     1       0.037  -2.087   1.218  0.00  0.00    +0.058 A 
ATOM      9  C   UNL     1       0.023  -0.686   1.196  0.00  0.00    +0.030 A 
ATOM     10  N   UNL     1       0.055  -2.943   2.303  0.00  0.00    -0.319 N 
ATOM     11  C   UNL     1       0.073  -4.287   2.103  0.00  0.00    +0.167 A 
ATOM     12  N   UNL     1       0.091  -5.247   3.021  0.00  0.00    -0.152 NA
ATOM     13  S   UNL     1       0.067  -4.459   0.431  0.00  0.00    -0.052 S 
ATOM     14  C   UNL     1       0.028  -2.814  -2.519  0.00  0.00    +0.045 C 
BRANCH  10  15
ATOM     15  C   UNL     1       0.054  -2.404   3.665  0.00  0.00    +0.152 C 
BRANCH  15  16
ATOM     16  C   UNL     1      -1.388  -2.236   4.147  0.00  0.00    +0.181 C 
BRANCH  16  17
ATOM     17  O   UNL     1      -2.009  -3.519   4.249  0.00  0.00    -0.381 OA
ATOM     18  C   UNL     1      -3.366  -3.474   4.693  0.00  0.00    +0.194 C 
ENDBRANCH  16  17
ENDBRANCH  15  16
ENDBRANCH  10  15
ENDBRANCH   1  12
BRANCH   1  19
ATOM     19  C   UNL     1       0.129  -7.601   3.669  0.00  0.00    +0.039 A 
ATOM     20  C   UNL     1       0.125  -7.274   5.025  0.00  0.00    +0.015 A 
ATOM     21  C   UNL     1       0.145  -8.276   5.973  0.00  0.00    +0.029 A 
ATOM     22  C   UNL     1       0.168  -9.603   5.582  0.00  0.00    +0.106 A 
ATOM     23  C   UNL     1       0.172  -9.933   4.238  0.00  0.00    +0.029 A 
ATOM     24  C   UNL     1       0.146  -8.941   3.280  0.00  0.00    +0.015 A 
BRANCH  22  25
ATOM     25  S   UNL     1       0.193 -10.876   6.799  0.00  0.00    +0.061 S 
ATOM     26  O   UNL     1       0.764 -12.020   6.178  0.00  0.00    -0.153 OA
ATOM     27  O   UNL     1       0.736 -10.300   7.979  0.00  0.00    -0.153 OA
BRANCH  25  28
ATOM     28  N   UNL     1      -1.381 -11.259   7.140  0.00  0.00    -0.177 NA
ATOM     29  C   UNL     1      -2.064 -12.304   6.374  0.00  0.00    +0.132 C 
BRANCH  28  30
ATOM     30  C   UNL     1      -2.092 -10.552   8.209  0.00  0.00    +0.080 C 
ATOM     31  C   UNL     1      -2.542 -11.555   9.272  0.00  0.00    +0.020 C 
ATOM     32  C   UNL     1      -3.284 -10.816  10.388  0.00  0.00    +0.002 C 
ATOM     33  C   UNL     1      -4.508 -10.107   9.804  0.00  0.00    +0.000 C 
ATOM     34  C   UNL     1      -4.057  -9.104   8.741  0.00  0.00    +0.002 C 
ATOM     35  C   UNL     1      -3.315  -9.843   7.625  0.00  0.00    +0.020 C 
ENDBRANCH  28  30
ENDBRANCH  25  28
ENDBRANCH  22  25
ENDBRANCH   1  19
TORSDOF 8
