REMARK  Name = ZINC38652897
REMARK  9 active torsions:
REMARK  status: ('A' for Active; 'I' for Inactive)
REMARK    1  A    between atoms: C_1  and  C_2
REMARK    2  A    between atoms: C_4  and  O_9
REMARK    3  A    between atoms: O_9  and  C_10
REMARK    4  A    between atoms: C_10  and  C_11
REMARK    5  A    between atoms: C_11  and  O_13
REMARK    6  A    between atoms: O_13  and  C_14
REMARK    7  A    between atoms: C_21  and  N_34
REMARK    8  A    between atoms: C_22  and  C_32
REMARK    9  A    between atoms: C_23  and  C_25
REMARK                            x       y       z     vdW  Elec       q    Type
REMARK                         _______ _______ _______ _____ _____    ______ ____
ROOT
ATOM      1  C   UNL     1       0.033  -6.638  -5.131  0.00  0.00    +0.135 A 
ATOM      2  C   UNL     1       0.059  -5.833  -6.261  0.00  0.00    +0.047 A 
ATOM      3  C   UNL     1       0.026  -6.405  -7.518  0.00  0.00    +0.012 A 
ATOM      4  C   UNL     1      -0.034  -7.781  -7.656  0.00  0.00    +0.008 A 
ATOM      5  C   UNL     1      -0.060  -8.590  -6.531  0.00  0.00    +0.138 A 
ATOM      6  C   UNL     1      -0.021  -8.016  -5.266  0.00  0.00    +0.093 A 
ATOM      7  O   UNL     1      -0.118  -9.939  -6.646  0.00  0.00    -0.441 OA
ATOM      8  C   UNL     1      -0.533 -10.497  -7.796  0.00  0.00    +0.199 C 
ATOM      9  C   UNL     1      -0.534  -9.812  -8.964  0.00  0.00    +0.098 C 
ATOM     10  C   UNL     1      -0.069  -8.385  -9.034  0.00  0.00    +0.098 C 
ENDROOT
BRANCH  10  11
ATOM     11  C   UNL     1       1.313  -8.340  -9.635  0.00  0.00    -0.034 A 
ATOM     12  C   UNL     1       2.358  -8.995  -9.012  0.00  0.00    +0.007 A 
ATOM     13  C   UNL     1       3.626  -8.955  -9.562  0.00  0.00    +0.038 A 
ATOM     14  C   UNL     1       3.848  -8.257 -10.737  0.00  0.00    +0.123 A 
ATOM     15  C   UNL     1       2.800  -7.601 -11.360  0.00  0.00    +0.038 A 
ATOM     16  C   UNL     1       1.532  -7.647 -10.811  0.00  0.00    +0.007 A 
ATOM     17  F   UNL     1       5.086  -8.217 -11.275  0.00  0.00    -0.205 F 
ENDBRANCH  10  11
BRANCH   8  18
ATOM     18  N   UNL     1      -0.967 -11.799  -7.786  0.00  0.00    -0.328 N 
ATOM     19  H   UNL     1      -0.972 -12.302  -6.957  0.00  0.00    +0.145 HD
ATOM     20  H   UNL     1      -1.270 -12.215  -8.609  0.00  0.00    +0.145 HD
ENDBRANCH   8  18
BRANCH   9  21
ATOM     21  C   UNL     1      -0.989 -10.461 -10.157  0.00  0.00    +0.101 C 
ATOM     22  N   UNL     1      -1.349 -10.976 -11.103  0.00  0.00    -0.191 NA
ENDBRANCH   9  21
BRANCH   1  23
ATOM     23  O   UNL     1       0.065  -6.077  -3.894  0.00  0.00    -0.423 OA
BRANCH  23  24
ATOM     24  C   UNL     1      -1.065  -5.528  -3.421  0.00  0.00    +0.350 C 
ATOM     25  O   UNL     1      -2.046  -5.464  -4.124  0.00  0.00    -0.247 OA
BRANCH  24  26
ATOM     26  C   UNL     1      -1.111  -4.993  -2.013  0.00  0.00    +0.349 C 
BRANCH  26  27
ATOM     27  O   UNL     1      -2.412  -4.464  -1.747  0.00  0.00    -0.481 OA
BRANCH  27  31
ATOM     28  C   UNL     1      -5.422  -2.298   1.427  0.00  0.00    +0.045 C 
ATOM     29  C   UNL     1      -4.075  -2.874   1.071  0.00  0.00    -0.029 A 
ATOM     30  C   UNL     1      -3.863  -3.408  -0.185  0.00  0.00    +0.050 A 
ATOM     31  C   UNL     1      -2.623  -3.938  -0.511  0.00  0.00    +0.122 A 
ATOM     32  C   UNL     1      -1.599  -3.931   0.425  0.00  0.00    +0.047 A 
ATOM     33  C   UNL     1      -1.816  -3.396   1.680  0.00  0.00    +0.024 A 
ATOM     34  C   UNL     1      -3.051  -2.862   2.002  0.00  0.00    +0.044 A 
ATOM     35 CL   UNL     1      -3.319  -2.184   3.577  0.00  0.00    -0.083 Cl
ENDBRANCH  27  31
ENDBRANCH  26  27
ENDBRANCH  24  26
ENDBRANCH  23  24
ENDBRANCH   1  23
TORSDOF 8
