REMARK  Name = ZINC00691050
REMARK  7 active torsions:
REMARK  status: ('A' for Active; 'I' for Inactive)
REMARK    1  A    between atoms: C_1  and  N_2
REMARK    2  A    between atoms: N_2  and  C_3
REMARK    3  A    between atoms: N_2  and  N_4
REMARK    4  A    between atoms: C_7  and  C_14
REMARK    5  A    between atoms: C_9  and  C_12
REMARK    6  A    between atoms: C_10  and  N_11
REMARK    7  A    between atoms: C_22  and  C_25
REMARK                            x       y       z     vdW  Elec       q    Type
REMARK                         _______ _______ _______ _____ _____    ______ ____
ROOT
ATOM      1  N   UNL     1       0.171   1.382  -0.205  0.00  0.00    -0.223 N 
ATOM      2  C   UNL     1       0.366   0.058  -0.490  0.00  0.00    +0.037 C 
ATOM      3  C   UNL     1       1.406  -0.616   0.046  0.00  0.00    +0.026 C 
ATOM      4  C   UNL     1       2.366   0.064   0.990  0.00  0.00    +0.098 C 
ATOM      5  C   UNL     1       2.275   1.557   0.870  0.00  0.00    +0.078 C 
ATOM      6  C   UNL     1       1.198   2.150   0.290  0.00  0.00    +0.117 C 
ATOM      7  C   UNL     1       1.623  -1.972  -0.254  0.00  0.00    +0.162 C 
ATOM      8  O   UNL     1       2.563  -2.551   0.252  0.00  0.00    -0.292 OA
ATOM      9  C   UNL     1       0.714  -2.719  -1.191  0.00  0.00    +0.088 C 
ATOM     10  C   UNL     1       0.109  -1.731  -2.194  0.00  0.00    +0.032 C 
ATOM     11  C   UNL     1      -0.611  -0.628  -1.414  0.00  0.00    +0.061 C 
ENDROOT
BRANCH  10  12
ATOM     12  C   UNL     1      -0.876  -2.448  -3.080  0.00  0.00    -0.044 A 
ATOM     13  C   UNL     1      -1.962  -3.097  -2.524  0.00  0.00    +0.004 A 
ATOM     14  C   UNL     1      -2.868  -3.752  -3.338  0.00  0.00    +0.000 A 
ATOM     15  C   UNL     1      -2.682  -3.766  -4.707  0.00  0.00    +0.000 A 
ATOM     16  C   UNL     1      -1.593  -3.121  -5.264  0.00  0.00    +0.000 A 
ATOM     17  C   UNL     1      -0.690  -2.463  -4.450  0.00  0.00    +0.004 A 
ENDBRANCH  10  12
BRANCH   4  18
ATOM     18  C   UNL     1       2.038  -0.339   2.404  0.00  0.00    -0.028 A 
ATOM     19  C   UNL     1       2.975  -0.992   3.182  0.00  0.00    +0.012 A 
ATOM     20  C   UNL     1       2.650  -1.336   4.452  0.00  0.00    +0.045 A 
ATOM     21  S   UNL     1       0.971  -0.743   4.577  0.00  0.00    -0.105 S 
ATOM     22  C   UNL     1       0.818  -0.071   2.931  0.00  0.00    +0.049 A 
ENDBRANCH   4  18
BRANCH   1  24
ATOM     23  C   UNL     1      -1.547   2.613   0.793  0.00  0.00    +0.128 C 
ATOM     24  N   UNL     1      -1.053   1.948  -0.420  0.00  0.00    -0.227 NA
ATOM     25  C   UNL     1      -1.010   2.883  -1.552  0.00  0.00    +0.128 C 
ENDBRANCH   1  24
BRANCH   6  26
ATOM     26  N   UNL     1       1.136   3.519   0.198  0.00  0.00    -0.344 N 
ATOM     27  H   UNL     1       0.293   3.954  -0.004  0.00  0.00    +0.144 HD
ATOM     28  H   UNL     1       1.936   4.051   0.336  0.00  0.00    +0.144 HD
ENDBRANCH   6  26
BRANCH   5  29
ATOM     29  C   UNL     1       3.340   2.370   1.374  0.00  0.00    +0.099 C 
ATOM     30  N   UNL     1       4.185   3.016   1.775  0.00  0.00    -0.191 NA
ENDBRANCH   5  29
TORSDOF 5
