REMARK  Name = ZINC21605498
REMARK  8 active torsions:
REMARK  status: ('A' for Active; 'I' for Inactive)
REMARK    1  A    between atoms: C_1  and  C_2
REMARK    2  A    between atoms: C_10  and  C_11
REMARK    3  A    between atoms: C_11  and  O_13
REMARK    4  A    between atoms: O_13  and  C_14
REMARK    5  A    between atoms: C_14  and  C_16
REMARK    6  A    between atoms: C_14  and  C_17
REMARK    7  A    between atoms: N_19  and  C_20
REMARK    8  A    between atoms: C_21  and  C_28
REMARK                            x       y       z     vdW  Elec       q    Type
REMARK                         _______ _______ _______ _____ _____    ______ ____
ROOT
ATOM      1  C   UNL     1       1.629   4.445   0.012  0.00  0.00    +0.258 C 
ATOM      2  O   UNL     1       0.416   4.408   0.024  0.00  0.00    -0.271 OA
ATOM      3  N   UNL     1       2.338   3.299  -0.002  0.00  0.00    -0.276 N 
ATOM      4  H   UNL     1       3.437   3.333  -0.013  0.00  0.00    +0.155 HD
ENDROOT
BRANCH   3   5
ATOM      5  C   UNL     1       1.681   2.078  -0.003  0.00  0.00    +0.084 A 
ATOM      6  C   UNL     1       2.229   0.806  -0.015  0.00  0.00    +0.068 A 
ATOM      7  C   UNL     1       1.307  -0.329  -0.013  0.00  0.00    -0.023 A 
ATOM      8  C   UNL     1       0.002  -0.004   0.002  0.00  0.00    -0.004 A 
ATOM      9  S   UNL     1      -0.022   1.772   0.012  0.00  0.00    -0.077 S 
ATOM     10  C   UNL     1      -0.882  -1.222   0.007  0.00  0.00    +0.043 C 
ATOM     11  C   UNL     1       0.051  -2.378   0.429  0.00  0.00    +0.010 C 
ATOM     12  C   UNL     1       1.427  -1.853  -0.025  0.00  0.00    +0.037 C 
BRANCH   6  13
ATOM     13  C   UNL     1       3.682   0.606  -0.029  0.00  0.00    +0.244 C 
ATOM     14  O   UNL     1       4.275   0.528  -1.089  0.00  0.00    -0.270 OA
ATOM     15  N   UNL     1       4.360   0.506   1.131  0.00  0.00    -0.325 N 
ATOM     16  H   UNL     1       5.450   0.355   1.120  0.00  0.00    +0.145 HD
ATOM     17  H   UNL     1       3.824   0.576   2.089  0.00  0.00    +0.145 HD
ENDBRANCH   6  13
ENDBRANCH   3   5
BRANCH   1  18
ATOM     18  C   UNL     1       2.342   5.773   0.013  0.00  0.00    +0.259 C 
ATOM     19  C   UNL     1       3.107   5.941  -1.301  0.00  0.00    +0.062 C 
BRANCH  18  20
ATOM     20  O   UNL     1       1.371   6.844   0.148  0.00  0.00    -0.448 OA
BRANCH  20  21
ATOM     21  C   UNL     1       1.782   7.968   0.769  0.00  0.00    +0.347 C 
ATOM     22  O   UNL     1       2.921   8.050   1.186  0.00  0.00    -0.244 OA
BRANCH  21  32
ATOM     23  C   UNL     1       2.431  10.599   2.133  0.00  0.00    +0.046 C 
ATOM     24  C   UNL     1       1.080  10.293   1.540  0.00  0.00    -0.019 A 
ATOM     25  C   UNL     1       0.052  11.250   1.601  0.00  0.00    +0.028 A 
ATOM     26  C   UNL     1       0.094  12.550   2.173  0.00  0.00    +0.132 A 
ATOM     27  C   UNL     1      -1.012  13.358   2.151  0.00  0.00    +0.039 A 
ATOM     28  C   UNL     1      -2.204  12.940   1.572  0.00  0.00    +0.004 A 
ATOM     29  C   UNL     1      -2.282  11.683   1.006  0.00  0.00    +0.016 A 
ATOM     30  C   UNL     1      -1.178  10.858   1.021  0.00  0.00    +0.023 A 
ATOM     31  S   UNL     1      -0.849   9.217   0.426  0.00  0.00    -0.081 S 
ATOM     32  C   UNL     1       0.854   9.092   0.942  0.00  0.00    +0.100 A 
ATOM     33  F   UNL     1       1.235  12.993   2.745  0.00  0.00    -0.205 F 
ENDBRANCH  21  32
ENDBRANCH  20  21
ENDBRANCH  18  20
ENDBRANCH   1  18
TORSDOF 6
