REMARK  Name = ZINC36565109
REMARK  20 active torsions:
REMARK  status: ('A' for Active; 'I' for Inactive)
REMARK    1  A    between atoms: C_1  and  C_2
REMARK    2  A    between atoms: C_2  and  C_3
REMARK    3  A    between atoms: C_3  and  C_4
REMARK    4  A    between atoms: C_4  and  C_5
REMARK    5  A    between atoms: C_5  and  C_7
REMARK    6  A    between atoms: C_5  and  C_9
REMARK    7  A    between atoms: C_7  and  C_8
REMARK    8  A    between atoms: N_11  and  C_12
REMARK    9  A    between atoms: N_11  and  C_15
REMARK   10  A    between atoms: C_12  and  C_13
REMARK   11  A    between atoms: C_13  and  C_14
REMARK   12  A    between atoms: C_15  and  C_17
REMARK   13  A    between atoms: C_15  and  C_26
REMARK   14  A    between atoms: C_20  and  O_25
REMARK   15  A    between atoms: C_21  and  O_23
REMARK   16  A    between atoms: O_23  and  C_24
REMARK   17  A    between atoms: N_28  and  C_29
REMARK   18  A    between atoms: C_29  and  S_30
REMARK   19  A    between atoms: S_30  and  C_33
REMARK   20  A    between atoms: C_36  and  C_39
REMARK                            x       y       z     vdW  Elec       q    Type
REMARK                         _______ _______ _______ _____ _____    ______ ____
ROOT
ATOM      1  C   UNL     1      -1.829  -5.513   0.127  0.00  0.00    +0.192 C 
ENDROOT
BRANCH   1   2
ATOM      2  C   UNL     1      -2.366  -6.873  -0.238  0.00  0.00    -0.015 A 
ATOM      3  C   UNL     1      -3.719  -7.135  -0.122  0.00  0.00    +0.010 A 
ATOM      4  C   UNL     1      -4.216  -8.380  -0.455  0.00  0.00    +0.049 A 
ATOM      5  C   UNL     1      -3.359  -9.370  -0.907  0.00  0.00    +0.158 A 
ATOM      6  C   UNL     1      -1.997  -9.107  -1.025  0.00  0.00    +0.162 A 
ATOM      7  C   UNL     1      -1.506  -7.855  -0.694  0.00  0.00    +0.055 A 
BRANCH   6   8
ATOM      8  O   UNL     1      -1.152 -10.076  -1.468  0.00  0.00    -0.491 OA
ATOM      9  C   UNL     1       0.233  -9.734  -1.564  0.00  0.00    +0.277 C 
ENDBRANCH   6   8
BRANCH   5  10
ATOM     10  O   UNL     1      -3.846 -10.597  -1.235  0.00  0.00    -0.503 OA
ATOM     11  H   UNL     1      -4.112 -10.680  -2.161  0.00  0.00    +0.292 HD
ENDBRANCH   5  10
ENDBRANCH   1   2
BRANCH   1  12
ATOM     12  C   UNL     1      -1.662  -5.423   1.622  0.00  0.00    +0.239 C 
ATOM     13  O   UNL     1      -2.516  -4.888   2.296  0.00  0.00    -0.273 OA
ATOM     14  N   UNL     1      -0.563  -5.937   2.209  0.00  0.00    -0.294 N 
ATOM     15  H   UNL     1       0.120  -6.365   1.669  0.00  0.00    +0.150 HD
BRANCH  14  16
ATOM     16  C   UNL     1      -0.401  -5.850   3.662  0.00  0.00    +0.278 C 
BRANCH  16  17
ATOM     17  S   UNL     1      -0.999  -7.381   4.431  0.00  0.00    +0.013 S 
ATOM     18  O   UNL     1      -0.790  -7.337   5.835  0.00  0.00    -0.168 OA
ATOM     19  O   UNL     1      -2.268  -7.733   3.897  0.00  0.00    -0.168 OA
BRANCH  17  20
ATOM     20  C   UNL     1       0.095  -8.635   3.852  0.00  0.00    +0.090 A 
ATOM     21  C   UNL     1      -0.189  -9.315   2.682  0.00  0.00    +0.027 A 
ATOM     22  C   UNL     1       0.669 -10.299   2.228  0.00  0.00    +0.005 A 
ATOM     23  C   UNL     1       1.812 -10.602   2.944  0.00  0.00    -0.050 A 
ATOM     24  C   UNL     1       2.097  -9.922   4.113  0.00  0.00    +0.005 A 
ATOM     25  C   UNL     1       1.241  -8.935   4.564  0.00  0.00    +0.027 A 
ATOM     26  C   UNL     1       2.747 -11.676   2.449  0.00  0.00    +0.044 C 
ENDBRANCH  17  20
ENDBRANCH  16  17
ENDBRANCH  14  16
ENDBRANCH   1  12
BRANCH   1  29
ATOM     27  C   UNL     1      -3.291  -4.541  -1.563  0.00  0.00    +0.220 C 
ATOM     28  O   UNL     1      -3.091  -5.513  -2.260  0.00  0.00    -0.275 OA
ATOM     29  N   UNL     1      -2.767  -4.481  -0.323  0.00  0.00    -0.286 N 
BRANCH  27  30
ATOM     30  C   UNL     1      -4.127  -3.400  -2.084  0.00  0.00    +0.075 C 
BRANCH  30  31
ATOM     31  C   UNL     1      -3.226  -2.196  -2.367  0.00  0.00    +0.009 C 
ATOM     32  C   UNL     1      -2.063  -2.629  -3.261  0.00  0.00    +0.004 C 
ENDBRANCH  30  31
BRANCH  30  33
ATOM     33  C   UNL     1      -4.827  -3.829  -3.375  0.00  0.00    +0.013 C 
BRANCH  33  34
ATOM     34  C   UNL     1      -5.828  -2.750  -3.795  0.00  0.00    +0.000 C 
BRANCH  34  36
ATOM     35  C   UNL     1      -7.463  -2.057  -5.552  0.00  0.00    +0.004 C 
ATOM     36  C   UNL     1      -6.462  -3.136  -5.132  0.00  0.00    -0.003 C 
ENDBRANCH  34  36
ENDBRANCH  33  34
ENDBRANCH  30  33
ENDBRANCH  27  30
BRANCH  29  37
ATOM     37  C   UNL     1      -3.135  -3.384   0.576  0.00  0.00    +0.108 C 
BRANCH  37  38
ATOM     38  C   UNL     1      -4.472  -3.702   1.248  0.00  0.00    +0.016 C 
ATOM     39  C   UNL     1      -4.774  -2.641   2.308  0.00  0.00    +0.005 C 
ENDBRANCH  37  38
ENDBRANCH  29  37
ENDBRANCH   1  29
TORSDOF 15
