REMARK  Name = ZINC34747102
REMARK  4 active torsions:
REMARK  status: ('A' for Active; 'I' for Inactive)
REMARK    1  A    between atoms: C_1  and  C_2
REMARK    2  A    between atoms: C_2  and  N_3
REMARK    3  A    between atoms: N_22  and  C_23
REMARK    4  A    between atoms: C_23  and  C_24
REMARK                            x       y       z     vdW  Elec       q    Type
REMARK                         _______ _______ _______ _____ _____    ______ ____
ROOT
ATOM      1  N   UNL     1       1.798   0.424  -2.304  0.00  0.00    +0.382 N 
ATOM      2  C   UNL     1       2.899   0.431  -3.276  0.00  0.00    -0.060 C 
ATOM      3  C   UNL     1       2.916  -0.900  -4.035  0.00  0.00    +0.089 C 
ATOM      4  N   UNL     1       2.977  -1.996  -3.055  0.00  0.00    -0.304 N 
ATOM      5  C   UNL     1       2.009  -1.990  -1.948  0.00  0.00    +0.089 C 
ATOM      6  C   UNL     1       2.034  -0.608  -1.287  0.00  0.00    -0.060 C 
ATOM      7  C   UNL     1       3.912  -2.995  -3.171  0.00  0.00    +0.202 A 
ATOM      8  N   UNL     1       5.177  -2.682  -3.360  0.00  0.00    -0.208 NA
ATOM      9  C   UNL     1       6.101  -3.628  -3.475  0.00  0.00    +0.117 A 
ATOM     10  C   UNL     1       5.785  -4.995  -3.402  0.00  0.00    +0.076 A 
ATOM     11  C   UNL     1       6.910  -5.920  -3.547  0.00  0.00    -0.023 A 
ATOM     12  C   UNL     1       8.129  -5.377  -3.734  0.00  0.00    -0.004 A 
ATOM     13  S   UNL     1       7.858  -3.625  -3.728  0.00  0.00    -0.073 S 
ATOM     14  C   UNL     1       9.429  -6.101  -3.909  0.00  0.00    +0.043 C 
ATOM     15  C   UNL     1       9.233  -7.561  -3.475  0.00  0.00    +0.005 C 
ATOM     16  C   UNL     1       7.955  -8.099  -4.126  0.00  0.00    +0.005 C 
ATOM     17  C   UNL     1       6.731  -7.435  -3.494  0.00  0.00    +0.037 C 
ATOM     18  C   UNL     1       4.403  -5.304  -3.196  0.00  0.00    +0.264 A 
ATOM     19  O   UNL     1       4.034  -6.463  -3.120  0.00  0.00    -0.267 OA
ATOM     20  N   UNL     1       3.517  -4.297  -3.083  0.00  0.00    -0.276 N 
ATOM     21  H   UNL     1       0.931   0.231  -2.783  0.00  0.00    -0.082 HD
ENDROOT
BRANCH   1  23
ATOM     22  C   UNL     1       1.343   2.799  -2.694  0.00  0.00    -0.017 C 
ATOM     23  C   UNL     1       1.712   1.739  -1.655  0.00  0.00    -0.082 C 
ENDBRANCH   1  23
BRANCH  20  24
ATOM     24  C   UNL     1       2.102  -4.606  -2.867  0.00  0.00    +0.163 C 
BRANCH  24  25
ATOM     25  C   UNL     1       1.414  -4.769  -4.198  0.00  0.00    -0.027 A 
ATOM     26  C   UNL     1       0.755  -3.697  -4.770  0.00  0.00    +0.007 A 
ATOM     27  C   UNL     1       0.124  -3.845  -5.991  0.00  0.00    +0.020 A 
ATOM     28  C   UNL     1       0.152  -5.067  -6.640  0.00  0.00    +0.041 A 
ATOM     29  C   UNL     1       0.812  -6.139  -6.066  0.00  0.00    +0.020 A 
ATOM     30  C   UNL     1       1.447  -5.988  -4.848  0.00  0.00    +0.007 A 
ATOM     31 CL   UNL     1      -0.640  -5.254  -8.173  0.00  0.00    -0.084 Cl
ENDBRANCH  24  25
ENDBRANCH  20  24
TORSDOF 3
