REMARK  Name = ZINC52094558
REMARK  4 active torsions:
REMARK  status: ('A' for Active; 'I' for Inactive)
REMARK    1  A    between atoms: C_1  and  N_2
REMARK    2  A    between atoms: N_2  and  C_3
REMARK    3  A    between atoms: C_3  and  C_5
REMARK    4  A    between atoms: C_3  and  C_18
REMARK                            x       y       z     vdW  Elec       q    Type
REMARK                         _______ _______ _______ _____ _____    ______ ____
ROOT
ATOM      1  C   UNL     1       0.833  -2.083   1.011  0.00  0.00    -0.043 A 
ATOM      2  C   UNL     1       0.050  -2.773   0.105  0.00  0.00    +0.031 A 
ATOM      3  C   UNL     1       0.213  -4.141  -0.048  0.00  0.00    +0.067 A 
ATOM      4  C   UNL     1       1.169  -4.817   0.714  0.00  0.00    +0.068 A 
ATOM      5  C   UNL     1       1.950  -4.117   1.621  0.00  0.00    +0.043 A 
ATOM      6  C   UNL     1       1.784  -2.752   1.762  0.00  0.00    +0.022 A 
ATOM      7 BR   UNL     1       2.856  -1.796   2.993  0.00  0.00    -0.050 Br
ATOM      8  N   UNL     1       1.101  -6.159   0.346  0.00  0.00    -0.306 N 
ATOM      9  H   UNL     1       1.647  -6.874   0.708  0.00  0.00    +0.170 HD
ATOM     10  C   UNL     1       0.149  -6.293  -0.596  0.00  0.00    +0.325 A 
ATOM     11  O   UNL     1      -0.165  -7.339  -1.131  0.00  0.00    -0.247 OA
ATOM     12  N   UNL     1      -0.405  -5.093  -0.855  0.00  0.00    -0.306 N 
ATOM     13  H   UNL     1      -1.114  -4.921  -1.494  0.00  0.00    +0.170 HD
ENDROOT
BRANCH   1  14
ATOM     14  C   UNL     1       0.655  -0.596   1.177  0.00  0.00    -0.011 C 
BRANCH  14  15
ATOM     15  C   UNL     1      -0.188  -0.319   2.423  0.00  0.00    +0.109 C 
ATOM     16  C   UNL     1      -0.431   1.199   2.564  0.00  0.00    +0.032 C 
ATOM     17  C   UNL     1      -0.307   1.411   4.098  0.00  0.00    +0.030 C 
ATOM     18  C   UNL     1       0.778   0.364   4.453  0.00  0.00    +0.160 C 
ATOM     19  O   UNL     1       0.514  -0.757   3.592  0.00  0.00    -0.378 OA
ENDBRANCH  14  15
BRANCH  14  21
ATOM     20  C   UNL     1       0.853  -0.179  -1.177  0.00  0.00    -0.100 C 
ATOM     21  N   UNL     1      -0.023  -0.049  -0.005  0.00  0.00    +0.383 N 
ATOM     22  H   UNL     1      -0.235   0.925   0.149  0.00  0.00    -0.085 HD
ATOM     23  H   UNL     1      -0.879  -0.558  -0.167  0.00  0.00    -0.085 HD
ENDBRANCH  14  21
ENDBRANCH   1  14
TORSDOF 3
