REMARK  Name = ZINC23588742
REMARK  9 active torsions:
REMARK  status: ('A' for Active; 'I' for Inactive)
REMARK    1  A    between atoms: C_1  and  C_2
REMARK    2  A    between atoms: C_5  and  N_9
REMARK    3  A    between atoms: C_6  and  C_8
REMARK    4  A    between atoms: C_13  and  S_14
REMARK    5  A    between atoms: S_14  and  C_15
REMARK    6  A    between atoms: C_15  and  C_17
REMARK    7  A    between atoms: C_15  and  C_18
REMARK    8  A    between atoms: C_18  and  C_20
REMARK    9  A    between atoms: C_20  and  C_30
REMARK                            x       y       z     vdW  Elec       q    Type
REMARK                         _______ _______ _______ _____ _____    ______ ____
ROOT
ATOM      1  C   UNL     1       1.756   2.096  -0.004  0.00  0.00    +0.123 C 
ATOM      2  C   UNL     1       2.384   1.586   1.295  0.00  0.00    +0.028 C 
ENDROOT
BRANCH   1   3
ATOM      3  C   UNL     1       1.984   3.581  -0.121  0.00  0.00    +0.189 C 
ATOM      4  O   UNL     1       1.129   4.359   0.257  0.00  0.00    -0.290 OA
BRANCH   3   5
ATOM      5  C   UNL     1       3.183   4.067  -0.668  0.00  0.00    +0.123 C 
ATOM      6  C   UNL     1       3.396   5.454  -0.778  0.00  0.00    +0.091 C 
ATOM      7  N   UNL     1       2.565   6.465  -0.414  0.00  0.00    -0.307 N 
ATOM      8  C   UNL     1       2.949   7.779  -0.599  0.00  0.00    +0.046 A 
ATOM      9  C   UNL     1       2.235   8.947  -0.288  0.00  0.00    +0.024 A 
ATOM     10  C   UNL     1       2.771  10.187  -0.542  0.00  0.00    +0.002 A 
ATOM     11  C   UNL     1       4.027  10.324  -1.109  0.00  0.00    +0.001 A 
ATOM     12  C   UNL     1       4.753   9.189  -1.426  0.00  0.00    +0.017 A 
ATOM     13  C   UNL     1       4.217   7.948  -1.173  0.00  0.00    +0.035 A 
ATOM     14  S   UNL     1       4.784   6.282  -1.405  0.00  0.00    -0.071 S 
ATOM     15  H   UNL     1       1.585   6.238   0.031  0.00  0.00    +0.153 HD
BRANCH   5  16
ATOM     16  C   UNL     1       4.189   3.150  -1.113  0.00  0.00    +0.105 C 
ATOM     17  N   UNL     1       4.988   2.424  -1.466  0.00  0.00    -0.191 NA
ENDBRANCH   5  16
ENDBRANCH   3   5
ENDBRANCH   1   3
BRANCH   1  18
ATOM     18  S   UNL     1      -0.022   1.758   0.012  0.00  0.00    -0.075 S 
BRANCH  18  23
ATOM     19  N   UNL     1      -1.086  -0.833   0.013  0.00  0.00    -0.277 N 
ATOM     20  C   UNL     1      -0.581  -2.106  -0.004  0.00  0.00    +0.230 A 
ATOM     21  N   UNL     1       0.718  -2.007  -0.015  0.00  0.00    -0.137 NA
ATOM     22  N   UNL     1       1.068  -0.771  -0.012  0.00  0.00    -0.122 NA
ATOM     23  C   UNL     1       0.002  -0.004   0.002  0.00  0.00    +0.197 A 
BRANCH  19  28
ATOM     24  C   UNL     1      -6.554   0.689   0.103  0.00  0.00    +0.044 C 
ATOM     25  C   UNL     1      -5.103   0.284   0.079  0.00  0.00    -0.050 A 
ATOM     26  C   UNL     1      -4.558  -0.395   1.153  0.00  0.00    +0.005 A 
ATOM     27  C   UNL     1      -3.227  -0.766   1.135  0.00  0.00    +0.027 A 
ATOM     28  C   UNL     1      -2.437  -0.457   0.035  0.00  0.00    +0.053 A 
ATOM     29  C   UNL     1      -2.986   0.229  -1.039  0.00  0.00    -0.026 A 
ATOM     30  C   UNL     1      -4.318   0.594  -1.017  0.00  0.00    +0.008 A 
ATOM     31  C   UNL     1      -2.130   0.572  -2.231  0.00  0.00    +0.046 C 
ENDBRANCH  19  28
ENDBRANCH  18  23
ENDBRANCH   1  18
TORSDOF 6
