REMARK  Name = ZINC36660384
REMARK  9 active torsions:
REMARK  status: ('A' for Active; 'I' for Inactive)
REMARK    1  A    between atoms: C_1  and  C_2
REMARK    2  A    between atoms: N_11  and  C_12
REMARK    3  A    between atoms: C_12  and  C_13
REMARK    4  A    between atoms: C_13  and  N_14
REMARK    5  A    between atoms: N_14  and  C_15
REMARK    6  A    between atoms: N_14  and  C_16
REMARK    7  A    between atoms: C_17  and  C_19
REMARK    8  A    between atoms: N_24  and  S_25
REMARK    9  A    between atoms: S_25  and  C_28
REMARK                            x       y       z     vdW  Elec       q    Type
REMARK                         _______ _______ _______ _____ _____    ______ ____
ROOT
ATOM      1  C   UNL     1      -0.518   0.351   0.447  0.00  0.00    +0.047 C 
ATOM      2  C   UNL     1      -0.246  -1.097   0.764  0.00  0.00    -0.006 A 
ATOM      3  C   UNL     1      -0.193  -2.016  -0.253  0.00  0.00    +0.046 A 
ATOM      4  C   UNL     1       0.055  -3.359  -0.005  0.00  0.00    +0.021 A 
ATOM      5  C   UNL     1       0.253  -3.781   1.297  0.00  0.00    +0.019 A 
ATOM      6  C   UNL     1       0.201  -2.869   2.321  0.00  0.00    +0.041 A 
ATOM      7  C   UNL     1      -0.043  -1.493   2.106  0.00  0.00    +0.085 A 
ATOM      8  N   UNL     1      -0.058  -0.722   3.214  0.00  0.00    -0.224 NA
ATOM      9  C   UNL     1       0.145  -1.209   4.416  0.00  0.00    +0.168 A 
ATOM     10  S   UNL     1       0.388  -2.949   4.086  0.00  0.00    -0.052 S 
ATOM     11  N   UNL     1       0.159  -0.545   5.632  0.00  0.00    -0.251 N 
ATOM     12  C   UNL     1      -0.057   0.785   5.676  0.00  0.00    +0.240 C 
ATOM     13  O   UNL     1      -0.360   1.384   4.666  0.00  0.00    -0.273 OA
ATOM     14 CL   UNL     1      -0.442  -1.487  -1.888  0.00  0.00    -0.083 Cl
ENDROOT
BRANCH  12  15
ATOM     15  C   UNL     1       0.078   1.527   6.981  0.00  0.00    +0.166 C 
ATOM     16  C   UNL     1      -1.281   1.557   7.711  0.00  0.00    +0.031 C 
ATOM     17  C   UNL     1      -1.312   2.980   8.329  0.00  0.00    +0.019 C 
ATOM     18  C   UNL     1      -0.593   3.809   7.236  0.00  0.00    +0.110 C 
ATOM     19  N   UNL     1       0.471   2.921   6.725  0.00  0.00    -0.165 NA
BRANCH  19  20
ATOM     20  S   UNL     1       1.871   3.409   5.988  0.00  0.00    +0.062 S 
ATOM     21  O   UNL     1       2.210   4.667   6.554  0.00  0.00    -0.153 OA
ATOM     22  O   UNL     1       2.755   2.297   6.017  0.00  0.00    -0.153 OA
BRANCH  20  23
ATOM     23  C   UNL     1       1.491   3.706   4.293  0.00  0.00    +0.106 A 
ATOM     24  C   UNL     1       1.681   2.707   3.357  0.00  0.00    +0.031 A 
ATOM     25  C   UNL     1       1.383   2.939   2.027  0.00  0.00    +0.040 A 
ATOM     26  C   UNL     1       0.894   4.173   1.633  0.00  0.00    +0.124 A 
ATOM     27  C   UNL     1       0.703   5.173   2.572  0.00  0.00    +0.040 A 
ATOM     28  C   UNL     1       0.997   4.937   3.901  0.00  0.00    +0.031 A 
ATOM     29  F   UNL     1       0.603   4.400   0.334  0.00  0.00    -0.205 F 
ENDBRANCH  20  23
ENDBRANCH  19  20
ENDBRANCH  12  15
BRANCH  11  30
ATOM     30  C   UNL     1       0.408  -1.288   6.870  0.00  0.00    +0.097 C 
BRANCH  30  31
ATOM     31  C   UNL     1       1.917  -1.402   7.101  0.00  0.00    -0.060 C 
BRANCH  31  32
ATOM     32  N   UNL     1       2.167  -2.147   8.342  0.00  0.00    +0.377 N 
ATOM     33  C   UNL     1       1.692  -3.529   8.188  0.00  0.00    -0.097 C 
ATOM     34  C   UNL     1       3.607  -2.153   8.628  0.00  0.00    -0.097 C 
ATOM     35  H   UNL     1       1.674  -1.706   9.105  0.00  0.00    -0.083 HD
ENDBRANCH  31  32
ENDBRANCH  30  31
ENDBRANCH  11  30
TORSDOF 6
