REMARK  Name = ZINC38133721
REMARK  6 active torsions:
REMARK  status: ('A' for Active; 'I' for Inactive)
REMARK    1  A    between atoms: C_1  and  N_2
REMARK    2  A    between atoms: N_2  and  C_3
REMARK    3  A    between atoms: C_3  and  C_5
REMARK    4  A    between atoms: C_3  and  C_15
REMARK    5  A    between atoms: C_5  and  C_6
REMARK    6  A    between atoms: C_9  and  N_12
REMARK                            x       y       z     vdW  Elec       q    Type
REMARK                         _______ _______ _______ _____ _____    ______ ____
ROOT
ATOM      1  C   UNL     1       0.577  -0.452  -1.234  0.00  0.00    -0.034 C 
ENDROOT
BRANCH   1   2
ATOM      2  C   UNL     1       0.335  -1.907  -1.546  0.00  0.00    -0.026 A 
ATOM      3  C   UNL     1       0.102  -2.804  -0.520  0.00  0.00    +0.006 A 
ATOM      4  C   UNL     1      -0.121  -4.137  -0.804  0.00  0.00    +0.015 A 
ATOM      5  C   UNL     1      -0.112  -4.577  -2.116  0.00  0.00    +0.021 A 
ATOM      6  C   UNL     1       0.121  -3.681  -3.143  0.00  0.00    +0.053 A 
ATOM      7  C   UNL     1       0.339  -2.344  -2.859  0.00  0.00    +0.126 A 
ATOM      8  F   UNL     1       0.560  -1.467  -3.863  0.00  0.00    -0.205 F 
ATOM      9 BR   UNL     1      -0.416  -6.402  -2.504  0.00  0.00    -0.050 Br
ENDBRANCH   1   2
BRANCH   1  11
ATOM     10  C   UNL     1       0.161   1.299   0.351  0.00  0.00    -0.100 C 
ATOM     11  N   UNL     1       0.066  -0.147   0.108  0.00  0.00    +0.382 N 
ATOM     12  H   UNL     1       0.613  -0.640   0.797  0.00  0.00    -0.085 HD
ATOM     13  H   UNL     1      -0.899  -0.436   0.175  0.00  0.00    -0.085 HD
ENDBRANCH   1  11
BRANCH   1  14
ATOM     14  C   UNL     1       2.079  -0.163  -1.286  0.00  0.00    +0.024 C 
BRANCH  14  15
ATOM     15  C   UNL     1       2.793  -1.040  -0.290  0.00  0.00    -0.048 A 
ATOM     16  C   UNL     1       3.046  -0.573   0.986  0.00  0.00    +0.006 A 
ATOM     17  C   UNL     1       3.702  -1.377   1.899  0.00  0.00    +0.033 A 
ATOM     18  C   UNL     1       4.104  -2.649   1.536  0.00  0.00    +0.126 A 
ATOM     19  C   UNL     1       3.850  -3.117   0.261  0.00  0.00    +0.033 A 
ATOM     20  C   UNL     1       3.191  -2.314  -0.651  0.00  0.00    +0.006 A 
BRANCH  18  21
ATOM     21  N   UNL     1       4.807  -3.510   2.514  0.00  0.00    +0.056 N 
ATOM     22  O   UNL     1       5.029  -3.101   3.630  0.00  0.00    -0.126 OA
ATOM     23  O   UNL     1       5.159  -4.622   2.197  0.00  0.00    -0.126 OA
ENDBRANCH  18  21
ENDBRANCH  14  15
ENDBRANCH   1  14
TORSDOF 5
