REMARK  Name = ZINC01065091
REMARK  9 active torsions:
REMARK  status: ('A' for Active; 'I' for Inactive)
REMARK    1  A    between atoms: C_1  and  C_2
REMARK    2  A    between atoms: C_2  and  O_3
REMARK    3  A    between atoms: O_3  and  C_4
REMARK    4  A    between atoms: C_4  and  C_6
REMARK    5  A    between atoms: C_7  and  N_34
REMARK    6  A    between atoms: N_8  and  C_24
REMARK    7  A    between atoms: C_11  and  C_13
REMARK    8  A    between atoms: C_27  and  S_30
REMARK    9  A    between atoms: S_30  and  N_33
REMARK                            x       y       z     vdW  Elec       q    Type
REMARK                         _______ _______ _______ _____ _____    ______ ____
ROOT
ATOM      1  C   UNL     1      -1.441   1.496   3.623  0.00  0.00    +0.084 C 
ATOM      2  C   UNL     1      -0.771   0.942   4.670  0.00  0.00    +0.103 C 
ATOM      3  N   UNL     1      -0.751   1.579   5.888  0.00  0.00    -0.261 N 
ATOM      4  C   UNL     1      -1.035   2.917   5.980  0.00  0.00    +0.024 C 
ATOM      5  C   UNL     1      -1.711   3.546   4.995  0.00  0.00    +0.025 C 
ATOM      6  C   UNL     1      -2.171   2.798   3.771  0.00  0.00    +0.094 C 
ATOM      7  C   UNL     1      -2.006   4.918   5.081  0.00  0.00    +0.162 C 
ATOM      8  O   UNL     1      -2.599   5.458   4.168  0.00  0.00    -0.292 OA
ATOM      9  C   UNL     1      -1.600   5.730   6.280  0.00  0.00    +0.080 C 
ATOM     10  C   UNL     1      -1.539   4.811   7.505  0.00  0.00    +0.014 C 
ATOM     11  C   UNL     1      -0.570   3.666   7.205  0.00  0.00    +0.052 C 
ENDROOT
BRANCH   6  12
ATOM     12  C   UNL     1      -3.648   2.527   3.890  0.00  0.00    -0.035 A 
ATOM     13  C   UNL     1      -4.126   1.746   4.925  0.00  0.00    +0.004 A 
ATOM     14  C   UNL     1      -5.482   1.500   5.036  0.00  0.00    +0.000 A 
ATOM     15  C   UNL     1      -6.359   2.029   4.107  0.00  0.00    +0.000 A 
ATOM     16  C   UNL     1      -5.880   2.806   3.069  0.00  0.00    +0.000 A 
ATOM     17  C   UNL     1      -4.525   3.055   2.960  0.00  0.00    +0.004 A 
ENDBRANCH   6  12
BRANCH   3  18
ATOM     18  C   UNL     1      -0.438   0.855   7.045  0.00  0.00    +0.040 A 
ATOM     19  C   UNL     1      -1.445   0.234   7.772  0.00  0.00    +0.026 A 
ATOM     20  C   UNL     1      -1.132  -0.484   8.909  0.00  0.00    +0.030 A 
ATOM     21  C   UNL     1       0.182  -0.576   9.331  0.00  0.00    +0.105 A 
ATOM     22  C   UNL     1       1.187   0.045   8.612  0.00  0.00    +0.030 A 
ATOM     23  C   UNL     1       0.881   0.760   7.471  0.00  0.00    +0.026 A 
BRANCH  21  24
ATOM     24  S   UNL     1       0.576  -1.486  10.787  0.00  0.00    +0.056 S 
ATOM     25  O   UNL     1      -0.472  -2.427  10.974  0.00  0.00    -0.153 OA
ATOM     26  O   UNL     1       1.937  -1.877  10.666  0.00  0.00    -0.153 OA
BRANCH  24  27
ATOM     27  N   UNL     1       0.498  -0.431  12.060  0.00  0.00    -0.204 NA
ATOM     28  H   UNL     1       0.250  -0.751  12.942  0.00  0.00    +0.144 HD
ATOM     29  H   UNL     1       0.700   0.508  11.925  0.00  0.00    +0.144 HD
ENDBRANCH  24  27
ENDBRANCH  21  24
ENDBRANCH   3  18
BRANCH   2  30
ATOM     30  N   UNL     1      -0.115  -0.251   4.510  0.00  0.00    -0.346 N 
ATOM     31  H   UNL     1       0.383  -0.425   3.696  0.00  0.00    +0.143 HD
ATOM     32  H   UNL     1      -0.148  -0.920   5.211  0.00  0.00    +0.143 HD
ENDBRANCH   2  30
BRANCH   1  33
ATOM     33  C   UNL     1      -1.446   0.840   2.383  0.00  0.00    +0.339 C 
ATOM     34  O   UNL     1      -0.934  -0.260   2.274  0.00  0.00    -0.245 OA
BRANCH  33  35
ATOM     35  O   UNL     1      -2.018   1.429   1.310  0.00  0.00    -0.462 OA
BRANCH  35  37
ATOM     36  C   UNL     1      -2.676   1.523  -1.014  0.00  0.00    +0.048 C 
ATOM     37  C   UNL     1      -1.986   0.704   0.079  0.00  0.00    +0.229 C 
ENDBRANCH  35  37
ENDBRANCH  33  35
ENDBRANCH   1  33
TORSDOF 8
