REMARK  Name = ZINC36834422
REMARK  8 active torsions:
REMARK  status: ('A' for Active; 'I' for Inactive)
REMARK    1  A    between atoms: C_1  and  C_2
REMARK    2  A    between atoms: C_2  and  O_3
REMARK    3  A    between atoms: O_3  and  C_4
REMARK    4  A    between atoms: C_4  and  C_6
REMARK    5  A    between atoms: N_11  and  C_13
REMARK    6  A    between atoms: C_13  and  C_15
REMARK    7  A    between atoms: C_13  and  C_16
REMARK    8  A    between atoms: C_28  and  C_32
REMARK                            x       y       z     vdW  Elec       q    Type
REMARK                         _______ _______ _______ _____ _____    ______ ____
ROOT
ATOM      1  C   UNL     1       3.021  -6.293  -2.402  0.00  0.00    +0.097 A 
ATOM      2  N   UNL     1       3.375  -7.594  -2.244  0.00  0.00    -0.312 N 
ATOM      3  H   UNL     1       3.071  -8.251  -2.891  0.00  0.00    +0.170 HD
ATOM      4  C   UNL     1       4.139  -7.992  -1.210  0.00  0.00    +0.260 A 
ATOM      5  O   UNL     1       4.448  -9.165  -1.083  0.00  0.00    -0.267 OA
ATOM      6  C   UNL     1       4.582  -7.015  -0.260  0.00  0.00    +0.075 A 
ATOM      7  C   UNL     1       5.410  -7.214   0.929  0.00  0.00    -0.023 A 
ATOM      8  C   UNL     1       5.692  -6.120   1.668  0.00  0.00    -0.004 A 
ATOM      9  S   UNL     1       4.884  -4.781   0.835  0.00  0.00    -0.073 S 
ATOM     10  C   UNL     1       4.167  -5.697  -0.506  0.00  0.00    +0.116 A 
ATOM     11  N   UNL     1       3.415  -5.378  -1.556  0.00  0.00    -0.228 NA
ATOM     12  C   UNL     1       6.511  -6.058   2.922  0.00  0.00    +0.046 C 
ATOM     13  C   UNL     1       6.681  -7.486   3.459  0.00  0.00    -0.009 C 
ATOM     14  C   UNL     1       7.107  -8.398   2.305  0.00  0.00    +0.008 C 
ATOM     15  C   UNL     1       5.940  -8.586   1.334  0.00  0.00    +0.037 C 
ATOM     16  C   UNL     1       7.755  -7.499   4.550  0.00  0.00    +0.008 C 
ENDROOT
BRANCH   1  17
ATOM     17  C   UNL     1       2.165  -5.896  -3.576  0.00  0.00    -0.004 C 
ATOM     18  C   UNL     1       2.809  -6.397  -4.870  0.00  0.00    -0.005 C 
BRANCH  17  23
ATOM     19  C   UNL     1       0.898  -2.535  -4.665  0.00  0.00    +0.081 C 
ATOM     20  C   UNL     1       2.244  -1.860  -4.941  0.00  0.00    +0.011 C 
ATOM     21  C   UNL     1       3.260  -2.320  -3.891  0.00  0.00    -0.018 C 
ATOM     22  C   UNL     1       3.360  -3.846  -3.921  0.00  0.00    -0.078 C 
ATOM     23  N   UNL     1       2.047  -4.432  -3.623  0.00  0.00    +0.387 N 
ATOM     24  C   UNL     1       1.084  -4.053  -4.665  0.00  0.00    -0.063 C 
ATOM     25  H   UNL     1       1.724  -4.093  -2.730  0.00  0.00    -0.081 HD
BRANCH  19  26
ATOM     26  C   UNL     1      -0.088  -2.149  -5.737  0.00  0.00    +0.308 C 
ATOM     27  O   UNL     1      -0.592  -3.001  -6.430  0.00  0.00    -0.251 OA
BRANCH  26  28
ATOM     28  O   UNL     1      -0.407  -0.858  -5.923  0.00  0.00    -0.465 OA
BRANCH  28  30
ATOM     29  C   UNL     1      -1.584   0.946  -7.018  0.00  0.00    +0.048 C 
ATOM     30  C   UNL     1      -1.348  -0.564  -6.957  0.00  0.00    +0.229 C 
ENDBRANCH  28  30
ENDBRANCH  26  28
ENDBRANCH  19  26
ENDBRANCH  17  23
ENDBRANCH   1  17
TORSDOF 5
