REMARK  Name = ZINC13639953
REMARK  6 active torsions:
REMARK  status: ('A' for Active; 'I' for Inactive)
REMARK    1  A    between atoms: C_1  and  C_2
REMARK    2  A    between atoms: C_2  and  O_3
REMARK    3  A    between atoms: O_3  and  C_4
REMARK    4  A    between atoms: C_11  and  C_20
REMARK    5  A    between atoms: C_23  and  O_27
REMARK    6  A    between atoms: C_25  and  O_26
REMARK                            x       y       z     vdW  Elec       q    Type
REMARK                         _______ _______ _______ _____ _____    ______ ____
ROOT
ATOM      1  C   UNL     1       1.140   2.013  -0.264  0.00  0.00    +0.142 A 
ATOM      2  C   UNL     1       2.303   1.266  -0.283  0.00  0.00    +0.047 A 
ATOM      3  C   UNL     1       3.527   1.900  -0.179  0.00  0.00    +0.004 A 
ATOM      4  C   UNL     1       3.585   3.272  -0.043  0.00  0.00    +0.006 A 
ATOM      5  C   UNL     1       2.423   4.033  -0.018  0.00  0.00    -0.016 A 
ATOM      6  C   UNL     1       1.198   3.404  -0.127  0.00  0.00    +0.074 A 
ATOM      7  N   UNL     1      -0.008   4.110  -0.101  0.00  0.00    -0.334 N 
ATOM      8  C   UNL     1       0.152   5.494  -0.548  0.00  0.00    +0.109 C 
ATOM      9  C   UNL     1       1.187   6.197   0.334  0.00  0.00    +0.029 C 
ATOM     10  C   UNL     1       2.559   5.520   0.128  0.00  0.00    +0.049 C 
ATOM     11  C   UNL     1       3.086   6.136  -1.147  0.00  0.00    -0.023 C 
ATOM     12  C   UNL     1       2.489   7.277  -1.386  0.00  0.00    -0.030 C 
ATOM     13  C   UNL     1       1.481   7.588  -0.297  0.00  0.00    +0.033 C 
ATOM     14  H   UNL     1      -0.717   3.635  -0.640  0.00  0.00    +0.147 HD
ENDROOT
BRANCH   8  15
ATOM     15  C   UNL     1      -1.169   6.212  -0.441  0.00  0.00    +0.015 A 
ATOM     16  C   UNL     1      -1.613   7.000  -1.487  0.00  0.00    +0.012 A 
ATOM     17  C   UNL     1      -2.823   7.659  -1.393  0.00  0.00    +0.046 A 
ATOM     18  C   UNL     1      -3.597   7.531  -0.247  0.00  0.00    +0.120 A 
ATOM     19  C   UNL     1      -3.154   6.742   0.803  0.00  0.00    +0.091 A 
ATOM     20  C   UNL     1      -1.941   6.077   0.704  0.00  0.00    +0.125 A 
BRANCH  20  21
ATOM     21  O   UNL     1      -1.506   5.299   1.729  0.00  0.00    -0.506 OA
ATOM     22  H   UNL     1      -0.973   5.771   2.383  0.00  0.00    +0.292 HD
ENDBRANCH  20  21
BRANCH  18  23
ATOM     23  O   UNL     1      -4.787   8.180  -0.155  0.00  0.00    -0.507 OA
ATOM     24  H   UNL     1      -5.540   7.669  -0.482  0.00  0.00    +0.292 HD
ENDBRANCH  18  23
ENDBRANCH   8  15
BRANCH   1  25
ATOM     25  O   UNL     1      -0.066   1.393  -0.373  0.00  0.00    -0.490 OA
BRANCH  25  27
ATOM     26  C   UNL     1      -1.490  -0.544  -0.619  0.00  0.00    +0.048 C 
ATOM     27  C   UNL     1      -0.053  -0.030  -0.510  0.00  0.00    +0.226 C 
ENDBRANCH  25  27
ENDBRANCH   1  25
TORSDOF 5
