REMARK  Name = ZINC60194771
REMARK  8 active torsions:
REMARK  status: ('A' for Active; 'I' for Inactive)
REMARK    1  A    between atoms: C_1  and  C_2
REMARK    2  A    between atoms: C_2  and  C_4
REMARK    3  A    between atoms: C_2  and  N_16
REMARK    4  A    between atoms: C_8  and  C_10
REMARK    5  A    between atoms: C_17  and  C_19
REMARK    6  A    between atoms: C_19  and  N_20
REMARK    7  A    between atoms: C_28  and  S_29
REMARK    8  A    between atoms: S_29  and  C_30
REMARK                            x       y       z     vdW  Elec       q    Type
REMARK                         _______ _______ _______ _____ _____    ______ ____
ROOT
ATOM      1  N   UNL     1       0.711  -0.489   1.189  0.00  0.00    -0.304 N 
ATOM      2  C   UNL     1       0.051  -0.633   2.355  0.00  0.00    +0.233 C 
ATOM      3  O   UNL     1      -1.129  -0.361   2.423  0.00  0.00    -0.274 OA
ATOM      4  H   UNL     1       1.654  -0.707   1.135  0.00  0.00    +0.149 HD
ENDROOT
BRANCH   1   6
ATOM      5  C   UNL     1      -0.019   1.526   0.010  0.00  0.00    +0.036 C 
ATOM      6  C   UNL     1       0.002  -0.004   0.002  0.00  0.00    +0.134 C 
BRANCH   6   7
ATOM      7  C   UNL     1       0.707  -0.490  -1.238  0.00  0.00    +0.105 A 
ATOM      8  N   UNL     1       2.031  -0.739  -1.341  0.00  0.00    -0.348 N 
ATOM      9  H   UNL     1       2.691  -0.638  -0.637  0.00  0.00    +0.167 HD
ATOM     10  C   UNL     1       2.271  -1.159  -2.619  0.00  0.00    +0.110 A 
ATOM     11  C   UNL     1       1.074  -1.154  -3.262  0.00  0.00    +0.064 A 
ATOM     12  N   UNL     1       0.138  -0.744  -2.382  0.00  0.00    -0.342 N 
ATOM     13  H   UNL     1      -0.809  -0.650  -2.572  0.00  0.00    +0.167 HD
BRANCH  11  14
ATOM     14  C   UNL     1       0.839  -1.537  -4.676  0.00  0.00    -0.000 A 
ATOM     15  C   UNL     1      -0.447  -1.479  -5.212  0.00  0.00    +0.010 A 
ATOM     16  C   UNL     1      -0.660  -1.837  -6.527  0.00  0.00    +0.001 A 
ATOM     17  C   UNL     1       0.399  -2.253  -7.314  0.00  0.00    +0.000 A 
ATOM     18  C   UNL     1       1.677  -2.313  -6.788  0.00  0.00    +0.001 A 
ATOM     19  C   UNL     1       1.903  -1.951  -5.475  0.00  0.00    +0.010 A 
ENDBRANCH  11  14
ENDBRANCH   6   7
ENDBRANCH   1   6
BRANCH   2  20
ATOM     20  C   UNL     1       0.780  -1.133   3.576  0.00  0.00    +0.220 C 
BRANCH  20  21
ATOM     21  N   UNL     1      -0.150  -1.201   4.706  0.00  0.00    -0.310 N 
ATOM     22  C   UNL     1      -0.418  -0.188   5.612  0.00  0.00    +0.070 A 
ATOM     23  C   UNL     1       0.042   1.112   5.765  0.00  0.00    +0.028 A 
ATOM     24  C   UNL     1      -0.433   1.891   6.800  0.00  0.00    +0.002 A 
ATOM     25  C   UNL     1      -1.368   1.384   7.690  0.00  0.00    +0.002 A 
ATOM     26  C   UNL     1      -1.835   0.096   7.554  0.00  0.00    +0.030 A 
ATOM     27  C   UNL     1      -1.365  -0.707   6.511  0.00  0.00    +0.090 A 
ATOM     28  N   UNL     1      -1.627  -1.982   6.123  0.00  0.00    -0.222 NA
ATOM     29  C   UNL     1      -0.919  -2.273   5.060  0.00  0.00    +0.175 A 
BRANCH  29  30
ATOM     30  S   UNL     1      -0.950  -3.819   4.215  0.00  0.00    -0.018 S 
BRANCH  30  31
ATOM     31  C   UNL     1      -2.146  -4.809   5.153  0.00  0.00    +0.407 C 
ATOM     32  F   UNL     1      -1.708  -4.939   6.475  0.00  0.00    -0.196 F 
ATOM     33  F   UNL     1      -3.392  -4.173   5.136  0.00  0.00    -0.196 F 
ENDBRANCH  30  31
ENDBRANCH  29  30
ENDBRANCH  20  21
ENDBRANCH   2  20
TORSDOF 7
