REMARK  Name = ZINC14986645
REMARK  9 active torsions:
REMARK  status: ('A' for Active; 'I' for Inactive)
REMARK    1  A    between atoms: C_3  and  C_7
REMARK    2  A    between atoms: C_7  and  C_9
REMARK    3  A    between atoms: C_7  and  N_68
REMARK    4  A    between atoms: C_9  and  N_10
REMARK    5  A    between atoms: C_11  and  C_17
REMARK    6  A    between atoms: C_17  and  C_18
REMARK    7  A    between atoms: C_18  and  N_65
REMARK    8  A    between atoms: C_19  and  C_20
REMARK    9  A    between atoms: C_19  and  N_65
REMARK                            x       y       z     vdW  Elec       q    Type
REMARK                         _______ _______ _______ _____ _____    ______ ____
ROOT
ATOM      1  N   UNL     1       0.249   7.077   1.530  0.00  0.00    -0.300 N 
ATOM      2  C   UNL     1      -0.790   8.023   1.954  0.00  0.00    +0.075 C 
ATOM      3  C   UNL     1      -0.285   9.415   1.516  0.00  0.00    +0.031 C 
ATOM      4  C   UNL     1       1.246   9.198   1.482  0.00  0.00    +0.098 C 
ATOM      5  C   UNL     1       1.406   7.709   1.269  0.00  0.00    +0.216 C 
ATOM      6  O   UNL     1       2.430   7.164   0.913  0.00  0.00    -0.276 OA
ENDROOT
BRANCH   1   7
ATOM      7  C   UNL     1       0.052   5.630   1.412  0.00  0.00    +0.097 C 
BRANCH   7   8
ATOM      8  C   UNL     1      -0.267   5.276  -0.041  0.00  0.00    -0.019 C 
BRANCH   8  14
ATOM      9  C   UNL     1       0.841   3.139   0.219  0.00  0.00    -0.078 C 
ATOM     10  C   UNL     1       0.619   1.625   0.210  0.00  0.00    -0.019 C 
ATOM     11  C   UNL     1       0.194   1.184  -1.193  0.00  0.00    -0.004 C 
ATOM     12  C   UNL     1      -1.074   1.942  -1.595  0.00  0.00    -0.019 C 
ATOM     13  C   UNL     1      -0.803   3.447  -1.534  0.00  0.00    -0.078 C 
ATOM     14  N   UNL     1      -0.423   3.811  -0.153  0.00  0.00    +0.385 N 
ATOM     15  H   UNL     1      -1.164   3.505   0.488  0.00  0.00    -0.081 HD
ENDBRANCH   8  14
BRANCH   8  18
ATOM     16  C   UNL     1      -2.757   7.680  -1.544  0.00  0.00    +0.020 A 
ATOM     17  C   UNL     1      -1.545   7.109  -1.189  0.00  0.00    +0.005 A 
ATOM     18  C   UNL     1      -1.559   5.937  -0.448  0.00  0.00    -0.041 A 
ATOM     19  C   UNL     1      -2.773   5.384  -0.086  0.00  0.00    +0.112 A 
ATOM     20  N   UNL     1      -3.907   5.957  -0.438  0.00  0.00    -0.263 NA
ATOM     21  C   UNL     1      -3.931   7.072  -1.143  0.00  0.00    +0.111 A 
ENDBRANCH   8  18
ENDBRANCH   7   8
ENDBRANCH   1   7
BRANCH   2  22
ATOM     22  C   UNL     1      -0.961   7.976   3.474  0.00  0.00    +0.003 C 
BRANCH  22  23
ATOM     23  C   UNL     1      -1.484   6.598   3.886  0.00  0.00    -0.080 C 
BRANCH  23  24
ATOM     24  N   UNL     1      -1.781   6.606   5.331  0.00  0.00    +0.382 N 
ATOM     25  H   UNL     1      -2.491   7.322   5.526  0.00  0.00    -0.085 HD
ATOM     26  H   UNL     1      -0.924   6.824   5.852  0.00  0.00    -0.085 HD
BRANCH  24  27
ATOM     27  C   UNL     1      -2.288   5.288   5.757  0.00  0.00    -0.045 C 
BRANCH  27  28
ATOM     28  C   UNL     1      -2.583   5.326   7.234  0.00  0.00    -0.042 A 
ATOM     29  C   UNL     1      -3.891   5.397   7.675  0.00  0.00    +0.052 A 
ATOM     30  C   UNL     1      -4.165   5.428   9.032  0.00  0.00    +0.167 A 
ATOM     31  C   UNL     1      -3.119   5.398   9.951  0.00  0.00    +0.168 A 
ATOM     32  C   UNL     1      -1.810   5.332   9.504  0.00  0.00    +0.069 A 
ATOM     33  C   UNL     1      -1.543   5.296   8.146  0.00  0.00    +0.046 A 
ATOM     34 CL   UNL     1       0.098   5.214   7.587  0.00  0.00    -0.083 Cl
ATOM     35  O   UNL     1      -3.643   5.444  11.211  0.00  0.00    -0.453 OA
ATOM     36  C   UNL     1      -4.994   5.914  11.048  0.00  0.00    +0.466 C 
ATOM     37  O   UNL     1      -5.345   5.492   9.716  0.00  0.00    -0.453 OA
ENDBRANCH  27  28
ENDBRANCH  24  27
ENDBRANCH  23  24
ENDBRANCH  22  23
ENDBRANCH   2  22
TORSDOF 9
