REMARK  Name = ZINC34900320
REMARK  10 active torsions:
REMARK  status: ('A' for Active; 'I' for Inactive)
REMARK    1  A    between atoms: C_1  and  C_2
REMARK    2  A    between atoms: C_2  and  C_3
REMARK    3  A    between atoms: C_3  and  C_4
REMARK    4  A    between atoms: C_4  and  O_5
REMARK    5  A    between atoms: O_5  and  C_6
REMARK    6  A    between atoms: C_9  and  C_12
REMARK    7  A    between atoms: C_18  and  C_21
REMARK    8  A    between atoms: N_23  and  C_24
REMARK    9  A    between atoms: C_30  and  N_32
REMARK   10  A    between atoms: C_33  and  C_35
REMARK                            x       y       z     vdW  Elec       q    Type
REMARK                         _______ _______ _______ _____ _____    ______ ____
ROOT
ATOM      1  C   UNL     1       3.847 -11.876  -5.175  0.00  0.00    +0.218 C 
ATOM      2  O   UNL     1       4.249 -12.214  -6.268  0.00  0.00    -0.275 OA
ATOM      3  N   UNL     1       3.415 -12.805  -4.299  0.00  0.00    -0.310 N 
ATOM      4  H   UNL     1       3.093 -12.535  -3.425  0.00  0.00    +0.149 HD
ENDROOT
BRANCH   1  11
ATOM      5  C   UNL     1       1.844  -8.035  -3.111  0.00  0.00    +0.247 C 
ATOM      6  O   UNL     1       1.472  -8.784  -2.229  0.00  0.00    -0.270 OA
ATOM      7  N   UNL     1       2.377  -8.537  -4.242  0.00  0.00    -0.297 N 
ATOM      8  C   UNL     1       2.953  -7.646  -5.258  0.00  0.00    +0.108 C 
ATOM      9  C   UNL     1       4.383  -8.103  -5.562  0.00  0.00    +0.020 C 
ATOM     10  C   UNL     1       4.368  -9.581  -5.959  0.00  0.00    +0.016 C 
ATOM     11  C   UNL     1       3.830 -10.418  -4.795  0.00  0.00    +0.092 C 
ATOM     12  C   UNL     1       2.400  -9.987  -4.480  0.00  0.00    +0.120 C 
BRANCH   5  16
ATOM     13  C   UNL     1       1.465  -3.833  -2.627  0.00  0.00    +0.121 A 
ATOM     14  C   UNL     1       1.881  -4.619  -1.559  0.00  0.00    +0.046 A 
ATOM     15  C   UNL     1       2.006  -5.981  -1.712  0.00  0.00    +0.016 A 
ATOM     16  C   UNL     1       1.712  -6.574  -2.942  0.00  0.00    +0.037 A 
ATOM     17  C   UNL     1       1.293  -5.781  -4.013  0.00  0.00    +0.016 A 
ATOM     18  C   UNL     1       1.166  -4.419  -3.851  0.00  0.00    +0.046 A 
BRANCH  13  19
ATOM     19  O   UNL     1       1.343  -2.490  -2.472  0.00  0.00    -0.492 OA
BRANCH  19  20
ATOM     20  C   UNL     1       1.666  -1.953  -1.188  0.00  0.00    +0.229 C 
BRANCH  20  21
ATOM     21  C   UNL     1       1.471  -0.436  -1.205  0.00  0.00    +0.041 C 
BRANCH  21  23
ATOM     22  C   UNL     1       1.621   1.656   0.152  0.00  0.00    +0.004 C 
ATOM     23  C   UNL     1       1.816   0.139   0.170  0.00  0.00    -0.000 C 
ENDBRANCH  21  23
ENDBRANCH  20  21
ENDBRANCH  19  20
ENDBRANCH  13  19
ENDBRANCH   5  16
ENDBRANCH   1  11
BRANCH   3  24
ATOM     24  C   UNL     1       3.431 -14.223  -4.668  0.00  0.00    +0.093 C 
ATOM     25  C   UNL     1       4.815 -14.809  -4.381  0.00  0.00    +0.024 C 
ATOM     26  C   UNL     1       4.831 -16.289  -4.766  0.00  0.00    +0.002 C 
ATOM     27  C   UNL     1       3.780 -17.041  -3.947  0.00  0.00    +0.002 C 
ATOM     28  C   UNL     1       2.396 -16.455  -4.234  0.00  0.00    +0.024 C 
ATOM     29  C   UNL     1       2.379 -14.975  -3.849  0.00  0.00    +0.093 C 
BRANCH  29  30
ATOM     30  N   UNL     1       2.682 -14.838  -2.422  0.00  0.00    -0.307 N 
ATOM     31  C   UNL     1       1.696 -14.953  -1.510  0.00  0.00    +0.244 C 
ATOM     32  O   UNL     1       0.556 -15.170  -1.871  0.00  0.00    -0.270 OA
ATOM     33  H   UNL     1       3.591 -14.664  -2.134  0.00  0.00    +0.149 HD
BRANCH  31  34
ATOM     34  C   UNL     1       2.001 -14.815  -0.071  0.00  0.00    +0.037 A 
ATOM     35  C   UNL     1       3.309 -14.559   0.346  0.00  0.00    +0.016 A 
ATOM     36  C   UNL     1       3.588 -14.431   1.690  0.00  0.00    +0.039 A 
ATOM     37  C   UNL     1       2.573 -14.556   2.627  0.00  0.00    +0.123 A 
ATOM     38  C   UNL     1       1.273 -14.810   2.217  0.00  0.00    +0.039 A 
ATOM     39  C   UNL     1       0.981 -14.934   0.876  0.00  0.00    +0.016 A 
ATOM     40  F   UNL     1       2.852 -14.431   3.942  0.00  0.00    -0.205 F 
ENDBRANCH  31  34
ENDBRANCH  29  30
ENDBRANCH   3  24
TORSDOF 9
