REMARK  Name = ZINC36607910
REMARK  11 active torsions:
REMARK  status: ('A' for Active; 'I' for Inactive)
REMARK    1  A    between atoms: C_1  and  C_2
REMARK    2  A    between atoms: C_2  and  C_3
REMARK    3  A    between atoms: C_2  and  C_4
REMARK    4  A    between atoms: C_2  and  N_5
REMARK    5  A    between atoms: C_6  and  C_8
REMARK    6  A    between atoms: C_8  and  C_10
REMARK    7  A    between atoms: C_8  and  N_19
REMARK    8  A    between atoms: C_13  and  N_16
REMARK    9  A    between atoms: N_19  and  C_20
REMARK   10  A    between atoms: C_26  and  C_28
REMARK   11  A    between atoms: C_28  and  C_29
REMARK                            x       y       z     vdW  Elec       q    Type
REMARK                         _______ _______ _______ _____ _____    ______ ____
ROOT
ATOM      1  C   UNL     1       2.858  -0.275  -2.680  0.00  0.00    +0.197 C 
ENDROOT
BRANCH   1   2
ATOM      2  C   UNL     1       2.307   0.492  -3.854  0.00  0.00    -0.018 A 
ATOM      3  C   UNL     1       2.776   1.763  -4.132  0.00  0.00    +0.008 A 
ATOM      4  C   UNL     1       2.270   2.466  -5.209  0.00  0.00    +0.033 A 
ATOM      5  C   UNL     1       1.296   1.899  -6.009  0.00  0.00    +0.126 A 
ATOM      6  C   UNL     1       0.827   0.628  -5.732  0.00  0.00    +0.033 A 
ATOM      7  C   UNL     1       1.336  -0.077  -4.657  0.00  0.00    +0.008 A 
BRANCH   5   8
ATOM      8  N   UNL     1       0.753   2.653  -7.162  0.00  0.00    +0.056 N 
ATOM      9  O   UNL     1       1.163   3.764  -7.404  0.00  0.00    -0.126 OA
ATOM     10  O   UNL     1      -0.099   2.157  -7.861  0.00  0.00    -0.126 OA
ENDBRANCH   5   8
ENDBRANCH   1   2
BRANCH   1  12
ATOM     11  N   UNL     1       1.254   0.696  -1.066  0.00  0.00    -0.309 N 
ATOM     12  C   UNL     1       2.538   0.461  -1.404  0.00  0.00    +0.239 C 
ATOM     13  O   UNL     1       3.435   0.842  -0.682  0.00  0.00    -0.273 OA
ATOM     14  H   UNL     1       0.537   0.392  -1.644  0.00  0.00    +0.149 HD
BRANCH  11  16
ATOM     15  C   UNL     1       1.575   2.804   0.132  0.00  0.00    +0.031 C 
ATOM     16  C   UNL     1       0.943   1.411   0.174  0.00  0.00    +0.026 C 
ATOM     17  C   UNL     1       1.503   0.633   1.366  0.00  0.00    +0.031 C 
ATOM     18  C   UNL     1      -0.574   1.544   0.319  0.00  0.00    +0.031 C 
ENDBRANCH  11  16
ENDBRANCH   1  12
BRANCH   1  19
ATOM     19  N   UNL     1       4.311  -0.402  -2.818  0.00  0.00    -0.255 N 
ATOM     20  C   UNL     1       5.006  -1.169  -1.955  0.00  0.00    +0.225 C 
ATOM     21  O   UNL     1       4.442  -1.683  -1.012  0.00  0.00    -0.275 OA
BRANCH  19  22
ATOM     22  C   UNL     1       4.978   0.273  -3.847  0.00  0.00    +0.037 A 
ATOM     23  C   UNL     1       5.855   1.306  -3.547  0.00  0.00    +0.023 A 
ATOM     24  C   UNL     1       6.512   1.970  -4.564  0.00  0.00    +0.002 A 
ATOM     25  C   UNL     1       6.296   1.607  -5.881  0.00  0.00    +0.000 A 
ATOM     26  C   UNL     1       5.423   0.579  -6.183  0.00  0.00    +0.002 A 
ATOM     27  C   UNL     1       4.767  -0.093  -5.170  0.00  0.00    +0.023 A 
ENDBRANCH  19  22
BRANCH  20  28
ATOM     28  C   UNL     1       6.482  -1.389  -2.162  0.00  0.00    +0.131 C 
BRANCH  28  29
ATOM     29  C   UNL     1       6.989  -2.384  -1.150  0.00  0.00    -0.039 A 
ATOM     30  C   UNL     1       7.455  -1.946   0.076  0.00  0.00    +0.005 A 
ATOM     31  C   UNL     1       7.919  -2.858   1.005  0.00  0.00    +0.015 A 
ATOM     32  C   UNL     1       7.917  -4.209   0.708  0.00  0.00    +0.018 A 
ATOM     33  C   UNL     1       7.450  -4.646  -0.518  0.00  0.00    +0.015 A 
ATOM     34  C   UNL     1       6.981  -3.734  -1.444  0.00  0.00    +0.005 A 
ATOM     35 BR   UNL     1       8.553  -5.457   1.979  0.00  0.00    -0.050 Br
ENDBRANCH  28  29
ENDBRANCH  20  28
ENDBRANCH   1  19
TORSDOF 8
