REMARK  Name = ZINC00903762
REMARK  11 active torsions:
REMARK  status: ('A' for Active; 'I' for Inactive)
REMARK    1  A    between atoms: C_1  and  C_2
REMARK    2  A    between atoms: C_6  and  N_9
REMARK    3  A    between atoms: C_7  and  C_8
REMARK    4  A    between atoms: N_9  and  C_10
REMARK    5  A    between atoms: C_10  and  C_12
REMARK    6  A    between atoms: C_10  and  C_19
REMARK    7  A    between atoms: N_21  and  C_22
REMARK    8  A    between atoms: C_22  and  C_23
REMARK    9  A    between atoms: C_29  and  C_31
REMARK   10  A    between atoms: C_31  and  N_32
REMARK   11  A    between atoms: C_34  and  C_37
REMARK                            x       y       z     vdW  Elec       q    Type
REMARK                         _______ _______ _______ _____ _____    ______ ____
ROOT
ATOM      1  N   UNL     1       0.130  -2.495   2.726  0.00  0.00    -0.254 N 
ATOM      2  C   UNL     1      -0.942  -2.835   3.468  0.00  0.00    +0.244 C 
ATOM      3  O   UNL     1      -0.877  -3.772   4.235  0.00  0.00    -0.273 OA
ENDROOT
BRANCH   1   9
ATOM      4  C   UNL     1       0.768   2.298   1.837  0.00  0.00    +0.044 C 
ATOM      5  C   UNL     1       0.357   0.921   1.384  0.00  0.00    -0.046 A 
ATOM      6  C   UNL     1      -0.096   0.725   0.092  0.00  0.00    +0.004 A 
ATOM      7  C   UNL     1      -0.473  -0.537  -0.328  0.00  0.00    +0.002 A 
ATOM      8  C   UNL     1      -0.399  -1.607   0.543  0.00  0.00    +0.024 A 
ATOM      9  C   UNL     1       0.055  -1.414   1.841  0.00  0.00    +0.041 A 
ATOM     10  C   UNL     1       0.438  -0.145   2.258  0.00  0.00    -0.026 A 
ATOM     11  C   UNL     1       0.937   0.068   3.664  0.00  0.00    +0.046 C 
ENDBRANCH   1   9
BRANCH   1  12
ATOM     12  C   UNL     1       1.375  -3.258   2.845  0.00  0.00    +0.197 C 
BRANCH  12  13
ATOM     13  C   UNL     1       2.452  -2.594   2.026  0.00  0.00    -0.018 A 
ATOM     14  C   UNL     1       2.330  -2.526   0.651  0.00  0.00    +0.009 A 
ATOM     15  C   UNL     1       3.317  -1.918  -0.102  0.00  0.00    +0.038 A 
ATOM     16  C   UNL     1       4.427  -1.375   0.523  0.00  0.00    +0.123 A 
ATOM     17  C   UNL     1       4.548  -1.444   1.900  0.00  0.00    +0.038 A 
ATOM     18  C   UNL     1       3.558  -2.049   2.651  0.00  0.00    +0.009 A 
ATOM     19  F   UNL     1       5.392  -0.780  -0.212  0.00  0.00    -0.205 F 
ENDBRANCH  12  13
BRANCH  12  20
ATOM     20  C   UNL     1       1.155  -4.662   2.342  0.00  0.00    +0.239 C 
ATOM     21  O   UNL     1       0.065  -4.992   1.925  0.00  0.00    -0.273 OA
ATOM     22  N   UNL     1       2.168  -5.549   2.356  0.00  0.00    -0.311 N 
ATOM     23  H   UNL     1       3.040  -5.285   2.690  0.00  0.00    +0.149 HD
BRANCH  22  24
ATOM     24  C   UNL     1       1.954  -6.914   1.867  0.00  0.00    +0.135 C 
BRANCH  24  25
ATOM     25  C   UNL     1       3.254  -7.710   1.992  0.00  0.00    +0.135 C 
ATOM     26  C   UNL     1       3.058  -9.148   1.448  0.00  0.00    +0.035 C 
ATOM     27  C   UNL     1       4.517  -9.520   1.066  0.00  0.00    +0.031 C 
ATOM     28  C   UNL     1       5.088  -8.165   0.596  0.00  0.00    +0.160 C 
ATOM     29  O   UNL     1       4.276  -7.130   1.167  0.00  0.00    -0.375 OA
ENDBRANCH  24  25
ENDBRANCH  22  24
ENDBRANCH  12  20
ENDBRANCH   1  12
BRANCH   2  30
ATOM     30  C   UNL     1      -2.223  -2.050   3.345  0.00  0.00    +0.264 C 
BRANCH  30  31
ATOM     31  N   UNL     1      -3.229  -2.613   4.248  0.00  0.00    -0.154 N 
ATOM     32  N   UNL     1      -4.061  -3.550   3.946  0.00  0.00    -0.130 NA
ATOM     33  C   UNL     1      -4.804  -3.788   5.009  0.00  0.00    +0.205 A 
ATOM     34  N   UNL     1      -4.382  -2.951   5.968  0.00  0.00    -0.108 NA
ATOM     35  N   UNL     1      -3.418  -2.253   5.470  0.00  0.00    -0.045 NA
BRANCH  33  36
ATOM     36  C   UNL     1      -5.895  -4.787   5.123  0.00  0.00    +0.023 A 
ATOM     37  C   UNL     1      -6.219  -5.596   4.035  0.00  0.00    +0.013 A 
ATOM     38  C   UNL     1      -7.234  -6.524   4.145  0.00  0.00    +0.021 A 
ATOM     39  C   UNL     1      -7.931  -6.653   5.334  0.00  0.00    +0.041 A 
ATOM     40  C   UNL     1      -7.613  -5.852   6.418  0.00  0.00    +0.021 A 
ATOM     41  C   UNL     1      -6.596  -4.925   6.319  0.00  0.00    +0.013 A 
ATOM     42 CL   UNL     1      -9.207  -7.822   5.466  0.00  0.00    -0.084 Cl
ENDBRANCH  33  36
ENDBRANCH  30  31
ENDBRANCH   2  30
TORSDOF 9
