REMARK  Name = ZINC39306387
REMARK  6 active torsions:
REMARK  status: ('A' for Active; 'I' for Inactive)
REMARK    1  A    between atoms: C_4  and  C_7
REMARK    2  A    between atoms: C_7  and  N_8
REMARK    3  A    between atoms: C_16  and  S_18
REMARK    4  A    between atoms: S_18  and  C_19
REMARK    5  A    between atoms: C_19  and  C_20
REMARK    6  A    between atoms: C_26  and  N_30
REMARK                            x       y       z     vdW  Elec       q    Type
REMARK                         _______ _______ _______ _____ _____    ______ ____
ROOT
ATOM      1  N   UNL     1       4.152  -0.952   1.338  0.00  0.00    -0.297 N 
ATOM      2  C   UNL     1       4.948  -0.103   2.119  0.00  0.00    +0.053 A 
ATOM      3  C   UNL     1       5.508   1.134   1.823  0.00  0.00    +0.025 A 
ATOM      4  C   UNL     1       6.269   1.795   2.768  0.00  0.00    +0.002 A 
ATOM      5  C   UNL     1       6.478   1.228   4.011  0.00  0.00    +0.002 A 
ATOM      6  C   UNL     1       5.925  -0.001   4.314  0.00  0.00    +0.025 A 
ATOM      7  C   UNL     1       5.157  -0.673   3.371  0.00  0.00    +0.050 A 
ATOM      8  N   UNL     1       4.504  -1.912   3.444  0.00  0.00    -0.316 N 
ATOM      9  C   UNL     1       3.836  -2.130   2.155  0.00  0.00    +0.220 C 
ATOM     10  H   UNL     1       4.493  -2.511   4.206  0.00  0.00    +0.149 HD
ENDROOT
BRANCH   1  11
ATOM     11  C   UNL     1       3.711  -0.707  -0.038  0.00  0.00    +0.143 C 
BRANCH  11  15
ATOM     12  C   UNL     1      -0.017   1.378   0.010  0.00  0.00    +0.000 A 
ATOM     13  C   UNL     1       1.171   2.086   0.002  0.00  0.00    +0.000 A 
ATOM     14  C   UNL     1       2.377   1.411  -0.013  0.00  0.00    +0.005 A 
ATOM     15  C   UNL     1       2.396   0.029  -0.020  0.00  0.00    -0.030 A 
ATOM     16  C   UNL     1       1.208  -0.679  -0.012  0.00  0.00    +0.005 A 
ATOM     17  C   UNL     1       0.002  -0.004   0.002  0.00  0.00    +0.000 A 
ENDBRANCH  11  15
ENDBRANCH   1  11
BRANCH   9  18
ATOM     18  S   UNL     1       4.481  -3.631   1.366  0.00  0.00    -0.112 S 
BRANCH  18  19
ATOM     19  C   UNL     1       6.269  -3.340   1.265  0.00  0.00    +0.146 C 
BRANCH  19  20
ATOM     20  C   UNL     1       6.935  -4.528   0.620  0.00  0.00    +0.118 A 
ATOM     21  H   UNL     1       7.394  -5.749   2.248  0.00  0.00    +0.167 HD
ATOM     22  N   UNL     1       7.137  -4.666  -0.658  0.00  0.00    -0.232 NA
ATOM     23  C   UNL     1       7.759  -5.849  -0.897  0.00  0.00    +0.089 A 
ATOM     24  C   UNL     1       8.202  -6.488  -2.058  0.00  0.00    +0.032 A 
ATOM     25  C   UNL     1       8.810  -7.708  -1.973  0.00  0.00    +0.035 A 
ATOM     26  C   UNL     1       8.994  -8.324  -0.743  0.00  0.00    +0.128 A 
ATOM     27  C   UNL     1       8.564  -7.712   0.415  0.00  0.00    +0.060 A 
ATOM     28  C   UNL     1       7.945  -6.472   0.349  0.00  0.00    +0.068 A 
ATOM     29  N   UNL     1       7.418  -5.609   1.289  0.00  0.00    -0.341 N 
BRANCH  26  30
ATOM     30  N   UNL     1       9.655  -9.647  -0.675  0.00  0.00    +0.056 N 
ATOM     31  O   UNL     1      10.033 -10.187  -1.688  0.00  0.00    -0.126 OA
ATOM     32  O   UNL     1       9.817 -10.187   0.395  0.00  0.00    -0.126 OA
ENDBRANCH  26  30
ENDBRANCH  19  20
ENDBRANCH  18  19
ENDBRANCH   9  18
TORSDOF 6
