REMARK  Name = ZINC12186501
REMARK  5 active torsions:
REMARK  status: ('A' for Active; 'I' for Inactive)
REMARK    1  A    between atoms: C_4  and  N_7
REMARK    2  A    between atoms: C_11  and  C_16
REMARK    3  A    between atoms: C_16  and  N_53
REMARK    4  A    between atoms: C_17  and  N_53
REMARK    5  A    between atoms: C_24  and  C_26
REMARK                            x       y       z     vdW  Elec       q    Type
REMARK                         _______ _______ _______ _____ _____    ______ ____
ROOT
ATOM      1  N   UNL     1       1.502  -2.007  -0.022  0.00  0.00    -0.215 N 
ATOM      2  C   UNL     1       1.190  -0.685  -0.013  0.00  0.00    +0.145 A 
ATOM      3  C   UNL     1       2.393   0.022  -0.020  0.00  0.00    +0.045 A 
ATOM      4  C   UNL     1       2.377   1.432  -0.013  0.00  0.00    +0.020 A 
ATOM      5  C   UNL     1       1.181   2.080   0.002  0.00  0.00    +0.001 A 
ATOM      6  C   UNL     1      -0.016   1.342   0.009  0.00  0.00    +0.252 A 
ATOM      7  O   UNL     1      -1.085   1.929   0.018  0.00  0.00    -0.268 OA
ATOM      8  N   UNL     1       0.002  -0.004   0.002  0.00  0.00    -0.307 N 
ATOM      9  H   UNL     1      -0.834  -0.496   0.007  0.00  0.00    +0.170 HD
ATOM     10  C   UNL     1       3.464  -0.978  -0.035  0.00  0.00    +0.102 A 
ATOM     11  N   UNL     1       2.891  -2.160  -0.036  0.00  0.00    -0.164 NA
ENDROOT
BRANCH  10  12
ATOM     12  C   UNL     1       4.921  -0.707  -0.047  0.00  0.00    +0.003 A 
ATOM     13  C   UNL     1       5.422   0.392  -0.744  0.00  0.00    +0.013 A 
ATOM     14  C   UNL     1       6.778   0.643  -0.748  0.00  0.00    +0.039 A 
ATOM     15  C   UNL     1       7.644  -0.201  -0.071  0.00  0.00    +0.123 A 
ATOM     16  C   UNL     1       7.151  -1.298   0.618  0.00  0.00    +0.039 A 
ATOM     17  C   UNL     1       5.796  -1.554   0.632  0.00  0.00    +0.013 A 
ATOM     18  F   UNL     1       8.972   0.045  -0.083  0.00  0.00    -0.205 F 
ENDBRANCH  10  12
BRANCH   1  22
ATOM     19  C   UNL     1      -1.260  -5.129  -0.013  0.00  0.00    +0.000 A 
ATOM     20  C   UNL     1      -0.074  -5.259  -0.712  0.00  0.00    +0.002 A 
ATOM     21  C   UNL     1       0.843  -4.226  -0.717  0.00  0.00    +0.028 A 
ATOM     22  C   UNL     1       0.573  -3.056  -0.019  0.00  0.00    +0.068 A 
ATOM     23  C   UNL     1      -0.616  -2.931   0.686  0.00  0.00    +0.028 A 
ATOM     24  C   UNL     1      -1.532  -3.965   0.683  0.00  0.00    +0.002 A 
ENDBRANCH   1  22
BRANCH   5  25
ATOM     25  C   UNL     1       1.139   3.586   0.010  0.00  0.00    -0.041 C 
BRANCH  25  26
ATOM     26  N   UNL     1       0.991   4.073  -1.375  0.00  0.00    +0.385 N 
ATOM     27  H   UNL     1       0.120   3.702  -1.773  0.00  0.00    -0.085 HD
ATOM     28  H   UNL     1       1.789   3.750  -1.935  0.00  0.00    -0.085 HD
BRANCH  26  29
ATOM     29  C   UNL     1       0.947   5.547  -1.397  0.00  0.00    -0.045 C 
ATOM     30  C   UNL     1       1.406   6.044  -2.772  0.00  0.00    -0.011 C 
ATOM     31  C   UNL     1       1.280   7.570  -2.818  0.00  0.00    +0.026 C 
ATOM     32  C   UNL     1      -0.166   7.966  -2.511  0.00  0.00    +0.159 C 
ATOM     33  O   UNL     1      -0.539   7.446  -1.233  0.00  0.00    -0.381 OA
ATOM     34  C   UNL     1      -0.487   6.021  -1.145  0.00  0.00    +0.144 C 
ENDBRANCH  26  29
ENDBRANCH  25  26
ENDBRANCH   5  25
TORSDOF 5
