REMARK  Name = ZINC39969144
REMARK  11 active torsions:
REMARK  status: ('A' for Active; 'I' for Inactive)
REMARK    1  A    between atoms: C_1  and  O_2
REMARK    2  A    between atoms: O_2  and  C_3
REMARK    3  A    between atoms: C_8  and  C_13
REMARK    4  A    between atoms: C_13  and  C_35
REMARK    5  A    between atoms: C_14  and  C_15
REMARK    6  A    between atoms: C_17  and  O_33
REMARK    7  A    between atoms: C_18  and  O_22
REMARK    8  A    between atoms: O_22  and  C_23
REMARK    9  A    between atoms: C_23  and  C_24
REMARK   10  A    between atoms: C_28  and  N_30
REMARK   11  A    between atoms: O_33  and  C_34
REMARK                            x       y       z     vdW  Elec       q    Type
REMARK                         _______ _______ _______ _____ _____    ______ ____
ROOT
ATOM      1  C   UNL     1       2.741  -6.275  -5.241  0.00  0.00    -0.019 A 
ATOM      2  C   UNL     1       2.934  -7.531  -5.830  0.00  0.00    +0.057 A 
ATOM      3  C   UNL     1       2.009  -8.015  -6.733  0.00  0.00    +0.164 A 
ATOM      4  C   UNL     1       0.886  -7.255  -7.059  0.00  0.00    +0.181 A 
ATOM      5  C   UNL     1       0.694  -6.009  -6.476  0.00  0.00    +0.087 A 
ATOM      6  C   UNL     1       1.610  -5.520  -5.568  0.00  0.00    +0.032 A 
ATOM      7 CL   UNL     1      -0.706  -5.068  -6.886  0.00  0.00    -0.080 Cl
ENDROOT
BRANCH   1   9
ATOM      8  C   UNL     1       4.032  -4.441  -4.273  0.00  0.00    +0.072 C 
ATOM      9  C   UNL     1       3.722  -5.755  -4.278  0.00  0.00    +0.026 C 
BRANCH   8  15
ATOM     10  C   UNL     1       3.200   1.041  -5.055  0.00  0.00    +0.122 A 
ATOM     11  C   UNL     1       4.489   0.946  -5.729  0.00  0.00    +0.048 A 
ATOM     12  C   UNL     1       5.036  -0.241  -6.051  0.00  0.00    +0.031 A 
ATOM     13  C   UNL     1       4.327  -1.486  -5.722  0.00  0.00    +0.061 A 
ATOM     14  N   UNL     1       4.622  -2.740  -5.917  0.00  0.00    -0.359 N 
ATOM     15  C   UNL     1       3.521  -3.543  -5.370  0.00  0.00    +0.216 C 
ATOM     16  N   UNL     1       2.542  -2.592  -4.830  0.00  0.00    -0.359 N 
ATOM     17  C   UNL     1       3.011  -1.390  -5.035  0.00  0.00    +0.064 A 
ATOM     18  C   UNL     1       2.488  -0.061  -4.714  0.00  0.00    +0.073 A 
ATOM     19  H   UNL     1       5.423  -3.080  -6.345  0.00  0.00    +0.162 HD
ATOM     20  H   UNL     1       1.702  -2.815  -4.400  0.00  0.00    +0.162 HD
BRANCH  10  22
ATOM     21  C   UNL     1       3.488   3.397  -5.137  0.00  0.00    +0.277 C 
ATOM     22  O   UNL     1       2.701   2.267  -4.757  0.00  0.00    -0.495 OA
ENDBRANCH  10  22
ENDBRANCH   8  15
BRANCH   8  23
ATOM     23  C   UNL     1       4.845  -3.900  -3.226  0.00  0.00    +0.099 C 
ATOM     24  N   UNL     1       5.490  -3.472  -2.395  0.00  0.00    -0.191 NA
ENDBRANCH   8  23
ENDBRANCH   1   9
BRANCH   3  25
ATOM     25  O   UNL     1       2.193  -9.235  -7.307  0.00  0.00    -0.491 OA
ATOM     26  C   UNL     1       3.365  -9.959  -6.928  0.00  0.00    +0.277 C 
ENDBRANCH   3  25
BRANCH   4  27
ATOM     27  O   UNL     1      -0.021  -7.734  -7.949  0.00  0.00    -0.482 OA
BRANCH  27  28
ATOM     28  C   UNL     1      -1.101  -8.508  -7.422  0.00  0.00    +0.264 C 
BRANCH  28  29
ATOM     29  C   UNL     1      -1.999  -8.950  -8.549  0.00  0.00    -0.008 A 
ATOM     30  C   UNL     1      -3.059  -8.155  -8.940  0.00  0.00    +0.007 A 
ATOM     31  C   UNL     1      -3.883  -8.560  -9.973  0.00  0.00    +0.003 A 
ATOM     32  C   UNL     1      -3.646  -9.761 -10.616  0.00  0.00    +0.033 A 
ATOM     33  C   UNL     1      -2.586 -10.556 -10.225  0.00  0.00    +0.127 A 
ATOM     34  C   UNL     1      -1.759 -10.149  -9.194  0.00  0.00    +0.039 A 
BRANCH  33  35
ATOM     35  N   UNL     1      -2.332 -11.843 -10.912  0.00  0.00    +0.056 N 
ATOM     36  O   UNL     1      -3.053 -12.198 -11.815  0.00  0.00    -0.126 OA
ATOM     37  O   UNL     1      -1.405 -12.538 -10.570  0.00  0.00    -0.126 OA
ENDBRANCH  33  35
ENDBRANCH  28  29
ENDBRANCH  27  28
ENDBRANCH   4  27
TORSDOF 9
