REMARK  Name = ZINC38979067
REMARK  6 active torsions:
REMARK  status: ('A' for Active; 'I' for Inactive)
REMARK    1  A    between atoms: C_1  and  O_2
REMARK    2  A    between atoms: O_2  and  C_3
REMARK    3  A    between atoms: C_7  and  C_9
REMARK    4  A    between atoms: N_15  and  N_16
REMARK    5  A    between atoms: C_17  and  C_18
REMARK    6  A    between atoms: C_23  and  O_24
REMARK                            x       y       z     vdW  Elec       q    Type
REMARK                         _______ _______ _______ _____ _____    ______ ____
ROOT
ATOM      1  C   UNL     1      -2.540  -4.186   0.005  0.00  0.00    +0.264 C 
ATOM      2  N   UNL     1      -1.407  -4.743   0.758  0.00  0.00    -0.189 NA
ATOM      3  N   UNL     1      -1.857  -5.373   1.719  0.00  0.00    -0.219 N 
ATOM      4  C   UNL     1      -3.216  -5.359   1.785  0.00  0.00    +0.174 C 
ATOM      5  S   UNL     1      -4.147  -6.135   2.993  0.00  0.00    -0.015 S 
ATOM      6  N   UNL     1      -3.725  -4.643   0.754  0.00  0.00    -0.172 N 
ATOM      7  H   UNL     1      -1.298  -5.833   2.364  0.00  0.00    +0.176 HD
ENDROOT
BRANCH   1  12
ATOM      8  C   UNL     1      -1.188  -0.657  -0.049  0.00  0.00    +0.120 A 
ATOM      9  C   UNL     1      -2.360   0.086  -0.045  0.00  0.00    +0.045 A 
ATOM     10  C   UNL     1      -3.583  -0.556  -0.025  0.00  0.00    +0.004 A 
ATOM     11  C   UNL     1      -3.640  -1.938  -0.010  0.00  0.00    +0.007 A 
ATOM     12  C   UNL     1      -2.474  -2.680  -0.013  0.00  0.00    +0.001 A 
ATOM     13  C   UNL     1      -1.248  -2.043  -0.038  0.00  0.00    +0.053 A 
BRANCH   8  15
ATOM     14  C   UNL     1       0.002   1.400  -0.078  0.00  0.00    +0.277 C 
ATOM     15  O   UNL     1       0.016  -0.029  -0.068  0.00  0.00    -0.495 OA
ENDBRANCH   8  15
ENDBRANCH   1  12
BRANCH   6  16
ATOM     16  N   UNL     1      -5.073  -4.392   0.464  0.00  0.00    -0.183 NA
ATOM     17  C   UNL     1      -6.006  -4.964   1.164  0.00  0.00    +0.142 C 
BRANCH  17  18
ATOM     18  C   UNL     1      -7.420  -4.788   0.790  0.00  0.00    +0.037 A 
ATOM     19  C   UNL     1      -8.426  -5.397   1.544  0.00  0.00    +0.028 A 
ATOM     20  C   UNL     1      -9.749  -5.229   1.188  0.00  0.00    +0.019 A 
ATOM     21  C   UNL     1     -10.082  -4.458   0.086  0.00  0.00    +0.019 A 
ATOM     22  C   UNL     1      -9.095  -3.851  -0.667  0.00  0.00    +0.047 A 
ATOM     23  C   UNL     1      -7.763  -4.005  -0.321  0.00  0.00    +0.126 A 
ATOM     24 BR   UNL     1     -11.111  -6.053   2.208  0.00  0.00    -0.050 Br
BRANCH  23  25
ATOM     25  O   UNL     1      -6.793  -3.404  -1.057  0.00  0.00    -0.506 OA
ATOM     26  H   UNL     1      -6.463  -3.944  -1.789  0.00  0.00    +0.292 HD
ENDBRANCH  23  25
ENDBRANCH  17  18
ENDBRANCH   6  16
TORSDOF 5
