REMARK  Name = ZINC39886246
REMARK  7 active torsions:
REMARK  status: ('A' for Active; 'I' for Inactive)
REMARK    1  A    between atoms: C_1  and  C_2
REMARK    2  A    between atoms: C_2  and  O_3
REMARK    3  A    between atoms: O_3  and  C_4
REMARK    4  A    between atoms: C_6  and  C_11
REMARK    5  A    between atoms: C_9  and  O_10
REMARK    6  A    between atoms: N_14  and  C_15
REMARK    7  A    between atoms: C_20  and  C_21
REMARK                            x       y       z     vdW  Elec       q    Type
REMARK                         _______ _______ _______ _____ _____    ______ ____
ROOT
ATOM      1  C   UNL     1      -0.286  -4.951   0.404  0.00  0.00    +0.026 C 
ATOM      2  C   UNL     1      -0.151  -6.293   0.257  0.00  0.00    +0.058 C 
ATOM      3  C   UNL     1      -0.703  -7.386   1.081  0.00  0.00    +0.140 C 
ATOM      4  N   UNL     1      -1.451  -7.153   2.138  0.00  0.00    -0.231 NA
ATOM      5  N   UNL     1      -0.394  -8.648   0.683  0.00  0.00    -0.260 N 
ATOM      6  C   UNL     1       0.374  -8.860  -0.404  0.00  0.00    +0.282 C 
ATOM      7  O   UNL     1       0.731  -9.922  -0.876  0.00  0.00    -0.262 OA
ATOM      8  S   UNL     1       0.737  -7.214  -0.989  0.00  0.00    -0.028 S 
ATOM      9  H   UNL     1      -0.731  -9.405   1.187  0.00  0.00    +0.157 HD
ENDROOT
BRANCH   4  10
ATOM     10  C   UNL     1      -1.895  -8.193   2.904  0.00  0.00    +0.069 A 
ATOM     11  C   UNL     1      -0.999  -9.165   3.356  0.00  0.00    +0.028 A 
ATOM     12  C   UNL     1      -1.454 -10.212   4.129  0.00  0.00    +0.002 A 
ATOM     13  C   UNL     1      -2.796 -10.302   4.456  0.00  0.00    +0.000 A 
ATOM     14  C   UNL     1      -3.690  -9.344   4.011  0.00  0.00    +0.005 A 
ATOM     15  C   UNL     1      -3.248  -8.287   3.243  0.00  0.00    -0.025 A 
ATOM     16  C   UNL     1      -4.222  -7.241   2.766  0.00  0.00    +0.046 C 
ENDBRANCH   4  10
BRANCH   1  19
ATOM     17  C   UNL     1       0.852  -1.845  -1.365  0.00  0.00    +0.162 A 
ATOM     18  C   UNL     1       0.110  -2.699  -0.573  0.00  0.00    +0.057 A 
ATOM     19  C   UNL     1       0.498  -4.037  -0.438  0.00  0.00    -0.020 A 
ATOM     20  C   UNL     1       1.637  -4.502  -1.106  0.00  0.00    +0.012 A 
ATOM     21  C   UNL     1       2.371  -3.642  -1.895  0.00  0.00    +0.050 A 
ATOM     22  C   UNL     1       1.982  -2.317  -2.032  0.00  0.00    +0.158 A 
BRANCH  22  23
ATOM     23  O   UNL     1       2.706  -1.476  -2.816  0.00  0.00    -0.503 OA
ATOM     24  H   UNL     1       3.417  -1.016  -2.347  0.00  0.00    +0.292 HD
ENDBRANCH  22  23
BRANCH  17  25
ATOM     25  O   UNL     1       0.477  -0.545  -1.500  0.00  0.00    -0.489 OA
BRANCH  25  27
ATOM     26  C   UNL     1      -0.953   1.353  -1.060  0.00  0.00    +0.048 C 
ATOM     27  C   UNL     1      -0.690  -0.129  -0.788  0.00  0.00    +0.226 C 
ENDBRANCH  25  27
ENDBRANCH  17  25
ENDBRANCH   1  19
TORSDOF 5
