REMARK  Name = ZINC65178797
REMARK  6 active torsions:
REMARK  status: ('A' for Active; 'I' for Inactive)
REMARK    1  A    between atoms: C_1  and  C_2
REMARK    2  A    between atoms: C_2  and  C_3
REMARK    3  A    between atoms: C_2  and  C_4
REMARK    4  A    between atoms: C_4  and  N_5
REMARK    5  A    between atoms: N_8  and  N_9
REMARK    6  A    between atoms: C_10  and  C_12
REMARK                            x       y       z     vdW  Elec       q    Type
REMARK                         _______ _______ _______ _____ _____    ______ ____
ROOT
ATOM      1  N   UNL     1      -1.339  -4.704  -0.356  0.00  0.00    -0.228 N 
ATOM      2  C   UNL     1      -1.323  -6.046  -0.474  0.00  0.00    +0.278 C 
ATOM      3  O   UNL     1      -2.369  -6.668  -0.487  0.00  0.00    -0.267 OA
ATOM      4  H   UNL     1      -0.505  -4.208  -0.346  0.00  0.00    +0.173 HD
ENDROOT
BRANCH   2   5
ATOM      5  C   UNL     1      -0.044  -6.759  -0.587  0.00  0.00    +0.123 A 
ATOM      6  C   UNL     1       0.101  -8.105  -0.717  0.00  0.00    +0.078 A 
ATOM      7  C   UNL     1       1.488  -8.384  -0.795  0.00  0.00    +0.019 A 
ATOM      8  C   UNL     1       2.224  -9.567  -0.931  0.00  0.00    +0.011 A 
ATOM      9  C   UNL     1       3.587  -9.518  -0.978  0.00  0.00    +0.001 A 
ATOM     10  C   UNL     1       4.254  -8.302  -0.891  0.00  0.00    +0.002 A 
ATOM     11  C   UNL     1       3.552  -7.125  -0.756  0.00  0.00    +0.026 A 
ATOM     12  C   UNL     1       2.161  -7.150  -0.707  0.00  0.00    +0.048 A 
ATOM     13  N   UNL     1       1.207  -6.168  -0.585  0.00  0.00    -0.349 N 
ATOM     14  H   UNL     1       1.382  -5.216  -0.509  0.00  0.00    +0.166 HD
ATOM     15 CL   UNL     1      -1.183  -9.272  -0.775  0.00  0.00    -0.081 Cl
ENDBRANCH   2   5
BRANCH   1  19
ATOM     16  N   UNL     1      -1.416  -1.993  -0.116  0.00  0.00    -0.298 N 
ATOM     17  C   UNL     1      -2.575  -2.682  -0.130  0.00  0.00    +0.316 C 
ATOM     18  O   UNL     1      -3.634  -2.092  -0.036  0.00  0.00    -0.251 OA
ATOM     19  N   UNL     1      -2.559  -4.024  -0.248  0.00  0.00    -0.218 N 
ATOM     20  H   UNL     1      -0.572  -2.463  -0.190  0.00  0.00    +0.150 HD
ATOM     21  H   UNL     1      -3.393  -4.520  -0.258  0.00  0.00    +0.174 HD
BRANCH  16  22
ATOM     22  C   UNL     1      -1.433  -0.534   0.013  0.00  0.00    +0.108 C 
BRANCH  22  24
ATOM     23  C   UNL     1      -0.019   1.526   0.010  0.00  0.00    +0.009 C 
ATOM     24  C   UNL     1       0.002  -0.004   0.002  0.00  0.00    -0.000 C 
ATOM     25  C   UNL     1       0.742  -0.511   1.242  0.00  0.00    +0.009 C 
ENDBRANCH  22  24
ENDBRANCH  16  22
ENDBRANCH   1  19
TORSDOF 4
