REMARK  Name = ZINC40568431
REMARK  9 active torsions:
REMARK  status: ('A' for Active; 'I' for Inactive)
REMARK    1  A    between atoms: C_1  and  C_2
REMARK    2  A    between atoms: C_2  and  O_3
REMARK    3  A    between atoms: O_3  and  C_4
REMARK    4  A    between atoms: C_6  and  C_11
REMARK    5  A    between atoms: C_9  and  O_10
REMARK    6  A    between atoms: C_11  and  C_13
REMARK    7  A    between atoms: C_11  and  C_23
REMARK    8  A    between atoms: C_14  and  C_22
REMARK    9  A    between atoms: C_26  and  C_31
REMARK                            x       y       z     vdW  Elec       q    Type
REMARK                         _______ _______ _______ _____ _____    ______ ____
ROOT
ATOM      1  C   UNL     1       0.682  -4.905   0.002  0.00  0.00    +0.093 C 
ENDROOT
BRANCH   1   2
ATOM      2  C   UNL     1       1.105  -6.116   0.793  0.00  0.00    +0.030 A 
ATOM      3  C   UNL     1       2.327  -6.658   0.599  0.00  0.00    +0.024 A 
ATOM      4  N   UNL     1       2.726  -7.749   1.304  0.00  0.00    -0.326 N 
ATOM      5  H   UNL     1       3.608  -8.121   1.148  0.00  0.00    +0.169 HD
ATOM      6  C   UNL     1       1.917  -8.322   2.214  0.00  0.00    +0.253 A 
ATOM      7  O   UNL     1       2.296  -9.302   2.836  0.00  0.00    -0.268 OA
ATOM      8  C   UNL     1       0.641  -7.795   2.451  0.00  0.00    +0.121 A 
ATOM      9  C   UNL     1       0.230  -6.682   1.741  0.00  0.00    +0.190 A 
ATOM     10  O   UNL     1      -0.996  -6.147   1.951  0.00  0.00    -0.287 OA
ATOM     11  C   UNL     1       3.260  -6.045  -0.413  0.00  0.00    +0.064 C 
ENDBRANCH   1   2
BRANCH   1  12
ATOM     12  C   UNL     1       0.058  -5.347  -1.297  0.00  0.00    +0.075 A 
ATOM     13  C   UNL     1      -0.857  -6.383  -1.318  0.00  0.00    +0.190 A 
ATOM     14  C   UNL     1      -1.422  -6.771  -2.549  0.00  0.00    +0.072 A 
ATOM     15  C   UNL     1      -1.065  -6.130  -3.683  0.00  0.00    +0.020 A 
ATOM     16  N   UNL     1      -0.165  -5.113  -3.655  0.00  0.00    -0.326 N 
ATOM     17  H   UNL     1       0.077  -4.667  -4.481  0.00  0.00    +0.169 HD
ATOM     18  C   UNL     1       0.392  -4.710  -2.497  0.00  0.00    +0.257 A 
ATOM     19  O   UNL     1       1.195  -3.790  -2.495  0.00  0.00    -0.267 OA
ATOM     20  C   UNL     1      -1.673  -6.549  -4.997  0.00  0.00    +0.063 C 
ATOM     21  O   UNL     1      -1.205  -7.017  -0.172  0.00  0.00    -0.287 OA
ENDBRANCH   1  12
BRANCH   1  24
ATOM     22  C   UNL     1      -0.816  -2.553   2.550  0.00  0.00    +0.162 A 
ATOM     23  C   UNL     1       0.106  -3.284   1.818  0.00  0.00    +0.054 A 
ATOM     24  C   UNL     1      -0.323  -4.112   0.797  0.00  0.00    -0.031 A 
ATOM     25  C   UNL     1      -1.670  -4.213   0.504  0.00  0.00    +0.008 A 
ATOM     26  C   UNL     1      -2.595  -3.487   1.231  0.00  0.00    +0.049 A 
ATOM     27  C   UNL     1      -2.173  -2.660   2.260  0.00  0.00    +0.158 A 
BRANCH  27  28
ATOM     28  O   UNL     1      -3.082  -1.949   2.979  0.00  0.00    -0.503 OA
ATOM     29  H   UNL     1      -3.275  -1.074   2.615  0.00  0.00    +0.292 HD
ENDBRANCH  27  28
BRANCH  22  30
ATOM     30  O   UNL     1      -0.397  -1.738   3.555  0.00  0.00    -0.489 OA
BRANCH  30  32
ATOM     31  C   UNL     1       1.288  -0.718   4.956  0.00  0.00    +0.048 C 
ATOM     32  C   UNL     1       1.010  -1.679   3.798  0.00  0.00    +0.226 C 
ENDBRANCH  30  32
ENDBRANCH  22  30
ENDBRANCH   1  24
TORSDOF 6
