REMARK  Name = ZINC13789507
REMARK  8 active torsions:
REMARK  status: ('A' for Active; 'I' for Inactive)
REMARK    1  A    between atoms: C_1  and  O_2
REMARK    2  A    between atoms: O_2  and  C_3
REMARK    3  A    between atoms: C_3  and  C_4
REMARK    4  A    between atoms: C_4  and  N_5
REMARK    5  A    between atoms: N_14  and  C_15
REMARK    6  A    between atoms: C_15  and  C_17
REMARK    7  A    between atoms: N_20  and  S_23
REMARK    8  A    between atoms: S_23  and  C_26
REMARK                            x       y       z     vdW  Elec       q    Type
REMARK                         _______ _______ _______ _____ _____    ______ ____
ROOT
ATOM      1  N   UNL     1       4.575  -4.387   5.255  0.00  0.00    -0.319 N 
ATOM      2  C   UNL     1       5.800  -5.024   5.178  0.00  0.00    +0.058 A 
ATOM      3  C   UNL     1       6.159  -6.285   5.680  0.00  0.00    +0.027 A 
ATOM      4  C   UNL     1       7.435  -6.768   5.518  0.00  0.00    +0.002 A 
ATOM      5  C   UNL     1       8.404  -6.031   4.857  0.00  0.00    +0.001 A 
ATOM      6  C   UNL     1       8.077  -4.785   4.352  0.00  0.00    +0.017 A 
ATOM      7  C   UNL     1       6.801  -4.301   4.514  0.00  0.00    +0.039 A 
ATOM      8  S   UNL     1       5.974  -2.802   4.041  0.00  0.00    -0.052 S 
ATOM      9  C   UNL     1       4.410  -3.157   4.700  0.00  0.00    +0.166 A 
ATOM     10  N   UNL     1       3.313  -2.403   4.675  0.00  0.00    -0.156 NA
ENDROOT
BRANCH  10  11
ATOM     11  C   UNL     1       3.339  -1.212   4.086  0.00  0.00    +0.242 C 
ATOM     12  O   UNL     1       4.365  -0.811   3.571  0.00  0.00    -0.273 OA
BRANCH  11  13
ATOM     13  C   UNL     1       2.097  -0.359   4.058  0.00  0.00    +0.080 C 
ATOM     14  C   UNL     1       2.396   0.952   3.326  0.00  0.00    +0.030 C 
ATOM     15  C   UNL     1       1.141   1.831   3.329  0.00  0.00    +0.110 C 
ATOM     16  N   UNL     1       0.025   1.063   2.760  0.00  0.00    -0.181 NA
ATOM     17  C   UNL     1      -0.294  -0.251   3.335  0.00  0.00    +0.110 C 
ATOM     18  C   UNL     1       0.980  -1.109   3.329  0.00  0.00    +0.030 C 
BRANCH  16  19
ATOM     19  S   UNL     1      -0.862   1.671   1.500  0.00  0.00    +0.029 S 
ATOM     20  O   UNL     1      -0.735   3.082   1.615  0.00  0.00    -0.158 OA
ATOM     21  O   UNL     1      -2.133   1.046   1.617  0.00  0.00    -0.158 OA
ATOM     22  C   UNL     1      -0.013   1.086   0.008  0.00  0.00    +0.215 C 
ENDBRANCH  16  19
ENDBRANCH  11  13
ENDBRANCH  10  11
BRANCH   1  23
ATOM     23  C   UNL     1       3.452  -5.041   5.931  0.00  0.00    +0.152 C 
BRANCH  23  24
ATOM     24  C   UNL     1       2.669  -5.883   4.922  0.00  0.00    +0.181 C 
BRANCH  24  26
ATOM     25  C   UNL     1       0.773  -7.336   4.723  0.00  0.00    +0.194 C 
ATOM     26  O   UNL     1       1.574  -6.521   5.581  0.00  0.00    -0.381 OA
ENDBRANCH  24  26
ENDBRANCH  23  24
ENDBRANCH   1  23
TORSDOF 6
