REMARK  Name = ZINC36152006
REMARK  4 active torsions:
REMARK  status: ('A' for Active; 'I' for Inactive)
REMARK    1  A    between atoms: C_1  and  C_2
REMARK    2  A    between atoms: C_2  and  C_3
REMARK    3  A    between atoms: C_3  and  C_4
REMARK    4  A    between atoms: C_4  and  C_5
REMARK                            x       y       z     vdW  Elec       q    Type
REMARK                         _______ _______ _______ _____ _____    ______ ____
ROOT
ATOM      1  C   UNL     1       1.444  -2.513  -2.505  0.00  0.00    +0.151 A 
ATOM      2  N   UNL     1       0.891  -2.767  -3.660  0.00  0.00    -0.132 NA
ATOM      3  N   UNL     1       1.781  -3.175  -4.500  0.00  0.00    -0.121 NA
ATOM      4  C   UNL     1       2.941  -3.203  -3.916  0.00  0.00    +0.209 A 
ATOM      5  N   UNL     1       2.780  -2.764  -2.629  0.00  0.00    -0.225 N 
ATOM      6  N   UNL     1       3.757  -2.603  -1.708  0.00  0.00    -0.277 N 
ATOM      7  C   UNL     1       4.951  -3.437  -1.896  0.00  0.00    +0.101 C 
ATOM      8  C   UNL     1       5.912  -3.137  -0.741  0.00  0.00    +0.025 C 
ATOM      9  C   UNL     1       7.194  -3.953  -0.890  0.00  0.00    +0.002 C 
ATOM     10  C   UNL     1       7.876  -3.565  -2.205  0.00  0.00    +0.001 C 
ATOM     11  C   UNL     1       6.938  -3.901  -3.362  0.00  0.00    +0.016 C 
ATOM     12  C   UNL     1       5.627  -3.119  -3.238  0.00  0.00    +0.076 C 
ATOM     13  S   UNL     1       4.509  -3.696  -4.562  0.00  0.00    -0.079 S 
ATOM     14  H   UNL     1       4.007  -1.630  -1.611  0.00  0.00    +0.167 HD
ENDROOT
BRANCH   1  15
ATOM     15  C   UNL     1       0.739  -2.027  -1.265  0.00  0.00    +0.078 C 
BRANCH  15  16
ATOM     16  C   UNL     1       0.718  -0.497  -1.257  0.00  0.00    +0.007 C 
BRANCH  16  18
ATOM     17  C   UNL     1      -0.019   1.526   0.010  0.00  0.00    +0.004 C 
ATOM     18  C   UNL     1       0.002  -0.004   0.002  0.00  0.00    -0.003 C 
ENDBRANCH  16  18
ENDBRANCH  15  16
ENDBRANCH   1  15
TORSDOF 3
