REMARK  Name = ZINC06658659
REMARK  7 active torsions:
REMARK  status: ('A' for Active; 'I' for Inactive)
REMARK    1  A    between atoms: C_6  and  S_7
REMARK    2  A    between atoms: S_7  and  C_8
REMARK    3  A    between atoms: C_11  and  C_17
REMARK    4  A    between atoms: C_13  and  N_14
REMARK    5  A    between atoms: C_18  and  C_19
REMARK    6  A    between atoms: C_18  and  C_21
REMARK    7  A    between atoms: C_21  and  N_23
REMARK                            x       y       z     vdW  Elec       q    Type
REMARK                         _______ _______ _______ _____ _____    ______ ____
ROOT
ATOM      1  C   UNL     1       1.026   1.526   0.750  0.00  0.00    +0.043 A 
ATOM      2  C   UNL     1      -0.247   0.985   0.925  0.00  0.00    +0.018 A 
ATOM      3  C   UNL     1      -1.353   1.744   0.679  0.00  0.00    +0.009 A 
ATOM      4  C   UNL     1      -1.208   3.076   0.260  0.00  0.00    -0.022 A 
ATOM      5  C   UNL     1       0.076   3.616   0.086  0.00  0.00    +0.041 A 
ATOM      6  C   UNL     1       1.176   2.846   0.329  0.00  0.00    +0.140 A 
ENDROOT
BRANCH   6   7
ATOM      7  N   UNL     1       2.531   3.414   0.146  0.00  0.00    +0.058 N 
ATOM      8  O   UNL     1       2.663   4.568  -0.222  0.00  0.00    -0.126 OA
ATOM      9  O   UNL     1       3.513   2.728   0.363  0.00  0.00    -0.126 OA
ENDBRANCH   6   7
BRANCH   4  10
ATOM     10  C   UNL     1      -2.390   3.897   0.001  0.00  0.00    +0.029 C 
ATOM     11  C   UNL     1      -3.539   3.315  -0.493  0.00  0.00    +0.080 C 
BRANCH  11  12
ATOM     12  C   UNL     1      -3.529   1.942  -0.898  0.00  0.00    +0.102 C 
ATOM     13  N   UNL     1      -3.520   0.852  -1.220  0.00  0.00    -0.191 NA
ENDBRANCH  11  12
BRANCH  11  14
ATOM     14  C   UNL     1      -4.774   4.104  -0.602  0.00  0.00    +0.087 C 
ATOM     15  S   UNL     1      -4.786   5.745  -0.117  0.00  0.00    -0.034 S 
BRANCH  14  16
ATOM     16  N   UNL     1      -5.896   3.535  -1.085  0.00  0.00    -0.351 N 
ATOM     17  H   UNL     1      -5.889   2.605  -1.360  0.00  0.00    +0.143 HD
ATOM     18  H   UNL     1      -6.711   4.056  -1.157  0.00  0.00    +0.143 HD
ENDBRANCH  14  16
ENDBRANCH  11  14
ENDBRANCH   4  10
BRANCH   1  19
ATOM     19  S   UNL     1       2.451   0.537   1.063  0.00  0.00    -0.087 S 
BRANCH  19  25
ATOM     20  C   UNL     1       2.273   0.425  -1.665  0.00  0.00    +0.016 A 
ATOM     21  C   UNL     1       2.725   0.079  -2.923  0.00  0.00    +0.021 A 
ATOM     22  C   UNL     1       3.917  -0.611  -3.066  0.00  0.00    +0.041 A 
ATOM     23  C   UNL     1       4.661  -0.950  -1.950  0.00  0.00    +0.021 A 
ATOM     24  C   UNL     1       4.217  -0.601  -0.690  0.00  0.00    +0.016 A 
ATOM     25  C   UNL     1       3.021   0.091  -0.543  0.00  0.00    +0.013 A 
ATOM     26 CL   UNL     1       4.479  -1.050  -4.649  0.00  0.00    -0.084 Cl
ENDBRANCH  19  25
ENDBRANCH   1  19
TORSDOF 7
