REMARK  Name = ZINC40315322
REMARK  12 active torsions:
REMARK  status: ('A' for Active; 'I' for Inactive)
REMARK    1  A    between atoms: C_1  and  C_2
REMARK    2  A    between atoms: C_6  and  O_9
REMARK    3  A    between atoms: C_7  and  C_8
REMARK    4  A    between atoms: O_9  and  C_10
REMARK    5  A    between atoms: C_10  and  C_11
REMARK    6  A    between atoms: C_11  and  C_13
REMARK    7  A    between atoms: C_11  and  O_30
REMARK    8  A    between atoms: C_13  and  N_14
REMARK    9  A    between atoms: N_14  and  C_15
REMARK   10  A    between atoms: N_14  and  C_24
REMARK   11  A    between atoms: C_15  and  C_16
REMARK   12  A    between atoms: C_24  and  C_25
REMARK                            x       y       z     vdW  Elec       q    Type
REMARK                         _______ _______ _______ _____ _____    ______ ____
ROOT
ATOM      1  N   UNL     1       0.509  -7.021   5.215  0.00  0.00    +0.389 N 
ATOM      2  H   UNL     1       1.126  -6.663   5.928  0.00  0.00    -0.081 HD
ENDROOT
BRANCH   1   3
ATOM      3  C   UNL     1       0.639  -6.204   4.001  0.00  0.00    -0.043 C 
BRANCH   3   4
ATOM      4  C   UNL     1       0.457  -4.727   4.358  0.00  0.00    +0.135 C 
BRANCH   4   5
ATOM      5  O   UNL     1      -0.899  -4.495   4.746  0.00  0.00    -0.390 OA
ATOM      6  H   UNL     1      -1.546  -4.705   4.059  0.00  0.00    +0.210 HD
ENDBRANCH   4   5
BRANCH   4   7
ATOM      7  C   UNL     1       0.794  -3.863   3.141  0.00  0.00    +0.258 C 
BRANCH   7   8
ATOM      8  O   UNL     1       0.737  -2.483   3.506  0.00  0.00    -0.489 OA
BRANCH   8  14
ATOM      9  C   UNL     1       1.215   2.177   2.136  0.00  0.00    +0.044 C 
ATOM     10  C   UNL     1       1.255   0.703   1.827  0.00  0.00    -0.044 A 
ATOM     11  C   UNL     1       1.573   0.273   0.552  0.00  0.00    +0.004 A 
ATOM     12  C   UNL     1       1.611  -1.079   0.265  0.00  0.00    +0.004 A 
ATOM     13  C   UNL     1       1.331  -2.004   1.253  0.00  0.00    +0.046 A 
ATOM     14  C   UNL     1       1.012  -1.575   2.533  0.00  0.00    +0.124 A 
ATOM     15  C   UNL     1       0.981  -0.218   2.820  0.00  0.00    -0.006 A 
ATOM     16  C   UNL     1       0.641   0.251   4.211  0.00  0.00    +0.048 C 
ENDBRANCH   8  14
ENDBRANCH   7   8
ENDBRANCH   4   7
ENDBRANCH   3   4
ENDBRANCH   1   3
BRANCH   1  17
ATOM     17  C   UNL     1       0.867  -8.412   4.910  0.00  0.00    -0.041 C 
BRANCH  17  18
ATOM     18  C   UNL     1       2.327  -8.486   4.542  0.00  0.00    -0.046 A 
ATOM     19  C   UNL     1       2.701  -8.593   3.216  0.00  0.00    +0.004 A 
ATOM     20  C   UNL     1       4.039  -8.660   2.878  0.00  0.00    +0.020 A 
ATOM     21  C   UNL     1       5.006  -8.621   3.867  0.00  0.00    +0.042 A 
ATOM     22  C   UNL     1       4.632  -8.514   5.195  0.00  0.00    +0.040 A 
ATOM     23  C   UNL     1       3.292  -8.442   5.532  0.00  0.00    +0.044 A 
ATOM     24 CL   UNL     1       2.823  -8.301   7.197  0.00  0.00    -0.083 Cl
ATOM     25 CL   UNL     1       6.687  -8.707   3.443  0.00  0.00    -0.083 Cl
ENDBRANCH  17  18
ENDBRANCH   1  17
BRANCH   1  26
ATOM     26  C   UNL     1      -0.878  -6.966   5.696  0.00  0.00    -0.003 C 
BRANCH  26  27
ATOM     27  C   UNL     1      -0.999  -7.756   6.973  0.00  0.00    +0.089 A 
ATOM     28  C   UNL     1      -0.901  -7.258   8.219  0.00  0.00    +0.042 A 
ATOM     29  C   UNL     1      -1.075  -8.342   9.109  0.00  0.00    +0.041 A 
ATOM     30  C   UNL     1      -1.269  -9.439   8.354  0.00  0.00    +0.195 A 
ATOM     31  O   UNL     1      -1.227  -9.077   7.061  0.00  0.00    -0.470 OA
ENDBRANCH  26  27
ENDBRANCH   1  26
TORSDOF 10
