REMARK  Name = ZINC12303869
REMARK  9 active torsions:
REMARK  status: ('A' for Active; 'I' for Inactive)
REMARK    1  A    between atoms: C_1  and  C_2
REMARK    2  A    between atoms: C_7  and  C_8
REMARK    3  A    between atoms: C_8  and  N_63
REMARK    4  A    between atoms: C_11  and  C_14
REMARK    5  A    between atoms: C_14  and  N_15
REMARK    6  A    between atoms: N_15  and  C_16
REMARK    7  A    between atoms: C_16  and  C_17
REMARK    8  A    between atoms: C_23  and  C_25
REMARK    9  A    between atoms: C_26  and  C_30
REMARK                            x       y       z     vdW  Elec       q    Type
REMARK                         _______ _______ _______ _____ _____    ______ ____
ROOT
ATOM      1  C   UNL     1      -0.080   3.177   0.336  0.00  0.00    +0.111 C 
ENDROOT
BRANCH   1   4
ATOM      2  C   UNL     1      -1.397  -0.391   0.933  0.00  0.00    -0.078 C 
ATOM      3  C   UNL     1      -1.421   1.139   0.882  0.00  0.00    -0.014 C 
ATOM      4  C   UNL     1      -0.045   1.651   0.448  0.00  0.00    +0.003 C 
ATOM      5  C   UNL     1       0.311   1.046  -0.913  0.00  0.00    -0.014 C 
ATOM      6  C   UNL     1       0.283  -0.480  -0.810  0.00  0.00    -0.078 C 
ATOM      7  N   UNL     1      -1.074  -0.911  -0.412  0.00  0.00    +0.382 N 
ATOM      8  H   UNL     1      -1.753  -0.537  -1.085  0.00  0.00    -0.081 HD
BRANCH   7   9
ATOM      9  C   UNL     1      -1.157  -2.386  -0.416  0.00  0.00    -0.043 C 
BRANCH   9  16
ATOM     10  C   UNL     1      -3.379  -2.046  -2.230  0.00  0.00    +0.044 C 
ATOM     11  C   UNL     1      -2.114  -2.711  -2.706  0.00  0.00    -0.049 A 
ATOM     12  C   UNL     1      -2.015  -3.155  -4.011  0.00  0.00    +0.003 A 
ATOM     13  C   UNL     1      -0.856  -3.770  -4.446  0.00  0.00    +0.000 A 
ATOM     14  C   UNL     1       0.206  -3.937  -3.577  0.00  0.00    +0.000 A 
ATOM     15  C   UNL     1       0.109  -3.490  -2.273  0.00  0.00    +0.002 A 
ATOM     16  C   UNL     1      -1.050  -2.874  -1.838  0.00  0.00    -0.061 A 
ENDBRANCH   9  16
ENDBRANCH   7   9
ENDBRANCH   1   4
BRANCH   1  17
ATOM     17  N   UNL     1       1.258   3.673   0.003  0.00  0.00    -0.294 N 
ATOM     18  C   UNL     1       1.586   3.915  -1.282  0.00  0.00    +0.255 C 
ATOM     19  O   UNL     1       0.747   3.806  -2.156  0.00  0.00    -0.269 OA
BRANCH  18  20
ATOM     20  C   UNL     1       2.956   4.310  -1.626  0.00  0.00    +0.096 A 
ATOM     21  C   UNL     1       3.476   4.727  -2.832  0.00  0.00    +0.058 A 
ATOM     22  N   UNL     1       4.747   5.030  -2.880  0.00  0.00    -0.252 NA
ATOM     23  C   UNL     1       5.523   4.934  -1.820  0.00  0.00    +0.156 A 
ATOM     24  S   UNL     1       4.418   4.377  -0.601  0.00  0.00    -0.071 S 
ATOM     25  C   UNL     1       2.604   4.835  -4.057  0.00  0.00    +0.067 C 
ENDBRANCH  18  20
BRANCH  17  26
ATOM     26  C   UNL     1       2.238   3.905   1.066  0.00  0.00    +0.139 C 
BRANCH  26  27
ATOM     27  C   UNL     1       2.231   5.386   1.451  0.00  0.00    +0.136 C 
ATOM     28  C   UNL     1       3.264   5.642   2.566  0.00  0.00    +0.035 C 
ATOM     29  C   UNL     1       4.221   6.699   1.961  0.00  0.00    +0.031 C 
ATOM     30  C   UNL     1       3.353   7.316   0.835  0.00  0.00    +0.160 C 
ATOM     31  O   UNL     1       2.615   6.187   0.321  0.00  0.00    -0.375 OA
ENDBRANCH  26  27
ENDBRANCH  17  26
ENDBRANCH   1  17
TORSDOF 7
