REMARK  Name = ZINC13142001
REMARK  11 active torsions:
REMARK  status: ('A' for Active; 'I' for Inactive)
REMARK    1  A    between atoms: C_1  and  C_2
REMARK    2  A    between atoms: C_5  and  N_8
REMARK    3  A    between atoms: C_12  and  S_14
REMARK    4  A    between atoms: S_14  and  C_15
REMARK    5  A    between atoms: C_15  and  C_16
REMARK    6  A    between atoms: N_18  and  C_19
REMARK    7  A    between atoms: C_20  and  C_26
REMARK    8  A    between atoms: C_21  and  C_25
REMARK    9  A    between atoms: C_22  and  C_24
REMARK   10  A    between atoms: C_26  and  O_28
REMARK   11  A    between atoms: O_28  and  C_29
REMARK                            x       y       z     vdW  Elec       q    Type
REMARK                         _______ _______ _______ _____ _____    ______ ____
ROOT
ATOM      1  C   UNL     1       2.116   4.046   4.994  0.00  0.00    +0.172 C 
ENDROOT
BRANCH   1   2
ATOM      2  C   UNL     1       2.365   4.544   3.594  0.00  0.00    +0.228 C 
ATOM      3  O   UNL     1       2.588   5.720   3.400  0.00  0.00    -0.275 OA
ATOM      4  N   UNL     1       2.340   3.682   2.558  0.00  0.00    -0.279 N 
ATOM      5  H   UNL     1       2.162   2.741   2.714  0.00  0.00    +0.155 HD
BRANCH   4   6
ATOM      6  C   UNL     1       2.570   4.140   1.270  0.00  0.00    +0.086 A 
ATOM      7  C   UNL     1       2.585   3.413   0.084  0.00  0.00    +0.091 A 
ATOM      8  C   UNL     1       2.847   4.154  -1.127  0.00  0.00    -0.025 A 
ATOM      9  C   UNL     1       3.058   5.476  -1.005  0.00  0.00    -0.008 A 
ATOM     10  S   UNL     1       2.909   5.756   0.747  0.00  0.00    -0.078 S 
ATOM     11  C   UNL     1       3.349   6.481  -2.090  0.00  0.00    +0.052 C 
ATOM     12  C   UNL     1       2.883   3.474  -2.471  0.00  0.00    +0.045 C 
BRANCH   7  13
ATOM     13  C   UNL     1       2.342   1.969   0.065  0.00  0.00    +0.342 C 
ATOM     14  O   UNL     1       3.273   1.194   0.173  0.00  0.00    -0.245 OA
BRANCH  13  15
ATOM     15  O   UNL     1       1.086   1.498  -0.072  0.00  0.00    -0.464 OA
ATOM     16  C   UNL     1       0.919   0.056  -0.083  0.00  0.00    +0.280 C 
ENDBRANCH  13  15
ENDBRANCH   7  13
ENDBRANCH   4   6
ENDBRANCH   1   2
BRANCH   1  17
ATOM     17  S   UNL     1       2.215   5.434   6.157  0.00  0.00    -0.088 S 
BRANCH  17  22
ATOM     18  N   UNL     1       1.299   3.842  11.656  0.00  0.00    -0.292 N 
ATOM     19  C   UNL     1       1.485   3.987  10.286  0.00  0.00    +0.187 A 
ATOM     20  N   UNL     1       1.441   3.074   9.335  0.00  0.00    -0.125 NA
ATOM     21  N   UNL     1       1.656   3.438   8.026  0.00  0.00    -0.133 NA
ATOM     22  C   UNL     1       1.905   4.699   7.728  0.00  0.00    +0.160 A 
ATOM     23  S   UNL     1       1.853   5.459   9.343  0.00  0.00    -0.024 S 
ATOM     24  H   UNL     1       1.276   4.625  12.228  0.00  0.00    +0.154 HD
BRANCH  18  29
ATOM     25  C   UNL     1       0.682  -1.329  13.902  0.00  0.00    +0.044 C 
ATOM     26  C   UNL     1       0.846   0.045  13.305  0.00  0.00    -0.050 A 
ATOM     27  C   UNL     1       1.541   0.204  12.120  0.00  0.00    +0.005 A 
ATOM     28  C   UNL     1       1.693   1.461  11.570  0.00  0.00    +0.023 A 
ATOM     29  C   UNL     1       1.147   2.568  12.209  0.00  0.00    +0.033 A 
ATOM     30  C   UNL     1       0.454   2.405  13.402  0.00  0.00    +0.023 A 
ATOM     31  C   UNL     1       0.301   1.144  13.943  0.00  0.00    +0.005 A 
ENDBRANCH  18  29
ENDBRANCH  17  22
ENDBRANCH   1  17
TORSDOF 7
