REMARK  Name = ZINC05003865
REMARK  5 active torsions:
REMARK  status: ('A' for Active; 'I' for Inactive)
REMARK    1  A    between atoms: C_1  and  C_2
REMARK    2  A    between atoms: C_2  and  N_9
REMARK    3  A    between atoms: N_12  and  C_13
REMARK    4  A    between atoms: N_12  and  C_14
REMARK    5  A    between atoms: C_14  and  C_21
REMARK                            x       y       z     vdW  Elec       q    Type
REMARK                         _______ _______ _______ _____ _____    ______ ____
ROOT
ATOM      1  N   UNL     1      -0.703   4.973   2.732  0.00  0.00    -0.292 N 
ATOM      2  C   UNL     1      -1.086   3.712   2.449  0.00  0.00    +0.303 C 
ATOM      3  O   UNL     1      -1.954   3.177   3.112  0.00  0.00    -0.253 OA
ATOM      4  N   UNL     1      -0.508   3.044   1.431  0.00  0.00    -0.282 N 
ATOM      5  C   UNL     1       0.537   3.688   0.632  0.00  0.00    +0.134 C 
ATOM      6  H   UNL     1      -0.011   5.399   2.203  0.00  0.00    +0.151 HD
ENDROOT
BRANCH   1   8
ATOM      7  C   UNL     1      -2.824   5.851   3.534  0.00  0.00    +0.033 C 
ATOM      8  C   UNL     1      -1.332   5.699   3.838  0.00  0.00    +0.054 C 
ATOM      9  C   UNL     1      -0.710   7.084   3.925  0.00  0.00    +0.049 C 
ATOM     10  C   UNL     1      -0.045   7.387   5.287  0.00  0.00    +0.168 C 
ATOM     11  S   UNL     1       0.274   5.682   5.918  0.00  0.00    -0.029 S 
ATOM     12  O   UNL     1       1.471   5.181   5.339  0.00  0.00    -0.174 OA
ATOM     13  O   UNL     1       0.114   5.666   7.330  0.00  0.00    -0.174 OA
ATOM     14  C   UNL     1      -1.178   4.862   5.128  0.00  0.00    +0.191 C 
ENDBRANCH   1   8
BRANCH   4  15
ATOM     15  C   UNL     1      -0.924   1.673   1.124  0.00  0.00    +0.056 C 
ATOM     16  C   UNL     1      -2.447   1.628   0.909  0.00  0.00    +0.050 C 
ATOM     17  C   UNL     1      -2.811   2.300  -0.437  0.00  0.00    +0.168 C 
ATOM     18  S   UNL     1      -1.297   2.029  -1.445  0.00  0.00    -0.029 S 
ATOM     19  O   UNL     1      -0.726   3.289  -1.770  0.00  0.00    -0.174 OA
ATOM     20  O   UNL     1      -1.591   1.105  -2.485  0.00  0.00    -0.174 OA
ATOM     21  C   UNL     1      -0.237   1.197  -0.188  0.00  0.00    +0.191 C 
ATOM     22  C   UNL     1      -0.536   0.745   2.277  0.00  0.00    +0.033 C 
ENDBRANCH   4  15
TORSDOF 2
