REMARK  Name = ZINC59912869
REMARK  7 active torsions:
REMARK  status: ('A' for Active; 'I' for Inactive)
REMARK    1  A    between atoms: C_6  and  N_7
REMARK    2  A    between atoms: N_7  and  N_8
REMARK    3  A    between atoms: C_9  and  C_11
REMARK    4  A    between atoms: C_11  and  S_12
REMARK    5  A    between atoms: S_12  and  C_13
REMARK    6  A    between atoms: C_16  and  C_19
REMARK    7  A    between atoms: N_17  and  N_18
REMARK                            x       y       z     vdW  Elec       q    Type
REMARK                         _______ _______ _______ _____ _____    ______ ____
ROOT
ATOM      1  N   UNL     1      -1.177  -2.121   0.002  0.00  0.00    -0.236 N 
ATOM      2  C   UNL     1      -2.334  -2.812   0.009  0.00  0.00    +0.239 C 
ATOM      3  O   UNL     1      -3.393  -2.221   0.022  0.00  0.00    -0.273 OA
ATOM      4  H   UNL     1      -0.330  -2.594  -0.009  0.00  0.00    +0.173 HD
ENDROOT
BRANCH   1   5
ATOM      5  N   UNL     1      -1.198  -0.721   0.010  0.00  0.00    -0.264 N 
ATOM      6  H   UNL     1      -2.045  -0.248   0.020  0.00  0.00    +0.170 HD
BRANCH   5  12
ATOM      7  C   UNL     1      -0.017   1.385   0.010  0.00  0.00    +0.026 A 
ATOM      8  C   UNL     1       1.171   2.090   0.002  0.00  0.00    +0.022 A 
ATOM      9  C   UNL     1       2.378   1.415  -0.013  0.00  0.00    +0.041 A 
ATOM     10  C   UNL     1       2.400   0.031  -0.022  0.00  0.00    +0.022 A 
ATOM     11  C   UNL     1       1.216  -0.679  -0.014  0.00  0.00    +0.026 A 
ATOM     12  C   UNL     1       0.002  -0.004   0.002  0.00  0.00    +0.044 A 
ATOM     13 CL   UNL     1       3.869   2.305  -0.024  0.00  0.00    -0.084 Cl
ENDBRANCH   5  12
ENDBRANCH   1   5
BRANCH   2  14
ATOM     14  C   UNL     1      -2.312  -4.319   0.001  0.00  0.00    +0.174 C 
BRANCH  14  15
ATOM     15  S   UNL     1      -4.013  -4.949   0.014  0.00  0.00    -0.075 S 
BRANCH  15  16
ATOM     16  C   UNL     1      -3.820  -6.700   0.003  0.00  0.00    +0.209 A 
ATOM     17  N   UNL     1      -2.685  -7.360  -0.006  0.00  0.00    -0.121 NA
ATOM     18  N   UNL     1      -2.915  -8.624  -0.013  0.00  0.00    -0.132 NA
ATOM     19  C   UNL     1      -4.199  -8.845  -0.009  0.00  0.00    +0.154 A 
ATOM     20  N   UNL     1      -4.822  -7.628   0.007  0.00  0.00    -0.228 N 
BRANCH  20  21
ATOM     21  N   UNL     1      -6.167  -7.389   0.021  0.00  0.00    -0.295 N 
ATOM     22  H   UNL     1      -6.532  -7.321  -0.917  0.00  0.00    +0.163 HD
ATOM     23  H   UNL     1      -6.654  -8.098   0.549  0.00  0.00    +0.163 HD
ENDBRANCH  20  21
BRANCH  19  24
ATOM     24  C   UNL     1      -4.873 -10.193  -0.014  0.00  0.00    +0.059 C 
ATOM     25  C   UNL     1      -3.990 -11.424  -0.228  0.00  0.00    +0.012 C 
ATOM     26  C   UNL     1      -4.578 -11.135   1.155  0.00  0.00    +0.012 C 
ENDBRANCH  19  24
ENDBRANCH  15  16
ENDBRANCH  14  15
ENDBRANCH   2  14
TORSDOF 7
