REMARK  Name = ZINC64427051
REMARK  11 active torsions:
REMARK  status: ('A' for Active; 'I' for Inactive)
REMARK    1  A    between atoms: C_1  and  O_2
REMARK    2  A    between atoms: O_2  and  C_3
REMARK    3  A    between atoms: C_6  and  C_9
REMARK    4  A    between atoms: C_24  and  C_26
REMARK    5  A    between atoms: C_27  and  C_28
REMARK    6  A    between atoms: C_30  and  O_38
REMARK    7  A    between atoms: C_31  and  O_36
REMARK    8  A    between atoms: C_32  and  O_34
REMARK    9  A    between atoms: O_34  and  C_35
REMARK   10  A    between atoms: O_36  and  C_37
REMARK   11  A    between atoms: O_38  and  C_39
REMARK                            x       y       z     vdW  Elec       q    Type
REMARK                         _______ _______ _______ _____ _____    ______ ____
ROOT
ATOM      1  C   UNL     1       2.615  -2.565   4.321  0.00  0.00    +0.133 C 
ATOM      2  C   UNL     1       3.962  -3.139   3.870  0.00  0.00    +0.131 C 
ATOM      3  C   UNL     1       3.648  -4.313   2.951  0.00  0.00    -0.035 C 
ATOM      4  C   UNL     1       4.267  -4.067   1.802  0.00  0.00    -0.001 A 
ATOM      5  C   UNL     1       4.392  -4.859   0.568  0.00  0.00    +0.010 A 
ATOM      6  C   UNL     1       5.102  -4.288  -0.441  0.00  0.00    +0.001 A 
ATOM      7  C   UNL     1       5.694  -3.024  -0.345  0.00  0.00    +0.002 A 
ATOM      8  C   UNL     1       5.633  -2.229   0.752  0.00  0.00    +0.026 A 
ATOM      9  C   UNL     1       4.916  -2.723   1.881  0.00  0.00    +0.043 A 
ATOM     10  N   UNL     1       4.723  -2.178   3.069  0.00  0.00    -0.375 N 
ATOM     11  C   UNL     1       2.729  -5.439   3.360  0.00  0.00    +0.052 C 
ATOM     12  C   UNL     1       1.437  -4.787   3.885  0.00  0.00    +0.113 C 
ATOM     13  N   UNL     1       1.780  -3.683   4.789  0.00  0.00    -0.288 N 
ATOM     14  C   UNL     1       1.329  -3.693   6.059  0.00  0.00    +0.240 C 
ATOM     15  O   UNL     1       0.721  -4.660   6.481  0.00  0.00    -0.271 OA
ATOM     16  H   UNL     1       5.020  -1.303   3.365  0.00  0.00    +0.160 HD
ENDROOT
BRANCH   1  20
ATOM     17  C   UNL     1       0.703  -0.607   1.038  0.00  0.00    +0.120 A 
ATOM     18  C   UNL     1       0.987  -1.964   0.969  0.00  0.00    +0.046 A 
ATOM     19  C   UNL     1       1.605  -2.594   2.031  0.00  0.00    +0.009 A 
ATOM     20  C   UNL     1       1.941  -1.875   3.163  0.00  0.00    -0.025 A 
ATOM     21  C   UNL     1       1.658  -0.523   3.235  0.00  0.00    +0.009 A 
ATOM     22  C   UNL     1       1.046   0.113   2.173  0.00  0.00    +0.046 A 
BRANCH  17  24
ATOM     23  C   UNL     1      -0.229  -0.789  -1.141  0.00  0.00    +0.277 C 
ATOM     24  O   UNL     1       0.095   0.015  -0.006  0.00  0.00    -0.495 OA
ENDBRANCH  17  24
ENDBRANCH   1  20
BRANCH  14  25
ATOM     25  C   UNL     1       1.569  -2.543   6.929  0.00  0.00    +0.068 C 
ATOM     26  C   UNL     1       1.217  -2.597   8.231  0.00  0.00    +0.013 C 
BRANCH  26  27
ATOM     27  C   UNL     1       1.458  -1.441   9.107  0.00  0.00    -0.018 A 
ATOM     28  C   UNL     1       2.047  -0.281   8.590  0.00  0.00    +0.057 A 
ATOM     29  C   UNL     1       2.272   0.804   9.416  0.00  0.00    +0.166 A 
ATOM     30  C   UNL     1       1.914   0.744  10.761  0.00  0.00    +0.204 A 
ATOM     31  C   UNL     1       1.329  -0.409  11.278  0.00  0.00    +0.166 A 
ATOM     32  C   UNL     1       1.095  -1.496  10.457  0.00  0.00    +0.057 A 
BRANCH  31  33
ATOM     33  O   UNL     1       0.981  -0.463  12.592  0.00  0.00    -0.491 OA
ATOM     34  C   UNL     1       0.385  -1.676  13.056  0.00  0.00    +0.277 C 
ENDBRANCH  31  33
BRANCH  30  35
ATOM     35  O   UNL     1       2.138   1.813  11.570  0.00  0.00    -0.488 OA
ATOM     36  C   UNL     1       1.091   2.780  11.670  0.00  0.00    +0.277 C 
ENDBRANCH  30  35
BRANCH  29  37
ATOM     37  O   UNL     1       2.845   1.931   8.915  0.00  0.00    -0.491 OA
ATOM     38  C   UNL     1       3.187   1.923   7.528  0.00  0.00    +0.277 C 
ENDBRANCH  29  37
ENDBRANCH  26  27
ENDBRANCH  14  25
TORSDOF 7
