REMARK  Name = ZINC63007916
REMARK  7 active torsions:
REMARK  status: ('A' for Active; 'I' for Inactive)
REMARK    1  A    between atoms: C_1  and  C_2
REMARK    2  A    between atoms: C_5  and  C_7
REMARK    3  A    between atoms: C_7  and  C_9
REMARK    4  A    between atoms: C_7  and  N_10
REMARK    5  A    between atoms: C_11  and  C_13
REMARK    6  A    between atoms: C_16  and  N_20
REMARK    7  A    between atoms: N_20  and  N_21
REMARK                            x       y       z     vdW  Elec       q    Type
REMARK                         _______ _______ _______ _____ _____    ______ ____
ROOT
ATOM      1  C   UNL     1       3.706  -5.387  -2.389  0.00  0.00    +0.042 A 
ATOM      2  C   UNL     1       4.465  -4.242  -2.648  0.00  0.00    +0.053 A 
ATOM      3  C   UNL     1       5.554  -4.316  -3.490  0.00  0.00    +0.149 A 
ATOM      4  C   UNL     1       5.899  -5.529  -4.081  0.00  0.00    +0.112 A 
ATOM      5  C   UNL     1       5.144  -6.671  -3.824  0.00  0.00    +0.149 A 
ATOM      6  C   UNL     1       4.057  -6.604  -2.979  0.00  0.00    +0.053 A 
ATOM      7  F   UNL     1       5.480  -7.846  -4.400  0.00  0.00    -0.203 F 
ATOM      8  F   UNL     1       6.288  -3.210  -3.741  0.00  0.00    -0.203 F 
ENDROOT
BRANCH   1  10
ATOM      9  N   UNL     1       2.201  -4.137  -0.921  0.00  0.00    -0.304 N 
ATOM     10  C   UNL     1       2.539  -5.311  -1.489  0.00  0.00    +0.245 C 
ATOM     11  O   UNL     1       1.883  -6.309  -1.260  0.00  0.00    -0.270 OA
ATOM     12  H   UNL     1       2.725  -3.341  -1.103  0.00  0.00    +0.150 HD
BRANCH   9  13
ATOM     13  C   UNL     1       1.043  -4.062  -0.027  0.00  0.00    +0.107 C 
ATOM     14  C   UNL     1       1.465  -4.458   1.389  0.00  0.00    +0.033 C 
BRANCH  13  19
ATOM     15  C   UNL     1      -0.018   1.503   0.010  0.00  0.00    +0.051 C 
ATOM     16  C   UNL     1       0.002  -0.004   0.002  0.00  0.00    -0.013 A 
ATOM     17  C   UNL     1      -1.039  -0.872   0.002  0.00  0.00    +0.011 A 
ATOM     18  C   UNL     1      -0.780  -2.230  -0.007  0.00  0.00    +0.013 A 
ATOM     19  C   UNL     1       0.507  -2.653  -0.016  0.00  0.00    +0.010 A 
ATOM     20  S   UNL     1       1.404  -1.109  -0.018  0.00  0.00    -0.097 S 
ENDBRANCH  13  19
ENDBRANCH   9  13
ENDBRANCH   1  10
BRANCH   4  21
ATOM     21  N   UNL     1       7.000  -5.600  -4.932  0.00  0.00    -0.278 N 
ATOM     22  H   UNL     1       7.394  -4.787  -5.285  0.00  0.00    +0.166 HD
BRANCH  21  23
ATOM     23  N   UNL     1       7.526  -6.815  -5.268  0.00  0.00    -0.256 NA
ATOM     24  H   UNL     1       8.316  -6.709  -5.887  0.00  0.00    +0.140 HD
ATOM     25  H   UNL     1       7.780  -7.340  -4.444  0.00  0.00    +0.140 HD
ENDBRANCH  21  23
ENDBRANCH   4  21
TORSDOF 5
