REMARK  Name = ZINC04237037
REMARK  13 active torsions:
REMARK  status: ('A' for Active; 'I' for Inactive)
REMARK    1  A    between atoms: C_1  and  C_2
REMARK    2  A    between atoms: C_2  and  C_3
REMARK    3  A    between atoms: C_3  and  C_4
REMARK    4  A    between atoms: C_4  and  C_5
REMARK    5  A    between atoms: C_5  and  C_6
REMARK    6  A    between atoms: C_17  and  C_41
REMARK    7  A    between atoms: C_18  and  C_20
REMARK    8  A    between atoms: C_20  and  C_21
REMARK    9  A    between atoms: C_26  and  C_29
REMARK   10  A    between atoms: C_34  and  O_40
REMARK   11  A    between atoms: C_36  and  C_37
REMARK   12  A    between atoms: C_36  and  C_38
REMARK   13  A    between atoms: C_38  and  O_39
REMARK                            x       y       z     vdW  Elec       q    Type
REMARK                         _______ _______ _______ _____ _____    ______ ____
ROOT
ATOM      1  C   UNL     1       0.537   1.273   0.366  0.00  0.00    +0.219 C 
ATOM      2  O   UNL     1       1.541   1.954   0.361  0.00  0.00    -0.275 OA
ATOM      3  N   UNL     1      -0.674   1.858   0.275  0.00  0.00    -0.265 N 
ATOM      4  C   UNL     1      -0.772   3.241   0.179  0.00  0.00    +0.165 A 
ATOM      5  N   UNL     1      -1.851   3.989   0.082  0.00  0.00    -0.229 NA
ATOM      6  C   UNL     1      -1.790   5.316  -0.004  0.00  0.00    +0.058 A 
ATOM      7  C   UNL     1      -0.544   5.856   0.018  0.00  0.00    +0.015 A 
ATOM      8  S   UNL     1       0.497   4.429   0.165  0.00  0.00    -0.057 S 
ATOM      9  C   UNL     1      -0.175   7.295  -0.059  0.00  0.00    +0.049 C 
ATOM     10  C   UNL     1      -1.399   8.102  -0.534  0.00  0.00    +0.011 C 
ATOM     11  C   UNL     1      -2.629   7.652   0.257  0.00  0.00    -0.019 C 
ATOM     12  C   UNL     1      -3.010   6.216  -0.126  0.00  0.00    +0.054 C 
ATOM     13  C   UNL     1      -3.827   8.549  -0.076  0.00  0.00    +0.010 C 
ATOM     14  C   UNL     1      -3.502  10.008   0.234  0.00  0.00    +0.032 C 
ATOM     15  C   UNL     1      -2.310  10.441  -0.624  0.00  0.00    +0.123 C 
ATOM     16  C   UNL     1      -1.103   9.580  -0.258  0.00  0.00    +0.021 C 
ATOM     17  C   UNL     1       0.104  10.018  -1.090  0.00  0.00    +0.016 C 
ATOM     18  C   UNL     1      -2.332   7.731   1.756  0.00  0.00    +0.012 C 
ATOM     19  H   UNL     1      -1.477   1.313   0.275  0.00  0.00    +0.157 HD
ENDROOT
BRANCH  15  20
ATOM     20  O   UNL     1      -2.012  11.816  -0.372  0.00  0.00    -0.391 OA
ATOM     21  H   UNL     1      -2.740  12.419  -0.572  0.00  0.00    +0.210 HD
ENDBRANCH  15  20
BRANCH   1  22
ATOM     22  C   UNL     1       0.644  -0.227   0.470  0.00  0.00    +0.096 C 
BRANCH  22  23
ATOM     23  C   UNL     1       2.118  -0.628   0.554  0.00  0.00    +0.009 C 
BRANCH  23  24
ATOM     24  C   UNL     1       2.226  -2.151   0.659  0.00  0.00    +0.000 C 
BRANCH  24  26
ATOM     25  C   UNL     1       3.808  -4.075   0.848  0.00  0.00    +0.004 C 
ATOM     26  C   UNL     1       3.700  -2.553   0.743  0.00  0.00    -0.003 C 
ENDBRANCH  24  26
ENDBRANCH  23  24
ENDBRANCH  22  23
ENDBRANCH   1  22
BRANCH  12  27
ATOM     27  C   UNL     1      -4.109   5.713   0.812  0.00  0.00    +0.106 C 
BRANCH  27  28
ATOM     28  C   UNL     1      -4.624   4.387   0.316  0.00  0.00    +0.216 C 
ATOM     29  O   UNL     1      -4.157   3.892  -0.689  0.00  0.00    -0.276 OA
ATOM     30  N   UNL     1      -5.603   3.750   0.988  0.00  0.00    -0.301 N 
ATOM     31  C   UNL     1      -6.174   4.333   2.210  0.00  0.00    +0.108 C 
ATOM     32  C   UNL     1      -6.096   3.304   3.336  0.00  0.00    +0.032 C 
ATOM     33  C   UNL     1      -6.769   2.006   2.886  0.00  0.00    +0.078 C 
ATOM     34  C   UNL     1      -6.034   1.445   1.665  0.00  0.00    +0.032 C 
ATOM     35  C   UNL     1      -6.116   2.456   0.517  0.00  0.00    +0.108 C 
BRANCH  33  36
ATOM     36  C   UNL     1      -6.719   1.000   4.007  0.00  0.00    +0.214 C 
ATOM     37  O   UNL     1      -6.153  -0.060   3.846  0.00  0.00    -0.276 OA
ATOM     38  N   UNL     1      -7.305   1.278   5.188  0.00  0.00    -0.329 N 
ATOM     39  H   UNL     1      -7.758   2.126   5.317  0.00  0.00    +0.145 HD
ATOM     40  H   UNL     1      -7.273   0.631   5.910  0.00  0.00    +0.145 HD
ENDBRANCH  33  36
ENDBRANCH  27  28
ENDBRANCH  12  27
BRANCH  16  41
ATOM     41  C   UNL     1      -0.782   9.762   1.227  0.00  0.00    +0.165 C 
BRANCH  41  42
ATOM     42  O   UNL     1      -0.354  11.106   1.460  0.00  0.00    -0.394 OA
ATOM     43  H   UNL     1      -0.134  11.294   2.383  0.00  0.00    +0.209 HD
ENDBRANCH  41  42
ENDBRANCH  16  41
TORSDOF 10
