REMARK  Name = ZINC49871592
REMARK  2 active torsions:
REMARK  status: ('A' for Active; 'I' for Inactive)
REMARK    1  A    between atoms: C_5  and  C_6
REMARK    2  A    between atoms: C_12  and  C_15
REMARK                            x       y       z     vdW  Elec       q    Type
REMARK                         _______ _______ _______ _____ _____    ______ ____
ROOT
ATOM      1  C   UNL     1      -1.123  -0.943   0.008  0.00  0.00    +0.253 C 
ATOM      2  O   UNL     1      -2.258  -0.529   0.154  0.00  0.00    -0.269 OA
ATOM      3  N   UNL     1      -0.896  -2.267  -0.103  0.00  0.00    -0.292 N 
ATOM      4  C   UNL     1       0.474  -2.802  -0.116  0.00  0.00    +0.136 C 
ATOM      5  C   UNL     1       0.561  -3.934   0.915  0.00  0.00    +0.180 C 
ATOM      6  O   UNL     1      -0.490  -4.872   0.672  0.00  0.00    -0.362 OA
ATOM      7  C   UNL     1      -1.805  -4.330   0.821  0.00  0.00    +0.248 C 
ATOM      8  C   UNL     1      -2.012  -3.220  -0.209  0.00  0.00    +0.151 C 
ENDROOT
BRANCH   1  13
ATOM      9  C   UNL     1       0.007   1.363   0.210  0.00  0.00    +0.037 A 
ATOM     10  C   UNL     1       1.224   1.987   0.075  0.00  0.00    +0.040 A 
ATOM     11  C   UNL     1       2.306   1.251  -0.289  0.00  0.00    +0.070 A 
ATOM     12  S   UNL     1       1.705  -0.308  -0.459  0.00  0.00    -0.076 S 
ATOM     13  C   UNL     1      -0.002  -0.001  -0.047  0.00  0.00    +0.076 A 
ATOM     14 BR   UNL     1       4.082   1.846  -0.545  0.00  0.00    -0.041 Br
ATOM     15 BR   UNL     1       1.389   3.844   0.392  0.00  0.00    -0.049 Br
ENDBRANCH   1  13
BRANCH   7  16
ATOM     16  C   UNL     1      -2.825  -5.418   0.604  0.00  0.00    +0.386 C 
ATOM     17  O   UNL     1      -2.461  -6.553   0.347  0.00  0.00    -0.243 OA
ATOM     18  O   UNL     1      -4.014  -5.164   0.687  0.00  0.00    -0.243 OA
ENDBRANCH   7  16
TORSDOF 2
