REMARK  Name = ZINC36732592
REMARK  9 active torsions:
REMARK  status: ('A' for Active; 'I' for Inactive)
REMARK    1  A    between atoms: C_1  and  C_2
REMARK    2  A    between atoms: C_5  and  S_25
REMARK    3  A    between atoms: C_7  and  C_8
REMARK    4  A    between atoms: N_10  and  C_11
REMARK    5  A    between atoms: C_11  and  C_12
REMARK    6  A    between atoms: C_12  and  C_14
REMARK    7  A    between atoms: C_12  and  N_19
REMARK    8  A    between atoms: S_25  and  N_28
REMARK    9  A    between atoms: C_33  and  C_35
REMARK                            x       y       z     vdW  Elec       q    Type
REMARK                         _______ _______ _______ _____ _____    ______ ____
ROOT
ATOM      1  C   UNL     1       0.343  -0.761   2.923  0.00  0.00    +0.244 C 
ATOM      2  O   UNL     1       0.348   0.436   3.133  0.00  0.00    -0.270 OA
ATOM      3  N   UNL     1       0.689  -1.619   3.904  0.00  0.00    -0.312 N 
ATOM      4  H   UNL     1       0.685  -2.575   3.736  0.00  0.00    +0.149 HD
ENDROOT
BRANCH   1  11
ATOM      5  C   UNL     1      -0.660   1.066   0.917  0.00  0.00    +0.044 C 
ATOM      6  C   UNL     1      -0.527  -0.405   0.616  0.00  0.00    -0.038 A 
ATOM      7  C   UNL     1      -0.879  -0.891  -0.626  0.00  0.00    +0.006 A 
ATOM      8  C   UNL     1      -0.758  -2.241  -0.903  0.00  0.00    +0.029 A 
ATOM      9  C   UNL     1      -0.284  -3.112   0.061  0.00  0.00    +0.106 A 
ATOM     10  C   UNL     1       0.072  -2.639   1.307  0.00  0.00    +0.041 A 
ATOM     11  C   UNL     1      -0.042  -1.277   1.592  0.00  0.00    +0.041 A 
BRANCH   9  12
ATOM     12  S   UNL     1      -0.134  -4.830  -0.302  0.00  0.00    +0.061 S 
ATOM     13  O   UNL     1      -0.182  -5.513   0.943  0.00  0.00    -0.153 OA
ATOM     14  O   UNL     1      -1.047  -5.102  -1.357  0.00  0.00    -0.153 OA
BRANCH  12  15
ATOM     15  N   UNL     1       1.385  -5.070  -0.916  0.00  0.00    -0.174 NA
ATOM     16  C   UNL     1       1.607  -5.115  -2.368  0.00  0.00    +0.110 C 
ATOM     17  C   UNL     1       2.343  -6.413  -2.713  0.00  0.00    +0.017 C 
ATOM     18  C   UNL     1       3.622  -6.507  -1.879  0.00  0.00    +0.003 C 
ATOM     19  C   UNL     1       3.262  -6.538  -0.392  0.00  0.00    +0.020 C 
ATOM     20  C   UNL     1       2.537  -5.236  -0.019  0.00  0.00    +0.077 C 
ATOM     21  C   UNL     1       2.052  -5.312   1.430  0.00  0.00    +0.026 C 
ENDBRANCH  12  15
ENDBRANCH   9  12
ENDBRANCH   1  11
BRANCH   3  22
ATOM     22  C   UNL     1       1.070  -1.109   5.223  0.00  0.00    +0.097 C 
BRANCH  22  23
ATOM     23  C   UNL     1       1.496  -2.275   6.117  0.00  0.00    +0.016 C 
BRANCH  23  24
ATOM     24  N   UNL     1       0.434  -3.289   6.138  0.00  0.00    +0.387 N 
ATOM     25  C   UNL     1      -0.826  -2.668   6.565  0.00  0.00    -0.078 C 
ATOM     26  C   UNL     1      -1.953  -3.702   6.510  0.00  0.00    -0.019 C 
ATOM     27  C   UNL     1      -1.615  -4.868   7.443  0.00  0.00    -0.004 C 
ATOM     28  C   UNL     1      -0.263  -5.461   7.034  0.00  0.00    -0.019 C 
ATOM     29  C   UNL     1       0.801  -4.362   7.070  0.00  0.00    -0.078 C 
ATOM     30  H   UNL     1       0.320  -3.674   5.212  0.00  0.00    -0.081 HD
ENDBRANCH  23  24
BRANCH  23  31
ATOM     31  C   UNL     1       1.737  -1.772   7.517  0.00  0.00    +0.093 A 
ATOM     32  C   UNL     1       2.937  -1.650   8.114  0.00  0.00    +0.043 A 
ATOM     33  C   UNL     1       2.699  -1.145   9.412  0.00  0.00    +0.041 A 
ATOM     34  C   UNL     1       1.368  -0.988   9.532  0.00  0.00    +0.195 A 
ATOM     35  O   UNL     1       0.791  -1.364   8.379  0.00  0.00    -0.469 OA
ENDBRANCH  23  31
ENDBRANCH  22  23
ENDBRANCH   3  22
TORSDOF 7
