REMARK  Name = ZINC34929415
REMARK  8 active torsions:
REMARK  status: ('A' for Active; 'I' for Inactive)
REMARK    1  A    between atoms: C_1  and  C_2
REMARK    2  A    between atoms: C_2  and  O_3
REMARK    3  A    between atoms: O_3  and  C_4
REMARK    4  A    between atoms: C_4  and  C_6
REMARK    5  A    between atoms: C_13  and  C_15
REMARK    6  A    between atoms: C_15  and  C_16
REMARK    7  A    between atoms: C_16  and  C_18
REMARK    8  A    between atoms: C_16  and  C_27
REMARK                            x       y       z     vdW  Elec       q    Type
REMARK                         _______ _______ _______ _____ _____    ______ ____
ROOT
ATOM      1  C   UNL     1      -6.226  -6.998   1.759  0.00  0.00    +0.060 C 
ENDROOT
BRANCH   1   2
ATOM      2  C   UNL     1      -5.298  -8.175   1.603  0.00  0.00    -0.015 A 
ATOM      3  C   UNL     1      -5.226  -9.001   0.547  0.00  0.00    +0.087 A 
ATOM      4  N   UNL     1      -4.267  -9.952   0.763  0.00  0.00    -0.360 N 
ATOM      5  H   UNL     1      -4.033 -10.659   0.141  0.00  0.00    +0.165 HD
ATOM      6  C   UNL     1      -3.682  -9.757   1.994  0.00  0.00    +0.047 A 
ATOM      7  C   UNL     1      -4.298  -8.631   2.572  0.00  0.00    +0.003 A 
ATOM      8  C   UNL     1      -3.899  -8.190   3.834  0.00  0.00    +0.010 A 
ATOM      9  C   UNL     1      -2.907  -8.852   4.502  0.00  0.00    +0.001 A 
ATOM     10  C   UNL     1      -2.294  -9.960   3.935  0.00  0.00    +0.002 A 
ATOM     11  C   UNL     1      -2.679 -10.419   2.694  0.00  0.00    +0.026 A 
ENDBRANCH   1   2
BRANCH   1  12
ATOM     12  C   UNL     1      -7.654  -7.472   1.694  0.00  0.00    -0.036 A 
ATOM     13  C   UNL     1      -8.115  -8.120   0.563  0.00  0.00    +0.008 A 
ATOM     14  C   UNL     1      -9.425  -8.558   0.499  0.00  0.00    +0.050 A 
ATOM     15  C   UNL     1     -10.280  -8.348   1.569  0.00  0.00    +0.166 A 
ATOM     16  C   UNL     1      -9.815  -7.695   2.709  0.00  0.00    +0.167 A 
ATOM     17  C   UNL     1      -8.500  -7.264   2.768  0.00  0.00    +0.053 A 
ATOM     18  O   UNL     1     -10.837  -7.611   3.610  0.00  0.00    -0.453 OA
ATOM     19  C   UNL     1     -12.038  -7.854   2.854  0.00  0.00    +0.466 C 
ATOM     20  O   UNL     1     -11.592  -8.673   1.758  0.00  0.00    -0.453 OA
ENDBRANCH   1  12
BRANCH   1  21
ATOM     21  C   UNL     1      -5.970  -5.994   0.633  0.00  0.00    +0.109 C 
BRANCH  21  28
ATOM     22  C   UNL     1      -2.881  -2.427   0.017  0.00  0.00    +0.115 C 
ATOM     23  C   UNL     1      -3.646  -1.960  -1.224  0.00  0.00    +0.018 C 
ATOM     24  C   UNL     1      -5.064  -2.537  -1.198  0.00  0.00    +0.020 C 
ATOM     25  C   UNL     1      -4.988  -4.067  -1.223  0.00  0.00    +0.108 C 
ATOM     26  N   UNL     1      -4.133  -4.517  -0.116  0.00  0.00    -0.301 N 
ATOM     27  C   UNL     1      -2.781  -3.955   0.006  0.00  0.00    +0.122 C 
ATOM     28  C   UNL     1      -4.581  -5.427   0.771  0.00  0.00    +0.216 C 
ATOM     29  O   UNL     1      -3.865  -5.790   1.680  0.00  0.00    -0.276 OA
BRANCH  22  30
ATOM     30  C   UNL     1      -1.496  -1.832   0.006  0.00  0.00    +0.312 C 
ATOM     31  O   UNL     1      -0.528  -2.555  -0.007  0.00  0.00    -0.250 OA
BRANCH  30  32
ATOM     32  O   UNL     1      -1.339  -0.499   0.012  0.00  0.00    -0.465 OA
BRANCH  32  34
ATOM     33  C   UNL     1      -0.019   1.526   0.010  0.00  0.00    +0.048 C 
ATOM     34  C   UNL     1       0.002  -0.004   0.002  0.00  0.00    +0.229 C 
ENDBRANCH  32  34
ENDBRANCH  30  32
ENDBRANCH  22  30
ENDBRANCH  21  28
ENDBRANCH   1  21
TORSDOF 7
