REMARK  Name = ZINC40744376
REMARK  10 active torsions:
REMARK  status: ('A' for Active; 'I' for Inactive)
REMARK    1  A    between atoms: C_1  and  C_2
REMARK    2  A    between atoms: C_5  and  C_8
REMARK    3  A    between atoms: C_8  and  O_9
REMARK    4  A    between atoms: O_9  and  C_10
REMARK    5  A    between atoms: C_19  and  C_20
REMARK    6  A    between atoms: C_20  and  N_21
REMARK    7  A    between atoms: N_21  and  C_22
REMARK    8  A    between atoms: C_22  and  C_23
REMARK    9  A    between atoms: C_23  and  N_24
REMARK   10  A    between atoms: C_25  and  C_27
REMARK                            x       y       z     vdW  Elec       q    Type
REMARK                         _______ _______ _______ _____ _____    ______ ____
ROOT
ATOM      1  C   UNL     1       1.608  -6.079  -0.040  0.00  0.00    +0.123 A 
ATOM      2  C   UNL     1       0.504  -6.937  -0.044  0.00  0.00    +0.046 A 
ATOM      3  C   UNL     1       0.667  -8.287  -0.053  0.00  0.00    +0.012 A 
ATOM      4  C   UNL     1       1.963  -8.832  -0.058  0.00  0.00    -0.017 A 
ATOM      5  C   UNL     1       2.168 -10.222  -0.067  0.00  0.00    +0.008 A 
ATOM      6  C   UNL     1       3.436 -10.716  -0.072  0.00  0.00    +0.001 A 
ATOM      7  C   UNL     1       4.538  -9.863  -0.068  0.00  0.00    +0.001 A 
ATOM      8  C   UNL     1       4.379  -8.512  -0.059  0.00  0.00    +0.009 A 
ATOM      9  C   UNL     1       3.084  -7.965  -0.054  0.00  0.00    -0.013 A 
ATOM     10  C   UNL     1       2.881  -6.575  -0.050  0.00  0.00    -0.015 A 
ENDROOT
BRANCH   1  11
ATOM     11  O   UNL     1       1.413  -4.734  -0.032  0.00  0.00    -0.487 OA
BRANCH  11  12
ATOM     12  C   UNL     1       0.059  -4.275  -0.021  0.00  0.00    +0.264 C 
BRANCH  12  17
ATOM     13  C   UNL     1      -0.018   1.503   0.010  0.00  0.00    +0.044 C 
ATOM     14  C   UNL     1       0.002  -0.004   0.002  0.00  0.00    -0.050 A 
ATOM     15  C   UNL     1       0.006  -0.689  -1.199  0.00  0.00    +0.004 A 
ATOM     16  C   UNL     1       0.025  -2.071  -1.206  0.00  0.00    +0.007 A 
ATOM     17  C   UNL     1       0.040  -2.768  -0.013  0.00  0.00    -0.010 A 
ATOM     18  C   UNL     1       0.037  -2.084   1.188  0.00  0.00    +0.007 A 
ATOM     19  C   UNL     1       0.023  -0.702   1.195  0.00  0.00    +0.004 A 
ENDBRANCH  12  17
ENDBRANCH  11  12
ENDBRANCH   1  11
BRANCH  10  20
ATOM     20  C   UNL     1       4.060  -5.637  -0.051  0.00  0.00    -0.042 C 
BRANCH  20  21
ATOM     21  N   UNL     1       4.451  -5.339   1.333  0.00  0.00    +0.383 N 
ATOM     22  H   UNL     1       3.677  -4.907   1.816  0.00  0.00    -0.085 HD
ATOM     23  H   UNL     1       4.703  -6.196   1.803  0.00  0.00    -0.085 HD
BRANCH  21  24
ATOM     24  C   UNL     1       5.600  -4.425   1.332  0.00  0.00    -0.063 C 
BRANCH  24  25
ATOM     25  C   UNL     1       6.007  -4.115   2.774  0.00  0.00    +0.085 C 
BRANCH  25  26
ATOM     26  N   UNL     1       7.153  -3.203   2.772  0.00  0.00    -0.312 N 
ATOM     27  C   UNL     1       7.687  -2.789   3.939  0.00  0.00    +0.269 C 
ATOM     28  O   UNL     1       7.218  -3.173   4.992  0.00  0.00    -0.268 OA
ATOM     29  H   UNL     1       7.528  -2.896   1.932  0.00  0.00    +0.149 HD
BRANCH  27  30
ATOM     30  C   UNL     1       8.846  -1.867   3.938  0.00  0.00    +0.209 A 
ATOM     31  C   UNL     1       9.529  -1.343   5.126  0.00  0.00    +0.192 A 
ATOM     32  N   UNL     1      10.500  -0.564   4.731  0.00  0.00    -0.033 NA
ATOM     33  O   UNL     1      10.495  -0.545   3.314  0.00  0.00    -0.240 OA
ATOM     34  N   UNL     1       9.440  -1.384   2.877  0.00  0.00    -0.042 NA
ATOM     35  N   UNL     1       9.200  -1.626   6.444  0.00  0.00    -0.339 N 
ATOM     36  H   UNL     1       8.458  -2.219   6.642  0.00  0.00    +0.144 HD
ATOM     37  H   UNL     1       9.711  -1.231   7.167  0.00  0.00    +0.144 HD
ENDBRANCH  27  30
ENDBRANCH  25  26
ENDBRANCH  24  25
ENDBRANCH  21  24
ENDBRANCH  20  21
ENDBRANCH  10  20
TORSDOF 9
