REMARK  Name = ZINC01765623
REMARK  7 active torsions:
REMARK  status: ('A' for Active; 'I' for Inactive)
REMARK    1  A    between atoms: C_1  and  O_2
REMARK    2  A    between atoms: O_2  and  C_3
REMARK    3  A    between atoms: C_6  and  C_9
REMARK    4  A    between atoms: C_12  and  C_25
REMARK    5  A    between atoms: C_15  and  C_17
REMARK    6  A    between atoms: C_18  and  C_19
REMARK    7  A    between atoms: C_34  and  O_35
REMARK                            x       y       z     vdW  Elec       q    Type
REMARK                         _______ _______ _______ _____ _____    ______ ____
ROOT
ATOM      1  C   UNL     1       2.505  -2.503  -4.381  0.00  0.00    +0.152 C 
ATOM      2  C   UNL     1       3.871  -3.016  -3.986  0.00  0.00    +0.027 C 
ATOM      3  C   UNL     1       3.864  -4.337  -4.152  0.00  0.00    +0.054 C 
ATOM      4  N   UNL     1       2.636  -4.783  -4.621  0.00  0.00    -0.260 N 
ATOM      5  N   UNL     1       1.754  -3.704  -4.784  0.00  0.00    -0.208 N 
ATOM      6  C   UNL     1       0.480  -3.754  -5.221  0.00  0.00    +0.256 C 
ATOM      7  O   UNL     1      -0.173  -2.731  -5.313  0.00  0.00    -0.269 OA
ATOM      8  H   UNL     1       2.419  -5.710  -4.809  0.00  0.00    +0.170 HD
ENDROOT
BRANCH   3   9
ATOM      9  C   UNL     1       5.020  -5.218  -3.874  0.00  0.00    +0.039 A 
ATOM     10  C   UNL     1       4.910  -6.601  -4.089  0.00  0.00    +0.014 A 
ATOM     11  C   UNL     1       5.956  -7.431  -3.842  0.00  0.00    +0.009 A 
ATOM     12  C   UNL     1       7.172  -6.912  -3.363  0.00  0.00    -0.014 A 
ATOM     13  C   UNL     1       8.267  -7.753  -3.101  0.00  0.00    +0.008 A 
ATOM     14  C   UNL     1       9.431  -7.221  -2.639  0.00  0.00    +0.001 A 
ATOM     15  C   UNL     1       9.557  -5.851  -2.419  0.00  0.00    +0.001 A 
ATOM     16  C   UNL     1       8.518  -5.005  -2.662  0.00  0.00    +0.012 A 
ATOM     17  C   UNL     1       7.301  -5.518  -3.140  0.00  0.00    +0.024 A 
ATOM     18  C   UNL     1       6.208  -4.670  -3.407  0.00  0.00    +0.133 A 
BRANCH  18  19
ATOM     19  O   UNL     1       6.313  -3.332  -3.205  0.00  0.00    -0.506 OA
ATOM     20  H   UNL     1       6.065  -3.048  -2.315  0.00  0.00    +0.292 HD
ENDBRANCH  18  19
ENDBRANCH   3   9
BRANCH   1  24
ATOM     21  C   UNL     1       0.606  -0.607  -1.056  0.00  0.00    +0.120 A 
ATOM     22  C   UNL     1       1.173   0.161  -2.062  0.00  0.00    +0.046 A 
ATOM     23  C   UNL     1       1.786  -0.455  -3.136  0.00  0.00    +0.009 A 
ATOM     24  C   UNL     1       1.835  -1.835  -3.209  0.00  0.00    -0.021 A 
ATOM     25  C   UNL     1       1.270  -2.602  -2.207  0.00  0.00    +0.009 A 
ATOM     26  C   UNL     1       0.661  -1.992  -1.128  0.00  0.00    +0.046 A 
BRANCH  21  28
ATOM     27  C   UNL     1      -0.017   1.425   0.010  0.00  0.00    +0.277 C 
ATOM     28  O   UNL     1       0.002  -0.004   0.002  0.00  0.00    -0.495 OA
ENDBRANCH  21  28
ENDBRANCH   1  24
BRANCH   6  29
ATOM     29  C   UNL     1      -0.120  -5.040  -5.583  0.00  0.00    +0.069 C 
ATOM     30  C   UNL     1      -1.394  -5.091  -6.019  0.00  0.00    +0.013 C 
BRANCH  30  31
ATOM     31  C   UNL     1      -1.997  -6.383  -6.384  0.00  0.00    -0.025 A 
ATOM     32  C   UNL     1      -1.252  -7.562  -6.273  0.00  0.00    +0.008 A 
ATOM     33  C   UNL     1      -1.824  -8.769  -6.616  0.00  0.00    +0.001 A 
ATOM     34  C   UNL     1      -3.131  -8.816  -7.069  0.00  0.00    +0.000 A 
ATOM     35  C   UNL     1      -3.874  -7.654  -7.181  0.00  0.00    +0.001 A 
ATOM     36  C   UNL     1      -3.318  -6.440  -6.837  0.00  0.00    +0.008 A 
ENDBRANCH  30  31
ENDBRANCH   6  29
TORSDOF 6
