REMARK  Name = ZINC63279363
REMARK  4 active torsions:
REMARK  status: ('A' for Active; 'I' for Inactive)
REMARK    1  A    between atoms: C_4  and  N_7
REMARK    2  A    between atoms: C_8  and  C_21
REMARK    3  A    between atoms: N_9  and  N_10
REMARK    4  A    between atoms: C_11  and  C_12
REMARK                            x       y       z     vdW  Elec       q    Type
REMARK                         _______ _______ _______ _____ _____    ______ ____
ROOT
ATOM      1  N   UNL     1       3.546  -0.793  -0.177  0.00  0.00    -0.233 NA
ATOM      2  C   UNL     1       3.825  -1.583   0.820  0.00  0.00    +0.146 C 
ATOM      3  N   UNL     1       2.830  -1.994   1.669  0.00  0.00    -0.222 N 
ATOM      4  H   UNL     1       1.935  -1.630   1.579  0.00  0.00    +0.176 HD
ENDROOT
BRANCH   2   5
ATOM      5  C   UNL     1       5.242  -2.045   1.041  0.00  0.00    +0.199 C 
ATOM      6  N   UNL     1       6.205  -1.008   0.643  0.00  0.00    -0.325 N 
ATOM      7  C   UNL     1       7.041  -0.492   1.632  0.00  0.00    +0.042 A 
ATOM      8  C   UNL     1       8.019   0.500   1.440  0.00  0.00    +0.024 A 
ATOM      9  C   UNL     1       8.797   0.945   2.484  0.00  0.00    +0.002 A 
ATOM     10  C   UNL     1       8.644   0.430   3.758  0.00  0.00    +0.001 A 
ATOM     11  C   UNL     1       7.688  -0.548   3.976  0.00  0.00    +0.016 A 
ATOM     12  C   UNL     1       6.910  -0.991   2.931  0.00  0.00    +0.031 A 
ATOM     13  S   UNL     1       5.613  -2.207   2.833  0.00  0.00    -0.093 S 
ATOM     14  H   UNL     1       6.256  -0.695  -0.273  0.00  0.00    +0.148 HD
ENDBRANCH   2   5
BRANCH   1  18
ATOM     15  C   UNL     1      -0.392   0.165  -1.019  0.00  0.00    +0.000 A 
ATOM     16  C   UNL     1       0.517   1.171  -0.742  0.00  0.00    +0.002 A 
ATOM     17  C   UNL     1       1.831   0.858  -0.461  0.00  0.00    +0.028 A 
ATOM     18  C   UNL     1       2.242  -0.476  -0.455  0.00  0.00    +0.066 A 
ATOM     19  C   UNL     1       1.319  -1.485  -0.734  0.00  0.00    +0.028 A 
ATOM     20  C   UNL     1       0.009  -1.159  -1.014  0.00  0.00    +0.002 A 
ENDBRANCH   1  18
BRANCH   3  21
ATOM     21  N   UNL     1       3.105  -2.940   2.665  0.00  0.00    -0.189 NA
ATOM     22  C   UNL     1       2.178  -3.265   3.534  0.00  0.00    +0.136 C 
BRANCH  22  23
ATOM     23  C   UNL     1       2.481  -4.137   4.585  0.00  0.00    +0.000 C 
ATOM     24  C   UNL     1       1.597  -4.655   5.533  0.00  0.00    +0.004 A 
ATOM     25  C   UNL     1       0.210  -4.488   5.735  0.00  0.00    +0.010 A 
ATOM     26  C   UNL     1      -0.402  -5.129   6.763  0.00  0.00    +0.001 A 
ATOM     27  C   UNL     1       0.307  -5.958   7.636  0.00  0.00    +0.002 A 
ATOM     28  C   UNL     1       1.640  -6.164   7.501  0.00  0.00    +0.026 A 
ATOM     29  C   UNL     1       2.350  -5.527   6.450  0.00  0.00    +0.043 A 
ATOM     30  N   UNL     1       3.623  -5.564   6.111  0.00  0.00    -0.380 N 
ATOM     31  C   UNL     1       3.833  -4.721   4.929  0.00  0.00    +0.150 C 
ATOM     32  H   UNL     1       4.311  -6.071   6.568  0.00  0.00    +0.160 HD
ENDBRANCH  22  23
ENDBRANCH   3  21
TORSDOF 4
