REMARK  Name = ZINC36484643
REMARK  10 active torsions:
REMARK  status: ('A' for Active; 'I' for Inactive)
REMARK    1  A    between atoms: C_3  and  N_8
REMARK    2  A    between atoms: N_8  and  C_9
REMARK    3  A    between atoms: C_9  and  C_11
REMARK    4  A    between atoms: C_9  and  C_20
REMARK    5  A    between atoms: C_12  and  O_19
REMARK    6  A    between atoms: C_14  and  O_18
REMARK    7  A    between atoms: C_16  and  O_17
REMARK    8  A    between atoms: N_22  and  C_23
REMARK    9  A    between atoms: C_29  and  C_31
REMARK   10  A    between atoms: C_34  and  O_37
REMARK                            x       y       z     vdW  Elec       q    Type
REMARK                         _______ _______ _______ _____ _____    ______ ____
ROOT
ATOM      1  C   UNL     1       4.019   0.905  -0.070  0.00  0.00    +0.204 C 
ENDROOT
BRANCH   1   2
ATOM      2  C   UNL     1       3.337   0.237  -1.236  0.00  0.00    +0.065 A 
ATOM      3  C   UNL     1       1.953   0.160  -1.278  0.00  0.00    +0.129 A 
ATOM      4  C   UNL     1       1.325  -0.454  -2.351  0.00  0.00    +0.091 A 
ATOM      5  C   UNL     1       2.081  -0.992  -3.382  0.00  0.00    +0.124 A 
ATOM      6  C   UNL     1       3.465  -0.914  -3.340  0.00  0.00    +0.091 A 
ATOM      7  C   UNL     1       4.093  -0.295  -2.269  0.00  0.00    +0.129 A 
BRANCH   7   8
ATOM      8  O   UNL     1       5.449  -0.215  -2.230  0.00  0.00    -0.506 OA
ATOM      9  H   UNL     1       5.875  -0.966  -1.795  0.00  0.00    +0.292 HD
ENDBRANCH   7   8
BRANCH   5  10
ATOM     10  O   UNL     1       1.466  -1.595  -4.433  0.00  0.00    -0.507 OA
ATOM     11  H   UNL     1       1.258  -0.996  -5.163  0.00  0.00    +0.292 HD
ENDBRANCH   5  10
BRANCH   3  12
ATOM     12  O   UNL     1       1.212   0.687  -0.268  0.00  0.00    -0.506 OA
ATOM     13  H   UNL     1       0.896   1.585  -0.439  0.00  0.00    +0.292 HD
ENDBRANCH   3  12
ENDBRANCH   1   2
BRANCH   1  14
ATOM     14  C   UNL     1       4.271  -0.111   1.014  0.00  0.00    +0.239 C 
ATOM     15  O   UNL     1       3.450  -0.278   1.892  0.00  0.00    -0.273 OA
ATOM     16  N   UNL     1       5.408  -0.835   1.008  0.00  0.00    -0.311 N 
ATOM     17  H   UNL     1       6.064  -0.702   0.306  0.00  0.00    +0.149 HD
BRANCH  16  18
ATOM     18  C   UNL     1       5.652  -1.823   2.062  0.00  0.00    +0.073 C 
ATOM     19  C   UNL     1       6.274  -1.130   3.276  0.00  0.00    +0.022 C 
ATOM     20  C   UNL     1       6.529  -2.162   4.377  0.00  0.00    +0.002 C 
ATOM     21  C   UNL     1       7.488  -3.235   3.857  0.00  0.00    +0.000 C 
ATOM     22  C   UNL     1       6.867  -3.928   2.642  0.00  0.00    +0.002 C 
ATOM     23  C   UNL     1       6.611  -2.896   1.542  0.00  0.00    +0.022 C 
ENDBRANCH  16  18
ENDBRANCH   1  14
BRANCH   1  24
ATOM     24  N   UNL     1       3.161   1.973   0.452  0.00  0.00    -0.251 N 
ATOM     25  C   UNL     1       2.600   2.859  -0.394  0.00  0.00    +0.252 C 
ATOM     26  O   UNL     1       2.004   3.824   0.044  0.00  0.00    -0.270 OA
BRANCH  24  29
ATOM     27  C   UNL     1       3.721   2.526   4.043  0.00  0.00    +0.003 A 
ATOM     28  C   UNL     1       3.957   2.428   2.685  0.00  0.00    +0.023 A 
ATOM     29  C   UNL     1       2.925   2.072   1.826  0.00  0.00    +0.039 A 
ATOM     30  C   UNL     1       1.659   1.814   2.336  0.00  0.00    +0.043 A 
ATOM     31  C   UNL     1       1.429   1.913   3.695  0.00  0.00    +0.043 A 
ATOM     32  C   UNL     1       2.460   2.269   4.548  0.00  0.00    +0.020 A 
ATOM     33 CL   UNL     1      -0.153   1.591   4.333  0.00  0.00    -0.083 Cl
ENDBRANCH  24  29
BRANCH  25  34
ATOM     34  C   UNL     1       2.708   2.659  -1.852  0.00  0.00    +0.037 A 
ATOM     35  C   UNL     1       3.785   1.944  -2.383  0.00  0.00    +0.016 A 
ATOM     36  C   UNL     1       3.882   1.760  -3.744  0.00  0.00    +0.046 A 
ATOM     37  C   UNL     1       2.912   2.284  -4.590  0.00  0.00    +0.117 A 
ATOM     38  C   UNL     1       1.839   2.995  -4.066  0.00  0.00    +0.046 A 
ATOM     39  C   UNL     1       1.731   3.179  -2.705  0.00  0.00    +0.016 A 
BRANCH  37  40
ATOM     40  O   UNL     1       3.012   2.100  -5.931  0.00  0.00    -0.507 OA
ATOM     41  H   UNL     1       2.577   1.298  -6.251  0.00  0.00    +0.292 HD
ENDBRANCH  37  40
ENDBRANCH  25  34
ENDBRANCH   1  24
TORSDOF 10
