REMARK  Name = ZINC49741024
REMARK  6 active torsions:
REMARK  status: ('A' for Active; 'I' for Inactive)
REMARK    1  A    between atoms: C_1  and  C_2
REMARK    2  A    between atoms: C_2  and  C_3
REMARK    3  A    between atoms: C_3  and  C_4
REMARK    4  A    between atoms: C_4  and  S_5
REMARK    5  A    between atoms: S_5  and  N_8
REMARK    6  A    between atoms: N_8  and  C_9
REMARK                            x       y       z     vdW  Elec       q    Type
REMARK                         _______ _______ _______ _____ _____    ______ ____
ROOT
ATOM      1  C   UNL     1      -4.101  -5.150   0.014  0.00  0.00    +0.074 A 
ATOM      2  C   UNL     1      -5.365  -4.574   0.023  0.00  0.00    +0.028 A 
ATOM      3  C   UNL     1      -6.491  -5.370   0.029  0.00  0.00    +0.025 A 
ATOM      4  C   UNL     1      -6.370  -6.758   0.026  0.00  0.00    +0.038 A 
ATOM      5  C   UNL     1      -5.101  -7.325   0.016  0.00  0.00    -0.009 A 
ATOM      6  C   UNL     1      -3.975  -6.534   0.005  0.00  0.00    +0.033 A 
ATOM      7  C   UNL     1      -5.309  -8.819   0.015  0.00  0.00    +0.074 C 
ATOM      8  C   UNL     1      -4.692  -9.443   1.264  0.00  0.00    +0.021 C 
ATOM      9  C   UNL     1      -4.940 -10.953   1.258  0.00  0.00    +0.001 C 
ATOM     10  C   UNL     1      -4.317 -11.566   0.002  0.00  0.00    +0.000 C 
ATOM     11  C   UNL     1      -4.960 -10.949  -1.241  0.00  0.00    +0.001 C 
ATOM     12  C   UNL     1      -4.712  -9.438  -1.245  0.00  0.00    +0.021 C 
ATOM     13  C   UNL     1      -6.808  -8.992   0.026  0.00  0.00    +0.228 C 
ATOM     14  O   UNL     1      -7.414 -10.043   0.029  0.00  0.00    -0.274 OA
ATOM     15  N   UNL     1      -7.346  -7.759   0.032  0.00  0.00    -0.284 N 
ATOM     16  H   UNL     1      -8.300  -7.585   0.040  0.00  0.00    +0.155 HD
ENDROOT
BRANCH   1  17
ATOM     17  N   UNL     1      -2.960  -4.340   0.007  0.00  0.00    -0.103 NA
BRANCH  17  18
ATOM     18  S   UNL     1      -3.114  -2.691   0.017  0.00  0.00    +0.062 S 
ATOM     19  O   UNL     1      -3.737  -2.393   1.260  0.00  0.00    -0.154 OA
ATOM     20  O   UNL     1      -3.760  -2.380  -1.210  0.00  0.00    -0.154 OA
BRANCH  18  21
ATOM     21  C   UNL     1      -1.413  -2.063   0.004  0.00  0.00    +0.190 C 
BRANCH  21  22
ATOM     22  C   UNL     1      -1.433  -0.534   0.013  0.00  0.00    +0.024 C 
BRANCH  22  24
ATOM     23  C   UNL     1      -0.019   1.526   0.010  0.00  0.00    +0.004 C 
ATOM     24  C   UNL     1       0.002  -0.004   0.002  0.00  0.00    -0.002 C 
ENDBRANCH  22  24
ENDBRANCH  21  22
ENDBRANCH  18  21
ENDBRANCH  17  18
ENDBRANCH   1  17
TORSDOF 5
