REMARK  Name = ZINC36726040
REMARK  8 active torsions:
REMARK  status: ('A' for Active; 'I' for Inactive)
REMARK    1  A    between atoms: C_1  and  C_2
REMARK    2  A    between atoms: C_2  and  N_3
REMARK    3  A    between atoms: N_3  and  C_4
REMARK    4  A    between atoms: N_3  and  C_16
REMARK    5  A    between atoms: C_4  and  C_5
REMARK    6  A    between atoms: C_16  and  C_17
REMARK    7  A    between atoms: N_19  and  C_20
REMARK    8  A    between atoms: C_20  and  C_27
REMARK                            x       y       z     vdW  Elec       q    Type
REMARK                         _______ _______ _______ _____ _____    ______ ____
ROOT
ATOM      1  N   UNL     1       0.662  -0.729  -1.183  0.00  0.00    +0.388 N 
ATOM      2  H   UNL     1       0.097  -0.376  -1.939  0.00  0.00    -0.081 HD
ENDROOT
BRANCH   1   4
ATOM      3  C   UNL     1      -0.118   1.186   0.129  0.00  0.00    -0.017 C 
ATOM      4  C   UNL     1       0.067  -0.333   0.101  0.00  0.00    -0.081 C 
ENDBRANCH   1   4
BRANCH   1   5
ATOM      5  C   UNL     1       0.724  -2.195  -1.261  0.00  0.00    -0.030 C 
BRANCH   5   6
ATOM      6  C   UNL     1      -0.696  -2.765  -1.280  0.00  0.00    +0.195 C 
ATOM      7  C   UNL     1      -0.638  -4.298  -1.250  0.00  0.00    +0.271 C 
ATOM      8  O   UNL     1      -1.979  -4.798  -1.283  0.00  0.00    -0.485 OA
ATOM      9  C   UNL     1      -2.818  -4.239  -2.199  0.00  0.00    +0.162 A 
ATOM     10  C   UNL     1      -3.991  -4.897  -2.538  0.00  0.00    +0.049 A 
ATOM     11  C   UNL     1      -4.854  -4.341  -3.463  0.00  0.00    +0.004 A 
ATOM     12  C   UNL     1      -4.551  -3.128  -4.052  0.00  0.00    +0.004 A 
ATOM     13  C   UNL     1      -3.383  -2.468  -3.720  0.00  0.00    +0.049 A 
ATOM     14  C   UNL     1      -2.511  -3.022  -2.794  0.00  0.00    +0.162 A 
ATOM     15  O   UNL     1      -1.361  -2.363  -2.482  0.00  0.00    -0.484 OA
ENDBRANCH   5   6
ENDBRANCH   1   5
BRANCH   1  16
ATOM     16  C   UNL     1       2.019  -0.176  -1.285  0.00  0.00    +0.019 C 
BRANCH  16  17
ATOM     17  C   UNL     1       2.565  -0.436  -2.666  0.00  0.00    +0.197 C 
ATOM     18  O   UNL     1       1.851  -0.919  -3.518  0.00  0.00    -0.278 OA
ATOM     19  N   UNL     1       3.846  -0.130  -2.952  0.00  0.00    -0.310 N 
ATOM     20  H   UNL     1       4.417   0.256  -2.270  0.00  0.00    +0.149 HD
BRANCH  19  21
ATOM     21  C   UNL     1       4.376  -0.383  -4.294  0.00  0.00    +0.052 C 
ATOM     22  C   UNL     1       4.173  -1.859  -4.631  0.00  0.00    +0.049 C 
ATOM     23  C   UNL     1       5.266  -2.340  -5.627  0.00  0.00    +0.168 C 
ATOM     24  S   UNL     1       6.726  -1.445  -4.937  0.00  0.00    -0.029 S 
ATOM     25  O   UNL     1       7.235  -2.168  -3.824  0.00  0.00    -0.174 OA
ATOM     26  O   UNL     1       7.598  -1.085  -5.999  0.00  0.00    -0.174 OA
ATOM     27  C   UNL     1       5.852   0.059  -4.333  0.00  0.00    +0.191 C 
ATOM     28  C   UNL     1       3.586   0.459  -5.298  0.00  0.00    +0.033 C 
ENDBRANCH  19  21
ENDBRANCH  16  17
ENDBRANCH   1  16
TORSDOF 6
