REMARK  Name = ZINC43619709
REMARK  9 active torsions:
REMARK  status: ('A' for Active; 'I' for Inactive)
REMARK    1  A    between atoms: C_1  and  O_2
REMARK    2  A    between atoms: O_2  and  C_3
REMARK    3  A    between atoms: C_6  and  C_11
REMARK    4  A    between atoms: C_7  and  O_9
REMARK    5  A    between atoms: O_9  and  C_10
REMARK    6  A    between atoms: N_17  and  C_25
REMARK    7  A    between atoms: C_25  and  C_26
REMARK    8  A    between atoms: C_31  and  O_32
REMARK    9  A    between atoms: O_32  and  C_33
REMARK                            x       y       z     vdW  Elec       q    Type
REMARK                         _______ _______ _______ _____ _____    ______ ____
ROOT
ATOM      1  C   UNL     1       2.507  -2.495  -4.390  0.00  0.00    -0.032 C 
ATOM      2  C   UNL     1       3.998  -2.774  -4.073  0.00  0.00    -0.007 C 
ATOM      3  C   UNL     1       4.612  -2.839  -5.493  0.00  0.00    +0.003 C 
ATOM      4  C   UNL     1       6.040  -2.263  -5.464  0.00  0.00    +0.110 C 
ATOM      5  N   UNL     1       5.905  -0.821  -5.692  0.00  0.00    -0.298 N 
ATOM      6  C   UNL     1       4.687  -0.511  -6.171  0.00  0.00    +0.206 C 
ATOM      7  O   UNL     1       4.333   0.603  -6.495  0.00  0.00    -0.277 OA
ATOM      8  C   UNL     1       3.812  -1.757  -6.257  0.00  0.00    +0.018 C 
ATOM      9  N   UNL     1       2.526  -1.583  -5.554  0.00  0.00    +0.394 N 
ATOM     10  C   UNL     1       1.442  -1.965  -6.488  0.00  0.00    -0.077 C 
ATOM     11  C   UNL     1       2.041  -1.746  -7.901  0.00  0.00    -0.019 C 
ATOM     12  C   UNL     1       3.517  -2.195  -7.693  0.00  0.00    -0.004 C 
ATOM     13  H   UNL     1       2.417  -0.626  -5.253  0.00  0.00    -0.079 HD
ENDROOT
BRANCH   1  17
ATOM     14  C   UNL     1       0.606  -0.607  -1.056  0.00  0.00    +0.124 A 
ATOM     15  C   UNL     1       1.264   0.158  -2.009  0.00  0.00    +0.046 A 
ATOM     16  C   UNL     1       1.877  -0.455  -3.084  0.00  0.00    +0.009 A 
ATOM     17  C   UNL     1       1.837  -1.830  -3.215  0.00  0.00    -0.019 A 
ATOM     18  C   UNL     1       1.181  -2.599  -2.264  0.00  0.00    +0.125 A 
ATOM     19  C   UNL     1       0.570  -1.987  -1.181  0.00  0.00    +0.091 A 
BRANCH  14  21
ATOM     20  C   UNL     1       0.080   1.421   0.067  0.00  0.00    +0.277 C 
ATOM     21  O   UNL     1       0.003  -0.004   0.002  0.00  0.00    -0.495 OA
ENDBRANCH  14  21
BRANCH  18  22
ATOM     22  O   UNL     1       1.142  -3.951  -2.393  0.00  0.00    -0.495 OA
ATOM     23  C   UNL     1       0.449  -4.680  -1.378  0.00  0.00    +0.277 C 
ENDBRANCH  18  22
ENDBRANCH   1  17
BRANCH   5  24
ATOM     24  C   UNL     1       6.962   0.159  -5.430  0.00  0.00    +0.146 C 
BRANCH  24  25
ATOM     25  C   UNL     1       7.806   0.331  -6.667  0.00  0.00    +0.011 A 
ATOM     26  C   UNL     1       9.019  -0.321  -6.772  0.00  0.00    +0.009 A 
ATOM     27  C   UNL     1       9.794  -0.164  -7.906  0.00  0.00    +0.001 A 
ATOM     28  C   UNL     1       9.356   0.645  -8.939  0.00  0.00    +0.004 A 
ATOM     29  C   UNL     1       8.143   1.299  -8.839  0.00  0.00    +0.046 A 
ATOM     30  C   UNL     1       7.362   1.139  -7.704  0.00  0.00    +0.125 A 
BRANCH  30  31
ATOM     31  O   UNL     1       6.165   1.776  -7.605  0.00  0.00    -0.495 OA
ATOM     32  C   UNL     1       5.772   2.592  -8.711  0.00  0.00    +0.277 C 
ENDBRANCH  30  31
ENDBRANCH  24  25
ENDBRANCH   5  24
TORSDOF 6
