REMARK  Name = ZINC13636034
REMARK  4 active torsions:
REMARK  status: ('A' for Active; 'I' for Inactive)
REMARK    1  A    between atoms: C_1  and  C_2
REMARK    2  A    between atoms: C_12  and  C_14
REMARK    3  A    between atoms: C_14  and  S_15
REMARK    4  A    between atoms: S_15  and  C_16
REMARK                            x       y       z     vdW  Elec       q    Type
REMARK                         _______ _______ _______ _____ _____    ______ ____
ROOT
ATOM      1  C   UNL     1     -12.529  -0.067  -0.252  0.00  0.00    +0.008 C 
ATOM      2  C   UNL     1     -11.215  -0.831  -0.427  0.00  0.00    -0.001 C 
ATOM      3  C   UNL     1     -10.060   0.012   0.108  0.00  0.00    +0.060 C 
ATOM      4  C   UNL     1      -8.769  -0.756   0.081  0.00  0.00    +0.057 A 
ATOM      5  C   UNL     1      -8.749  -2.156   0.069  0.00  0.00    +0.057 A 
ATOM      6  C   UNL     1      -7.515  -2.817   0.055  0.00  0.00    +0.127 A 
ATOM      7  N   UNL     1      -6.410  -2.093   0.051  0.00  0.00    -0.222 NA
ATOM      8  C   UNL     1      -6.467  -0.769   0.059  0.00  0.00    +0.222 A 
ATOM      9  N   UNL     1      -7.617  -0.109   0.079  0.00  0.00    -0.218 NA
ATOM     10  N   UNL     1      -5.284  -0.049   0.052  0.00  0.00    -0.254 N 
ATOM     11  C   UNL     1      -4.102  -0.696   0.037  0.00  0.00    +0.230 C 
ATOM     12  O   UNL     1      -4.074  -1.908   0.030  0.00  0.00    -0.274 OA
ATOM     13  C   UNL     1     -10.007  -2.916   0.066  0.00  0.00    +0.167 C 
ATOM     14  O   UNL     1     -10.021  -4.109  -0.155  0.00  0.00    -0.292 OA
ATOM     15  C   UNL     1     -11.287  -2.154   0.348  0.00  0.00    +0.083 C 
ATOM     16  H   UNL     1      -5.306   0.921   0.057  0.00  0.00    +0.158 HD
ENDROOT
BRANCH  11  17
ATOM     17  C   UNL     1      -2.814   0.087   0.029  0.00  0.00    +0.173 C 
BRANCH  17  18
ATOM     18  S   UNL     1      -1.409  -1.059   0.009  0.00  0.00    -0.077 S 
BRANCH  18  19
ATOM     19  C   UNL     1       0.002  -0.004   0.002  0.00  0.00    +0.191 A 
ATOM     20  N   UNL     1       1.308  -0.408  -0.013  0.00  0.00    -0.305 N 
ATOM     21  H   UNL     1       1.620  -1.327  -0.020  0.00  0.00    +0.171 HD
ATOM     22  C   UNL     1       2.095   0.708  -0.014  0.00  0.00    +0.212 A 
ATOM     23  N   UNL     1       1.311   1.757  -0.001  0.00  0.00    -0.113 NA
ATOM     24  N   UNL     1      -0.016   1.307   0.009  0.00  0.00    -0.121 NA
ATOM     25  N   UNL     1       3.484   0.727  -0.028  0.00  0.00    -0.328 N 
ATOM     26  H   UNL     1       3.980  -0.106  -0.038  0.00  0.00    +0.145 HD
ATOM     27  H   UNL     1       3.957   1.574  -0.028  0.00  0.00    +0.145 HD
ENDBRANCH  18  19
ENDBRANCH  17  18
ENDBRANCH  11  17
TORSDOF 3
