REMARK  Name = ZINC06494166
REMARK  6 active torsions:
REMARK  status: ('A' for Active; 'I' for Inactive)
REMARK    1  A    between atoms: C_1  and  C_2
REMARK    2  A    between atoms: N_12  and  N_13
REMARK    3  A    between atoms: N_13  and  C_14
REMARK    4  A    between atoms: C_14  and  N_16
REMARK    5  A    between atoms: N_16  and  C_17
REMARK    6  A    between atoms: C_22  and  N_23
REMARK                            x       y       z     vdW  Elec       q    Type
REMARK                         _______ _______ _______ _____ _____    ______ ____
ROOT
ATOM      1  N   UNL     1      -0.246  -4.079   0.055  0.00  0.00    -0.230 N 
ATOM      2  H   UNL     1      -0.715  -4.565  -0.813  0.00  0.00    +0.175 HD
ENDROOT
BRANCH   1  14
ATOM      3  C   UNL     1      -2.324  -2.259   0.270  0.00  0.00    +0.088 C 
ATOM      4  C   UNL     1      -0.903  -1.785   0.104  0.00  0.00    +0.128 A 
ATOM      5  N   UNL     1      -0.682  -0.506   0.064  0.00  0.00    -0.232 NA
ATOM      6  C   UNL     1       0.571  -0.006  -0.083  0.00  0.00    +0.078 A 
ATOM      7  C   UNL     1       0.810   1.370  -0.124  0.00  0.00    +0.028 A 
ATOM      8  C   UNL     1       2.097   1.833  -0.274  0.00  0.00    +0.002 A 
ATOM      9  C   UNL     1       3.163   0.951  -0.384  0.00  0.00    +0.001 A 
ATOM     10  C   UNL     1       2.953  -0.410  -0.345  0.00  0.00    +0.015 A 
ATOM     11  C   UNL     1       1.657  -0.901  -0.195  0.00  0.00    +0.066 A 
ATOM     12  C   UNL     1       1.372  -2.342  -0.146  0.00  0.00    +0.279 A 
ATOM     13  O   UNL     1       2.263  -3.167  -0.237  0.00  0.00    -0.265 OA
ATOM     14  N   UNL     1       0.080  -2.717   0.003  0.00  0.00    -0.210 N 
ENDBRANCH   1  14
BRANCH   1  15
ATOM     15  C   UNL     1       0.015  -4.792   1.168  0.00  0.00    +0.153 C 
ATOM     16  S   UNL     1      -0.384  -6.456   1.232  0.00  0.00    -0.017 S 
BRANCH  15  17
ATOM     17  N   UNL     1       0.589  -4.196   2.232  0.00  0.00    -0.294 N 
ATOM     18  H   UNL     1       0.916  -3.148   2.164  0.00  0.00    +0.154 HD
BRANCH  17  19
ATOM     19  C   UNL     1       0.770  -4.910   3.421  0.00  0.00    +0.063 A 
ATOM     20  C   UNL     1       1.314  -6.188   3.390  0.00  0.00    +0.027 A 
ATOM     21  C   UNL     1       1.492  -6.890   4.566  0.00  0.00    +0.022 A 
ATOM     22  C   UNL     1       1.128  -6.322   5.774  0.00  0.00    +0.043 A 
ATOM     23  C   UNL     1       0.587  -5.050   5.808  0.00  0.00    +0.054 A 
ATOM     24  C   UNL     1       0.412  -4.340   4.636  0.00  0.00    +0.149 A 
ATOM     25 CL   UNL     1       1.353  -7.208   7.250  0.00  0.00    -0.083 Cl
BRANCH  24  26
ATOM     26  N   UNL     1      -0.163  -2.977   4.674  0.00  0.00    +0.058 N 
ATOM     27  O   UNL     1      -0.387  -2.439   5.744  0.00  0.00    -0.126 OA
ATOM     28  O   UNL     1      -0.412  -2.392   3.635  0.00  0.00    -0.126 OA
ENDBRANCH  24  26
ENDBRANCH  17  19
ENDBRANCH  15  17
ENDBRANCH   1  15
TORSDOF 5
