REMARK  Name = ZINC28423322
REMARK  8 active torsions:
REMARK  status: ('A' for Active; 'I' for Inactive)
REMARK    1  A    between atoms: C_1  and  N_2
REMARK    2  A    between atoms: C_3  and  C_5
REMARK    3  A    between atoms: C_5  and  N_6
REMARK    4  A    between atoms: C_9  and  N_12
REMARK    5  A    between atoms: N_15  and  C_16
REMARK    6  A    between atoms: C_16  and  C_18
REMARK    7  A    between atoms: C_16  and  C_25
REMARK    8  A    between atoms: C_18  and  C_19
REMARK                            x       y       z     vdW  Elec       q    Type
REMARK                         _______ _______ _______ _____ _____    ______ ____
ROOT
ATOM      1  N   UNL     1       3.924  -4.575  -4.903  0.00  0.00    -0.297 N 
ATOM      2  C   UNL     1       4.427  -5.817  -5.048  0.00  0.00    +0.300 C 
ATOM      3  O   UNL     1       4.380  -6.603  -4.122  0.00  0.00    -0.253 OA
ATOM      4  N   UNL     1       4.981  -6.187  -6.219  0.00  0.00    -0.292 N 
ATOM      5  H   UNL     1       3.961  -3.947  -5.641  0.00  0.00    +0.151 HD
ATOM      6  H   UNL     1       5.019  -5.560  -6.958  0.00  0.00    +0.151 HD
ENDROOT
BRANCH   1  10
ATOM      7  N   UNL     1       1.293  -2.645  -2.235  0.00  0.00    +0.385 N 
ATOM      8  C   UNL     1       2.700  -2.229  -2.190  0.00  0.00    -0.076 C 
ATOM      9  C   UNL     1       3.401  -2.650  -3.484  0.00  0.00    +0.004 C 
ATOM     10  C   UNL     1       3.322  -4.172  -3.629  0.00  0.00    +0.071 C 
ATOM     11  C   UNL     1       1.852  -4.602  -3.600  0.00  0.00    +0.004 C 
ATOM     12  C   UNL     1       1.208  -4.109  -2.302  0.00  0.00    -0.076 C 
ATOM     13  H   UNL     1       0.852  -2.246  -3.050  0.00  0.00    -0.081 HD
BRANCH   7  14
ATOM     14  C   UNL     1       0.606  -2.171  -1.026  0.00  0.00    +0.019 C 
BRANCH  14  17
ATOM     15  C   UNL     1      -0.018   1.461   0.010  0.00  0.00    +0.128 C 
ATOM     16  N   UNL     1       0.002  -0.004   0.002  0.00  0.00    -0.320 N 
ATOM     17  C   UNL     1       0.585  -0.664  -1.018  0.00  0.00    +0.196 C 
ATOM     18  O   UNL     1       1.093  -0.046  -1.929  0.00  0.00    -0.278 OA
ATOM     19  H   UNL     1      -0.404  -0.499   0.731  0.00  0.00    +0.148 HD
ENDBRANCH  14  17
ENDBRANCH   7  14
ENDBRANCH   1  10
BRANCH   4  20
ATOM     20  C   UNL     1       5.528  -7.537  -6.376  0.00  0.00    +0.109 C 
BRANCH  20  21
ATOM     21  C   UNL     1       4.422  -8.484  -6.766  0.00  0.00    -0.027 A 
ATOM     22  C   UNL     1       3.457  -8.085  -7.671  0.00  0.00    +0.005 A 
ATOM     23  C   UNL     1       2.443  -8.954  -8.028  0.00  0.00    +0.000 A 
ATOM     24  C   UNL     1       2.394 -10.222  -7.481  0.00  0.00    +0.000 A 
ATOM     25  C   UNL     1       3.360 -10.622  -6.576  0.00  0.00    +0.000 A 
ATOM     26  C   UNL     1       4.377  -9.754  -6.222  0.00  0.00    +0.005 A 
ENDBRANCH  20  21
BRANCH  20  27
ATOM     27  C   UNL     1       6.601  -7.529  -7.467  0.00  0.00    +0.062 C 
BRANCH  27  28
ATOM     28  C   UNL     1       7.762  -6.678  -7.023  0.00  0.00    -0.045 A 
ATOM     29  C   UNL     1       7.779  -5.326  -7.312  0.00  0.00    +0.004 A 
ATOM     30  C   UNL     1       8.845  -4.546  -6.905  0.00  0.00    +0.000 A 
ATOM     31  C   UNL     1       9.893  -5.117  -6.208  0.00  0.00    +0.000 A 
ATOM     32  C   UNL     1       9.876  -6.468  -5.918  0.00  0.00    +0.000 A 
ATOM     33  C   UNL     1       8.808  -7.248  -6.322  0.00  0.00    +0.004 A 
ENDBRANCH  27  28
ENDBRANCH  20  27
ENDBRANCH   4  20
TORSDOF 7
