REMARK  Name = ZINC20686581
REMARK  9 active torsions:
REMARK  status: ('A' for Active; 'I' for Inactive)
REMARK    1  A    between atoms: C_1  and  C_2
REMARK    2  A    between atoms: C_6  and  C_37
REMARK    3  A    between atoms: C_7  and  N_8
REMARK    4  A    between atoms: N_8  and  S_9
REMARK    5  A    between atoms: S_9  and  C_12
REMARK    6  A    between atoms: C_25  and  C_28
REMARK    7  A    between atoms: C_31  and  N_34
REMARK    8  A    between atoms: N_34  and  C_35
REMARK    9  A    between atoms: N_34  and  C_36
REMARK                            x       y       z     vdW  Elec       q    Type
REMARK                         _______ _______ _______ _____ _____    ______ ____
ROOT
ATOM      1  C   UNL     1      -2.105   4.931   0.528  0.00  0.00    +0.109 A 
ATOM      2  C   UNL     1      -2.062   6.272   0.865  0.00  0.00    +0.030 A 
ATOM      3  C   UNL     1      -0.994   7.051   0.472  0.00  0.00    +0.025 A 
ATOM      4  C   UNL     1       0.046   6.497  -0.264  0.00  0.00    +0.031 A 
ATOM      5  C   UNL     1      -0.010   5.142  -0.611  0.00  0.00    -0.018 A 
ATOM      6  C   UNL     1      -1.079   4.371  -0.209  0.00  0.00    +0.034 A 
ATOM      7  C   UNL     1       1.107   4.596  -1.413  0.00  0.00    +0.049 C 
ATOM      8  C   UNL     1       1.471   3.157  -1.353  0.00  0.00    -0.023 C 
ATOM      9  C   UNL     1       2.779   3.043  -1.548  0.00  0.00    -0.030 C 
ATOM     10  C   UNL     1       3.404   4.428  -1.731  0.00  0.00    +0.033 C 
ATOM     11  C   UNL     1       2.414   5.317  -0.967  0.00  0.00    +0.029 C 
ATOM     12  C   UNL     1       2.265   6.752  -1.440  0.00  0.00    +0.105 C 
ATOM     13  N   UNL     1       1.130   7.303  -0.634  0.00  0.00    -0.336 N 
ATOM     14  H   UNL     1       1.137   8.357  -0.322  0.00  0.00    +0.147 HD
ENDROOT
BRANCH  12  15
ATOM     15  C   UNL     1       1.954   6.785  -2.914  0.00  0.00    -0.027 A 
ATOM     16  C   UNL     1       0.638   6.792  -3.341  0.00  0.00    +0.007 A 
ATOM     17  C   UNL     1       0.349   6.827  -4.691  0.00  0.00    +0.023 A 
ATOM     18  C   UNL     1       1.381   6.844  -5.621  0.00  0.00    +0.029 A 
ATOM     19  C   UNL     1       2.701   6.831  -5.189  0.00  0.00    +0.023 A 
ATOM     20  C   UNL     1       2.984   6.801  -3.837  0.00  0.00    +0.007 A 
BRANCH  18  21
ATOM     21  N   UNL     1       1.092   6.874  -6.987  0.00  0.00    -0.336 N 
ATOM     22  C   UNL     1       2.182   6.891  -7.966  0.00  0.00    +0.129 C 
ATOM     23  C   UNL     1      -0.300   6.888  -7.441  0.00  0.00    +0.129 C 
ENDBRANCH  18  21
ENDBRANCH  12  15
BRANCH   1  24
ATOM     24  S   UNL     1      -3.468   3.938   1.039  0.00  0.00    +0.072 S 
ATOM     25  O   UNL     1      -2.977   2.611   1.169  0.00  0.00    -0.150 OA
ATOM     26  O   UNL     1      -4.094   4.628   2.112  0.00  0.00    -0.150 OA
BRANCH  24  27
ATOM     27  N   UNL     1      -4.555   3.919  -0.210  0.00  0.00    -0.216 N 
ATOM     28  H   UNL     1      -5.527   4.423  -0.102  0.00  0.00    +0.174 HD
BRANCH  27  35
ATOM     29  C   UNL     1      -3.884   5.503  -2.476  0.00  0.00    +0.046 C 
ATOM     30  C   UNL     1      -3.905   3.998  -2.533  0.00  0.00    -0.028 A 
ATOM     31  C   UNL     1      -3.587   3.346  -3.709  0.00  0.00    +0.005 A 
ATOM     32  C   UNL     1      -3.611   1.964  -3.764  0.00  0.00    +0.001 A 
ATOM     33  C   UNL     1      -3.948   1.230  -2.641  0.00  0.00    +0.005 A 
ATOM     34  C   UNL     1      -4.262   1.876  -1.461  0.00  0.00    -0.028 A 
ATOM     35  C   UNL     1      -4.238   3.263  -1.402  0.00  0.00    +0.054 A 
ATOM     36  C   UNL     1      -4.629   1.075  -0.238  0.00  0.00    +0.046 C 
ENDBRANCH  27  35
ENDBRANCH  24  27
ENDBRANCH   1  24
TORSDOF 5
