REMARK  Name = ZINC17179710
REMARK  12 active torsions:
REMARK  status: ('A' for Active; 'I' for Inactive)
REMARK    1  A    between atoms: C_1  and  C_2
REMARK    2  A    between atoms: C_2  and  O_3
REMARK    3  A    between atoms: O_3  and  C_4
REMARK    4  A    between atoms: C_4  and  C_6
REMARK    5  A    between atoms: C_7  and  C_33
REMARK    6  A    between atoms: N_11  and  C_12
REMARK    7  A    between atoms: N_14  and  C_15
REMARK    8  A    between atoms: C_16  and  C_31
REMARK    9  A    between atoms: C_18  and  N_19
REMARK   10  A    between atoms: N_19  and  S_20
REMARK   11  A    between atoms: S_20  and  C_23
REMARK   12  A    between atoms: C_26  and  C_29
REMARK                            x       y       z     vdW  Elec       q    Type
REMARK                         _______ _______ _______ _____ _____    ______ ____
ROOT
ATOM      1  C   UNL     1      -7.374  -4.173   0.050  0.00  0.00    +0.330 C 
ATOM      2  O   UNL     1      -6.727  -5.206   0.045  0.00  0.00    -0.250 OA
ATOM      3  N   UNL     1      -8.720  -4.220   0.060  0.00  0.00    -0.261 N 
ATOM      4  H   UNL     1      -9.235  -3.398   0.065  0.00  0.00    +0.157 HD
ENDROOT
BRANCH   1  10
ATOM      5  C   UNL     1      -2.843  -2.417   0.016  0.00  0.00    +0.118 A 
ATOM      6  C   UNL     1      -3.215  -3.725   0.018  0.00  0.00    +0.036 A 
ATOM      7  N   UNL     1      -4.534  -3.985   0.028  0.00  0.00    -0.339 N 
ATOM      8  H   UNL     1      -4.854  -4.901   0.030  0.00  0.00    +0.167 HD
ATOM      9  C   UNL     1      -5.418  -2.944   0.035  0.00  0.00    +0.165 A 
ATOM     10  N   UNL     1      -6.746  -2.991   0.045  0.00  0.00    -0.139 NA
ATOM     11  S   UNL     1      -4.423  -1.589   0.036  0.00  0.00    -0.045 S 
ATOM     12  C   UNL     1      -2.193  -4.833   0.010  0.00  0.00    +0.065 C 
BRANCH   5  13
ATOM     13  C   UNL     1      -1.497  -1.838   0.006  0.00  0.00    +0.348 C 
ATOM     14  O   UNL     1      -0.523  -2.566  -0.007  0.00  0.00    -0.244 OA
BRANCH  13  15
ATOM     15  O   UNL     1      -1.339  -0.499   0.012  0.00  0.00    -0.461 OA
BRANCH  15  17
ATOM     16  C   UNL     1      -0.019   1.526   0.010  0.00  0.00    +0.048 C 
ATOM     17  C   UNL     1       0.002  -0.004   0.002  0.00  0.00    +0.229 C 
ENDBRANCH  15  17
ENDBRANCH  13  15
ENDBRANCH   5  13
ENDBRANCH   1  10
BRANCH   3  18
ATOM     18  C   UNL     1      -9.377  -5.457   0.065  0.00  0.00    +0.097 A 
ATOM     19  C   UNL     1     -10.709  -5.733   0.070  0.00  0.00    +0.069 A 
ATOM     20  N   UNL     1     -11.117  -6.990   0.073  0.00  0.00    -0.225 NA
ATOM     21  C   UNL     1     -10.254  -7.990   0.072  0.00  0.00    +0.203 A 
ATOM     22  S   UNL     1      -8.697  -7.111   0.059  0.00  0.00    -0.034 S 
ATOM     23  C   UNL     1     -11.715  -4.611   0.071  0.00  0.00    +0.068 C 
BRANCH  21  24
ATOM     24  N   UNL     1     -10.492  -9.358   0.075  0.00  0.00    -0.070 NA
BRANCH  24  25
ATOM     25  S   UNL     1      -9.221 -10.419   0.073  0.00  0.00    +0.093 S 
ATOM     26  O   UNL     1      -8.560 -10.259  -1.174  0.00  0.00    -0.148 OA
ATOM     27  O   UNL     1      -8.553 -10.255   1.317  0.00  0.00    -0.148 OA
BRANCH  25  28
ATOM     28  C   UNL     1      -9.901 -12.045   0.077  0.00  0.00    +0.110 A 
ATOM     29  C   UNL     1     -10.170 -12.679   1.276  0.00  0.00    +0.029 A 
ATOM     30  C   UNL     1     -10.703 -13.954   1.279  0.00  0.00    +0.005 A 
ATOM     31  C   UNL     1     -10.967 -14.596   0.084  0.00  0.00    -0.050 A 
ATOM     32  C   UNL     1     -10.700 -13.962  -1.115  0.00  0.00    +0.005 A 
ATOM     33  C   UNL     1     -10.171 -12.685  -1.118  0.00  0.00    +0.029 A 
ATOM     34  C   UNL     1     -11.548 -15.987   0.087  0.00  0.00    +0.044 C 
ENDBRANCH  25  28
ENDBRANCH  24  25
ENDBRANCH  21  24
ENDBRANCH   3  18
TORSDOF 8
