REMARK  Name = ZINC09817558
REMARK  7 active torsions:
REMARK  status: ('A' for Active; 'I' for Inactive)
REMARK    1  A    between atoms: C_1  and  C_2
REMARK    2  A    between atoms: C_5  and  N_12
REMARK    3  A    between atoms: C_8  and  C_10
REMARK    4  A    between atoms: C_8  and  C_11
REMARK    5  A    between atoms: C_13  and  C_15
REMARK    6  A    between atoms: C_15  and  C_16
REMARK    7  A    between atoms: C_22  and  C_24
REMARK                            x       y       z     vdW  Elec       q    Type
REMARK                         _______ _______ _______ _____ _____    ______ ____
ROOT
ATOM      1  C   UNL     1      -2.465   7.231   3.233  0.00  0.00    +0.151 C 
ENDROOT
BRANCH   1   2
ATOM      2  C   UNL     1      -3.627   7.713   4.061  0.00  0.00    +0.059 A 
ATOM      3  C   UNL     1      -3.435   8.567   5.096  0.00  0.00    +0.072 A 
ATOM      4  S   UNL     1      -5.113   8.773   5.674  0.00  0.00    -0.060 S 
ATOM      5  C   UNL     1      -5.879   7.726   4.520  0.00  0.00    +0.165 A 
ATOM      6  N   UNL     1      -4.856   7.310   3.800  0.00  0.00    -0.229 NA
ATOM      7  N   UNL     1      -7.225   7.408   4.389  0.00  0.00    -0.260 N 
ATOM      8  C   UNL     1      -8.129   7.943   5.233  0.00  0.00    +0.256 C 
ATOM      9  O   UNL     1      -7.766   8.705   6.111  0.00  0.00    -0.269 OA
ATOM     10  H   UNL     1      -7.514   6.802   3.689  0.00  0.00    +0.157 HD
BRANCH   8  11
ATOM     11  C   UNL     1      -9.549   7.608   5.095  0.00  0.00    +0.074 A 
ATOM     12  C   UNL     1     -10.626   8.039   5.853  0.00  0.00    +0.021 A 
ATOM     13  C   UNL     1     -11.867   7.568   5.501  0.00  0.00    +0.008 A 
ATOM     14  C   UNL     1     -11.977   6.709   4.454  0.00  0.00    +0.046 A 
ATOM     15  S   UNL     1     -10.340   6.533   3.911  0.00  0.00    -0.092 S 
ENDBRANCH   8  11
ENDBRANCH   1   2
BRANCH   1  17
ATOM     16  N   UNL     1      -1.486   5.067   2.542  0.00  0.00    -0.312 N 
ATOM     17  C   UNL     1      -2.444   5.724   3.224  0.00  0.00    +0.219 C 
ATOM     18  O   UNL     1      -3.291   5.103   3.832  0.00  0.00    -0.275 OA
ATOM     19  H   UNL     1      -0.809   5.564   2.056  0.00  0.00    +0.149 HD
BRANCH  16  23
ATOM     20  C   UNL     1       0.035   1.059   5.005  0.00  0.00    +0.007 C 
ATOM     21  C   UNL     1      -0.705   1.566   3.765  0.00  0.00    -0.012 C 
ATOM     22  C   UNL     1      -0.726   3.096   3.774  0.00  0.00    +0.025 C 
ATOM     23  C   UNL     1      -1.466   3.603   2.534  0.00  0.00    +0.074 C 
ATOM     24  C   UNL     1      -0.750   3.109   1.275  0.00  0.00    +0.028 C 
ATOM     25  C   UNL     1      -0.729   1.579   1.267  0.00  0.00    -0.033 C 
ATOM     26  C   UNL     1       0.011   1.072   2.506  0.00  0.00    +0.009 C 
ATOM     27  C   UNL     1      -0.013   1.086   0.008  0.00  0.00    +0.011 C 
ATOM     28  C   UNL     1      -2.164   1.050   1.278  0.00  0.00    +0.011 C 
ENDBRANCH  16  23
ENDBRANCH   1  17
TORSDOF 4
