REMARK  Name = ZINC24095997
REMARK  10 active torsions:
REMARK  status: ('A' for Active; 'I' for Inactive)
REMARK    1  A    between atoms: C_1  and  C_2
REMARK    2  A    between atoms: C_5  and  N_9
REMARK    3  A    between atoms: C_6  and  C_8
REMARK    4  A    between atoms: C_22  and  S_23
REMARK    5  A    between atoms: S_23  and  C_24
REMARK    6  A    between atoms: C_24  and  C_25
REMARK    7  A    between atoms: C_25  and  C_27
REMARK    8  A    between atoms: C_25  and  O_36
REMARK    9  A    between atoms: C_27  and  O_28
REMARK   10  A    between atoms: O_28  and  C_29
REMARK                            x       y       z     vdW  Elec       q    Type
REMARK                         _______ _______ _______ _____ _____    ______ ____
ROOT
ATOM      1  N   UNL     1      -4.697 -10.082   0.505  0.00  0.00    -0.245 N 
ATOM      2  C   UNL     1      -6.045 -10.133   0.473  0.00  0.00    +0.268 A 
ATOM      3  O   UNL     1      -6.625 -11.200   0.539  0.00  0.00    -0.267 OA
ATOM      4  C   UNL     1      -6.804  -8.874   0.359  0.00  0.00    +0.064 A 
ATOM      5  C   UNL     1      -8.197  -8.870   0.322  0.00  0.00    +0.015 A 
ATOM      6  C   UNL     1      -8.873  -7.673   0.214  0.00  0.00    +0.001 A 
ATOM      7  C   UNL     1      -8.174  -6.478   0.143  0.00  0.00    +0.002 A 
ATOM      8  C   UNL     1      -6.794  -6.469   0.178  0.00  0.00    +0.027 A 
ATOM      9  C   UNL     1      -6.097  -7.663   0.286  0.00  0.00    +0.064 A 
ATOM     10  N   UNL     1      -4.709  -7.686   0.330  0.00  0.00    -0.255 N 
ATOM     11  C   UNL     1      -4.027  -8.871   0.431  0.00  0.00    +0.245 A 
ATOM     12  N   UNL     1      -2.750  -8.575   0.442  0.00  0.00    -0.109 NA
ATOM     13  N   UNL     1      -2.590  -7.303   0.350  0.00  0.00    -0.120 NA
ATOM     14  C   UNL     1      -3.755  -6.706   0.275  0.00  0.00    +0.198 A 
ENDROOT
BRANCH   1  19
ATOM     15  C   UNL     1      -1.728 -14.897   0.945  0.00  0.00    +0.044 C 
ATOM     16  C   UNL     1      -2.516 -13.618   0.828  0.00  0.00    -0.050 A 
ATOM     17  C   UNL     1      -2.909 -12.942   1.969  0.00  0.00    +0.005 A 
ATOM     18  C   UNL     1      -3.627 -11.768   1.865  0.00  0.00    +0.027 A 
ATOM     19  C   UNL     1      -3.965 -11.270   0.613  0.00  0.00    +0.056 A 
ATOM     20  C   UNL     1      -3.569 -11.951  -0.531  0.00  0.00    -0.026 A 
ATOM     21  C   UNL     1      -2.846 -13.123  -0.420  0.00  0.00    +0.008 A 
ATOM     22  C   UNL     1      -3.928 -11.412  -1.891  0.00  0.00    +0.046 C 
ENDBRANCH   1  19
BRANCH  14  23
ATOM     23  S   UNL     1      -4.039  -4.972   0.138  0.00  0.00    -0.083 S 
BRANCH  23  24
ATOM     24  C   UNL     1      -2.373  -4.255   0.127  0.00  0.00    +0.112 C 
BRANCH  24  25
ATOM     25  C   UNL     1      -2.475  -2.732   0.010  0.00  0.00    +0.162 C 
BRANCH  25  26
ATOM     26  O   UNL     1      -3.148  -2.391  -1.203  0.00  0.00    -0.388 OA
ATOM     27  H   UNL     1      -3.316  -1.335  -1.461  0.00  0.00    +0.210 HD
ENDBRANCH  25  26
BRANCH  25  28
ATOM     28  C   UNL     1      -1.069  -2.127   0.000  0.00  0.00    +0.261 C 
BRANCH  28  29
ATOM     29  O   UNL     1      -1.165  -0.701   0.009  0.00  0.00    -0.487 OA
BRANCH  29  30
ATOM     30  C   UNL     1       0.002  -0.004   0.002  0.00  0.00    +0.156 A 
ATOM     31  C   UNL     1       1.214  -0.678  -0.013  0.00  0.00    +0.048 A 
ATOM     32  C   UNL     1       2.399   0.032  -0.021  0.00  0.00    +0.004 A 
ATOM     33  C   UNL     1       2.379   1.415  -0.013  0.00  0.00    +0.003 A 
ATOM     34  C   UNL     1       1.173   2.091   0.002  0.00  0.00    +0.042 A 
ATOM     35  C   UNL     1      -0.017   1.385   0.010  0.00  0.00    +0.165 A 
ATOM     36  F   UNL     1      -1.195   2.045   0.019  0.00  0.00    -0.202 F 
ENDBRANCH  29  30
ENDBRANCH  28  29
ENDBRANCH  25  28
ENDBRANCH  24  25
ENDBRANCH  23  24
ENDBRANCH  14  23
TORSDOF 8
