REMARK  Name = ZINC60342737
REMARK  6 active torsions:
REMARK  status: ('A' for Active; 'I' for Inactive)
REMARK    1  A    between atoms: C_3  and  N_18
REMARK    2  A    between atoms: C_4  and  S_10
REMARK    3  A    between atoms: C_6  and  N_7
REMARK    4  A    between atoms: S_10  and  N_13
REMARK    5  A    between atoms: N_18  and  C_19
REMARK    6  A    between atoms: C_25  and  O_27
REMARK                            x       y       z     vdW  Elec       q    Type
REMARK                         _______ _______ _______ _____ _____    ______ ____
ROOT
ATOM      1  C   UNL     1      -0.030   1.587  -0.206  0.00  0.00    +0.034 A 
ATOM      2  C   UNL     1       1.184   2.220  -0.025  0.00  0.00    +0.027 A 
ATOM      3  C   UNL     1       2.367   1.520  -0.228  0.00  0.00    +0.054 A 
ATOM      4  C   UNL     1       2.324   0.186  -0.612  0.00  0.00    +0.128 A 
ATOM      5  C   UNL     1       1.106  -0.441  -0.791  0.00  0.00    +0.063 A 
ATOM      6  C   UNL     1      -0.069   0.259  -0.588  0.00  0.00    +0.128 A 
ENDROOT
BRANCH   6   7
ATOM      7  N   UNL     1      -1.373  -0.416  -0.780  0.00  0.00    +0.056 N 
ATOM      8  O   UNL     1      -2.401   0.194  -0.604  0.00  0.00    -0.126 OA
ATOM      9  O   UNL     1      -1.408  -1.577  -1.115  0.00  0.00    -0.126 OA
ENDBRANCH   6   7
BRANCH   4  10
ATOM     10  S   UNL     1       3.821  -0.706  -0.871  0.00  0.00    +0.063 S 
ATOM     11  O   UNL     1       4.665  -0.413   0.234  0.00  0.00    -0.153 OA
ATOM     12  O   UNL     1       3.449  -2.034  -1.214  0.00  0.00    -0.153 OA
BRANCH  10  13
ATOM     13  N   UNL     1       4.551  -0.059  -2.209  0.00  0.00    -0.177 NA
ATOM     14  C   UNL     1       4.221  -0.379  -3.605  0.00  0.00    +0.109 C 
ATOM     15  C   UNL     1       5.173   0.441  -4.501  0.00  0.00    +0.018 C 
ATOM     16  C   UNL     1       6.363   0.748  -3.555  0.00  0.00    +0.018 C 
ATOM     17  C   UNL     1       5.637   0.939  -2.197  0.00  0.00    +0.109 C 
ENDBRANCH  10  13
ENDBRANCH   4  10
BRANCH   3  18
ATOM     18  N   UNL     1       3.597   2.157  -0.047  0.00  0.00    -0.337 N 
ATOM     19  H   UNL     1       4.419   1.699  -0.279  0.00  0.00    +0.146 HD
BRANCH  18  20
ATOM     20  C   UNL     1       3.644   3.518   0.495  0.00  0.00    +0.099 C 
ATOM     21  C   UNL     1       3.453   4.526  -0.640  0.00  0.00    +0.025 C 
ATOM     22  C   UNL     1       4.568   4.348  -1.673  0.00  0.00    +0.002 C 
ATOM     23  C   UNL     1       5.924   4.584  -1.005  0.00  0.00    +0.003 C 
ATOM     24  C   UNL     1       6.115   3.576   0.130  0.00  0.00    +0.033 C 
ATOM     25  C   UNL     1       5.000   3.753   1.163  0.00  0.00    +0.135 C 
BRANCH  25  26
ATOM     26  O   UNL     1       5.179   2.812   2.223  0.00  0.00    -0.390 OA
ATOM     27  H   UNL     1       6.019   2.903   2.692  0.00  0.00    +0.210 HD
ENDBRANCH  25  26
ENDBRANCH  18  20
ENDBRANCH   3  18
TORSDOF 6
