REMARK  Name = ZINC07037130
REMARK  10 active torsions:
REMARK  status: ('A' for Active; 'I' for Inactive)
REMARK    1  A    between atoms: C_1  and  C_2
REMARK    2  A    between atoms: C_2  and  C_3
REMARK    3  A    between atoms: C_2  and  N_4
REMARK    4  A    between atoms: C_8  and  N_9
REMARK    5  A    between atoms: N_9  and  C_10
REMARK    6  A    between atoms: C_14  and  C_15
REMARK    7  A    between atoms: C_15  and  O_17
REMARK    8  A    between atoms: O_17  and  C_18
REMARK    9  A    between atoms: N_21  and  C_24
REMARK   10  A    between atoms: C_24  and  C_25
REMARK                            x       y       z     vdW  Elec       q    Type
REMARK                         _______ _______ _______ _____ _____    ______ ____
ROOT
ATOM      1  N   UNL     1      -6.655   5.020   0.403  0.00  0.00    -0.219 N 
ATOM      2  C   UNL     1      -5.674   4.102   0.284  0.00  0.00    +0.261 C 
ATOM      3  O   UNL     1      -5.929   2.913   0.280  0.00  0.00    -0.269 OA
ATOM      4  C   UNL     1      -4.284   4.579   0.168  0.00  0.00    +0.113 C 
ATOM      5  C   UNL     1      -3.226   3.697   0.050  0.00  0.00    +0.090 C 
ATOM      6  C   UNL     1      -4.072   6.037   0.176  0.00  0.00    +0.261 C 
ATOM      7  O   UNL     1      -2.954   6.507   0.078  0.00  0.00    -0.269 OA
ATOM      8  N   UNL     1      -5.152   6.838   0.294  0.00  0.00    -0.214 N 
ATOM      9  C   UNL     1      -6.389   6.334   0.403  0.00  0.00    +0.319 C 
ATOM     10  O   UNL     1      -7.319   7.110   0.506  0.00  0.00    -0.252 OA
ENDROOT
BRANCH   1  12
ATOM     11  C   UNL     1      -8.428   3.753  -0.708  0.00  0.00    +0.028 C 
ATOM     12  C   UNL     1      -8.044   4.572   0.527  0.00  0.00    +0.080 C 
ATOM     13  C   UNL     1      -8.190   3.705   1.779  0.00  0.00    +0.028 C 
ENDBRANCH   1  12
BRANCH   5  14
ATOM     14  N   UNL     1      -1.958   4.158   0.066  0.00  0.00    -0.319 N 
ATOM     15  H   UNL     1      -1.790   5.113   0.084  0.00  0.00    +0.152 HD
BRANCH  14  16
ATOM     16  C   UNL     1      -0.891   3.262   0.057  0.00  0.00    +0.052 A 
ATOM     17  C   UNL     1      -1.091   1.898   0.026  0.00  0.00    +0.031 A 
ATOM     18  C   UNL     1      -0.017   1.070   0.023  0.00  0.00    +0.048 A 
ATOM     19  S   UNL     1       1.331   2.160   0.051  0.00  0.00    -0.088 S 
ATOM     20  C   UNL     1       0.433   3.701   0.073  0.00  0.00    +0.117 A 
BRANCH  20  21
ATOM     21  C   UNL     1       0.934   5.025   0.099  0.00  0.00    +0.347 C 
ATOM     22  O   UNL     1       0.164   5.967   0.111  0.00  0.00    -0.244 OA
BRANCH  21  23
ATOM     23  O   UNL     1       2.266   5.242   0.112  0.00  0.00    -0.464 OA
ATOM     24  C   UNL     1       2.701   6.603   0.139  0.00  0.00    +0.280 C 
ENDBRANCH  21  23
ENDBRANCH  20  21
ENDBRANCH  14  16
ENDBRANCH   5  14
BRANCH   8  25
ATOM     25  C   UNL     1      -4.967   8.291   0.305  0.00  0.00    +0.192 C 
BRANCH  25  26
ATOM     26  C   UNL     1      -5.039   8.817  -1.106  0.00  0.00    +0.123 A 
ATOM     27  C   UNL     1      -6.154   9.227  -1.737  0.00  0.00    +0.046 A 
ATOM     28  C   UNL     1      -5.764   9.637  -3.033  0.00  0.00    +0.041 A 
ATOM     29  C   UNL     1      -4.434   9.452  -3.116  0.00  0.00    +0.195 A 
ATOM     30  O   UNL     1      -3.999   8.961  -1.944  0.00  0.00    -0.466 OA
ENDBRANCH  25  26
ENDBRANCH   8  25
TORSDOF 7
