REMARK  Name = ZINC38306685
REMARK  7 active torsions:
REMARK  status: ('A' for Active; 'I' for Inactive)
REMARK    1  A    between atoms: C_1  and  C_2
REMARK    2  A    between atoms: C_3  and  C_28
REMARK    3  A    between atoms: C_4  and  C_21
REMARK    4  A    between atoms: C_9  and  S_11
REMARK    5  A    between atoms: S_11  and  C_12
REMARK    6  A    between atoms: C_12  and  C_13
REMARK    7  A    between atoms: C_25  and  O_27
REMARK                            x       y       z     vdW  Elec       q    Type
REMARK                         _______ _______ _______ _____ _____    ______ ____
ROOT
ATOM      1  C   UNL     1      -0.719   0.589  -1.235  0.00  0.00    +0.062 C 
ATOM      2  C   UNL     1      -1.028   1.851  -1.998  0.00  0.00    +0.034 C 
ATOM      3  C   UNL     1      -0.646   3.170  -1.389  0.00  0.00    +0.148 C 
ATOM      4  C   UNL     1      -0.273   4.193  -2.468  0.00  0.00    +0.158 C 
ATOM      5  N   UNL     1      -1.234   4.066  -3.563  0.00  0.00    -0.220 N 
ATOM      6  C   UNL     1      -1.843   2.889  -3.869  0.00  0.00    +0.250 A 
ATOM      7  N   UNL     1      -2.625   3.099  -4.897  0.00  0.00    -0.184 NA
ATOM      8  C   UNL     1      -2.550   4.384  -5.264  0.00  0.00    +0.211 A 
ATOM      9  N   UNL     1      -1.707   5.011  -4.467  0.00  0.00    -0.141 NA
ATOM     10  N   UNL     1      -1.605   1.752  -3.151  0.00  0.00    -0.220 NA
ENDROOT
BRANCH   4  11
ATOM     11  C   UNL     1      -0.334   5.585  -1.893  0.00  0.00    -0.018 A 
ATOM     12  C   UNL     1      -0.153   5.781  -0.536  0.00  0.00    +0.006 A 
ATOM     13  C   UNL     1      -0.209   7.057  -0.006  0.00  0.00    +0.004 A 
ATOM     14  C   UNL     1      -0.447   8.139  -0.831  0.00  0.00    +0.045 A 
ATOM     15  C   UNL     1      -0.629   7.945  -2.193  0.00  0.00    +0.117 A 
ATOM     16  C   UNL     1      -0.566   6.665  -2.723  0.00  0.00    +0.051 A 
BRANCH  15  17
ATOM     17  O   UNL     1      -0.863   9.008  -3.006  0.00  0.00    -0.507 OA
ATOM     18  H   UNL     1      -0.061   9.408  -3.371  0.00  0.00    +0.292 HD
ENDBRANCH  15  17
ENDBRANCH   4  11
BRANCH   3  19
ATOM     19  C   UNL     1      -1.808   3.699  -0.588  0.00  0.00    +0.221 C 
ATOM     20  O   UNL     1      -2.706   4.296  -1.144  0.00  0.00    -0.275 OA
ATOM     21  N   UNL     1      -1.849   3.509   0.746  0.00  0.00    -0.329 N 
ATOM     22  H   UNL     1      -1.131   3.032   1.190  0.00  0.00    +0.145 HD
ATOM     23  H   UNL     1      -2.597   3.849   1.261  0.00  0.00    +0.145 HD
ENDBRANCH   3  19
BRANCH   8  24
ATOM     24  S   UNL     1      -3.434   5.119  -6.599  0.00  0.00    -0.080 S 
BRANCH  24  25
ATOM     25  C   UNL     1      -4.406   3.751  -7.288  0.00  0.00    +0.115 C 
BRANCH  25  26
ATOM     26  C   UNL     1      -5.220   4.251  -8.454  0.00  0.00    -0.002 A 
ATOM     27  C   UNL     1      -6.491   4.751  -8.245  0.00  0.00    +0.007 A 
ATOM     28  C   UNL     1      -7.238   5.209  -9.314  0.00  0.00    +0.000 A 
ATOM     29  C   UNL     1      -6.715   5.168 -10.593  0.00  0.00    +0.003 A 
ATOM     30  C   UNL     1      -5.444   4.669 -10.804  0.00  0.00    +0.038 A 
ATOM     31  C   UNL     1      -4.692   4.214  -9.733  0.00  0.00    +0.127 A 
ATOM     32  F   UNL     1      -3.447   3.731  -9.937  0.00  0.00    -0.205 F 
ENDBRANCH  25  26
ENDBRANCH  24  25
ENDBRANCH   8  24
TORSDOF 6
