REMARK  Name = ZINC20758448
REMARK  7 active torsions:
REMARK  status: ('A' for Active; 'I' for Inactive)
REMARK    1  A    between atoms: C_1  and  C_2
REMARK    2  A    between atoms: C_16  and  C_19
REMARK    3  A    between atoms: C_19  and  C_20
REMARK    4  A    between atoms: C_20  and  C_21
REMARK    5  A    between atoms: N_26  and  C_29
REMARK    6  A    between atoms: C_29  and  C_31
REMARK    7  A    between atoms: C_29  and  C_32
REMARK                            x       y       z     vdW  Elec       q    Type
REMARK                         _______ _______ _______ _____ _____    ______ ____
ROOT
ATOM      1  C   UNL     1       0.062   0.400  -0.636  0.00  0.00    +0.047 C 
ATOM      2  C   UNL     1       0.083  -1.085  -0.384  0.00  0.00    -0.011 A 
ATOM      3  C   UNL     1       0.104  -1.964  -1.449  0.00  0.00    +0.046 A 
ATOM      4  C   UNL     1       0.124  -3.330  -1.227  0.00  0.00    +0.021 A 
ATOM      5  C   UNL     1       0.121  -3.817   0.069  0.00  0.00    +0.009 A 
ATOM      6  C   UNL     1       0.101  -2.944   1.133  0.00  0.00    +0.004 A 
ATOM      7  C   UNL     1       0.088  -1.568   0.922  0.00  0.00    +0.043 A 
ATOM      8  N   UNL     1       0.079  -0.892   2.144  0.00  0.00    -0.283 N 
ATOM      9  C   UNL     1       0.091  -1.738   3.193  0.00  0.00    +0.243 C 
ATOM     10  O   UNL     1       0.090  -1.436   4.367  0.00  0.00    -0.273 OA
ATOM     11  C   UNL     1       0.092  -3.131   2.624  0.00  0.00    +0.136 C 
ATOM     12  C   UNL     1       1.319  -3.918   3.099  0.00  0.00    +0.122 C 
ATOM     13  C   UNL     1       0.796  -4.786   4.278  0.00  0.00    +0.107 C 
ATOM     14  C   UNL     1      -0.701  -4.427   4.398  0.00  0.00    +0.068 C 
ATOM     15  N   UNL     1      -1.082  -3.906   3.066  0.00  0.00    -0.295 NA
ATOM     16  C   UNL     1       1.549  -4.242   5.471  0.00  0.00    +0.228 C 
ATOM     17  O   UNL     1       1.441  -4.643   6.610  0.00  0.00    -0.275 OA
ATOM     18  N   UNL     1       2.354  -3.249   5.074  0.00  0.00    -0.234 N 
ATOM     19  C   UNL     1       2.310  -2.981   3.749  0.00  0.00    +0.229 C 
ATOM     20  O   UNL     1       2.953  -2.130   3.172  0.00  0.00    -0.275 OA
ATOM     21 CL   UNL     1       0.104  -1.353  -3.074  0.00  0.00    -0.083 Cl
ATOM     22  H   UNL     1       0.067   0.074   2.229  0.00  0.00    +0.155 HD
ATOM     23  H   UNL     1      -1.901  -3.320   3.122  0.00  0.00    +0.123 HD
ENDROOT
BRANCH  18  24
ATOM     24  C   UNL     1       3.221  -2.514   5.998  0.00  0.00    +0.111 C 
ATOM     25  C   UNL     1       4.261  -3.467   6.589  0.00  0.00    +0.033 C 
BRANCH  24  26
ATOM     26  C   UNL     1       2.388  -1.929   7.110  0.00  0.00    -0.027 A 
ATOM     27  C   UNL     1       1.899  -0.640   7.002  0.00  0.00    +0.005 A 
ATOM     28  C   UNL     1       1.135  -0.103   8.021  0.00  0.00    +0.000 A 
ATOM     29  C   UNL     1       0.859  -0.855   9.148  0.00  0.00    +0.000 A 
ATOM     30  C   UNL     1       1.347  -2.144   9.255  0.00  0.00    +0.000 A 
ATOM     31  C   UNL     1       2.108  -2.683   8.234  0.00  0.00    +0.005 A 
ENDBRANCH  24  26
ENDBRANCH  18  24
BRANCH  14  32
ATOM     32  C   UNL     1      -1.518  -5.669   4.758  0.00  0.00    +0.028 C 
BRANCH  32  33
ATOM     33  C   UNL     1      -2.976  -5.269   4.994  0.00  0.00    +0.097 C 
BRANCH  33  34
ATOM     34  C   UNL     1      -3.782  -6.493   5.348  0.00  0.00    +0.211 C 
ATOM     35  O   UNL     1      -3.243  -7.578   5.407  0.00  0.00    -0.276 OA
ATOM     36  N   UNL     1      -5.101  -6.381   5.601  0.00  0.00    -0.329 N 
ATOM     37  H   UNL     1      -5.532  -5.513   5.554  0.00  0.00    +0.145 HD
ATOM     38  H   UNL     1      -5.619  -7.169   5.829  0.00  0.00    +0.145 HD
ENDBRANCH  33  34
ENDBRANCH  32  33
ENDBRANCH  14  32
TORSDOF 5
