REMARK  Name = ZINC20504795
REMARK  7 active torsions:
REMARK  status: ('A' for Active; 'I' for Inactive)
REMARK    1  A    between atoms: C_1  and  C_2
REMARK    2  A    between atoms: C_2  and  C_3
REMARK    3  A    between atoms: C_2  and  C_4
REMARK    4  A    between atoms: C_4  and  C_5
REMARK    5  A    between atoms: C_5  and  C_7
REMARK    6  A    between atoms: C_5  and  N_19
REMARK    7  A    between atoms: N_9  and  C_10
REMARK                            x       y       z     vdW  Elec       q    Type
REMARK                         _______ _______ _______ _____ _____    ______ ____
ROOT
ATOM      1  C   UNL     1       2.463   5.273  -0.561  0.00  0.00    +0.203 C 
ATOM      2  O   UNL     1       1.485   5.891  -0.925  0.00  0.00    -0.277 OA
ATOM      3  N   UNL     1       2.345   3.984  -0.186  0.00  0.00    -0.285 N 
ATOM      4  H   UNL     1       3.213   3.448   0.226  0.00  0.00    +0.155 HD
ENDROOT
BRANCH   3   5
ATOM      5  C   UNL     1       1.116   3.326  -0.320  0.00  0.00    +0.062 A 
ATOM      6  C   UNL     1       1.044   2.116  -0.999  0.00  0.00    +0.041 A 
ATOM      7  C   UNL     1      -0.170   1.469  -1.129  0.00  0.00    +0.032 A 
ATOM      8  C   UNL     1      -1.314   2.027  -0.589  0.00  0.00    +0.020 A 
ATOM      9  C   UNL     1      -1.246   3.229   0.093  0.00  0.00    +0.032 A 
ATOM     10  C   UNL     1      -0.034   3.881   0.227  0.00  0.00    +0.041 A 
ATOM     11 BR   UNL     1       0.057   5.528   1.152  0.00  0.00    -0.048 Br
ATOM     12 BR   UNL     1      -2.975   1.143  -0.776  0.00  0.00    -0.050 Br
ATOM     13 BR   UNL     1       2.607   1.355  -1.744  0.00  0.00    -0.048 Br
ENDBRANCH   3   5
BRANCH   1  14
ATOM     14  C   UNL     1       3.811   5.946  -0.528  0.00  0.00    +0.013 C 
BRANCH  14  15
ATOM     15  N   UNL     1       3.788   7.130  -1.398  0.00  0.00    +0.386 N 
ATOM     16  H   UNL     1       3.557   6.822  -2.429  0.00  0.00    -0.089 HD
ATOM     17  H   UNL     1       4.772   7.621  -1.374  0.00  0.00    -0.089 HD
ATOM     18  H   UNL     1       3.019   7.831  -1.043  0.00  0.00    -0.089 HD
ENDBRANCH  14  15
BRANCH  14  19
ATOM     19  C   UNL     1       4.133   6.373   0.906  0.00  0.00    -0.004 C 
BRANCH  19  21
ATOM     20  C   UNL     1       5.528   4.341   1.315  0.00  0.00    +0.007 C 
ATOM     21  C   UNL     1       4.303   5.131   1.782  0.00  0.00    -0.018 C 
ATOM     22  C   UNL     1       4.496   5.557   3.239  0.00  0.00    +0.007 C 
ENDBRANCH  19  21
ENDBRANCH  14  19
ENDBRANCH   1  14
TORSDOF 5
