REMARK  Name = ZINC62789378
REMARK  5 active torsions:
REMARK  status: ('A' for Active; 'I' for Inactive)
REMARK    1  A    between atoms: C_3  and  C_17
REMARK    2  A    between atoms: C_4  and  N_8
REMARK    3  A    between atoms: C_12  and  C_15
REMARK    4  A    between atoms: C_15  and  O_16
REMARK    5  A    between atoms: N_18  and  O_19
REMARK                            x       y       z     vdW  Elec       q    Type
REMARK                         _______ _______ _______ _____ _____    ______ ____
ROOT
ATOM      1  C   UNL     1       0.083   1.557  -0.181  0.00  0.00    +0.021 A 
ATOM      2  C   UNL     1       1.310   2.186  -0.182  0.00  0.00    +0.014 A 
ATOM      3  C   UNL     1       2.478   1.433  -0.063  0.00  0.00    +0.039 A 
ATOM      4  C   UNL     1       2.396   0.039   0.057  0.00  0.00    +0.042 A 
ATOM      5  C   UNL     1       1.153  -0.579   0.057  0.00  0.00    +0.043 A 
ATOM      6  C   UNL     1       0.003   0.179  -0.062  0.00  0.00    +0.043 A 
ATOM      7 CL   UNL     1      -1.548  -0.600  -0.061  0.00  0.00    -0.083 Cl
ENDROOT
BRANCH   4   8
ATOM      8  N   UNL     1       3.555  -0.722   0.176  0.00  0.00    -0.329 N 
ATOM      9  C   UNL     1       4.045  -1.139   1.497  0.00  0.00    +0.105 C 
ATOM     10  C   UNL     1       4.238  -2.659   1.494  0.00  0.00    +0.019 C 
ATOM     11  C   UNL     1       5.154  -3.050   0.332  0.00  0.00    +0.009 C 
ATOM     12  C   UNL     1       4.503  -2.643  -0.992  0.00  0.00    +0.032 C 
ATOM     13  C   UNL     1       4.310  -1.129  -1.018  0.00  0.00    +0.111 C 
BRANCH  12  14
ATOM     14  C   UNL     1       5.404  -3.065  -2.155  0.00  0.00    +0.160 C 
BRANCH  14  15
ATOM     15  O   UNL     1       5.490  -4.491  -2.198  0.00  0.00    -0.395 OA
ATOM     16  H   UNL     1       6.046  -4.830  -2.913  0.00  0.00    +0.209 HD
ENDBRANCH  14  15
ENDBRANCH  12  14
ENDBRANCH   4   8
BRANCH   3  17
ATOM     17  C   UNL     1       3.796   2.102  -0.065  0.00  0.00    +0.164 C 
ATOM     18  N   UNL     1       4.137   2.867  -1.062  0.00  0.00    -0.071 NA
ATOM     19  N   UNL     1       4.668   1.916   0.995  0.00  0.00    -0.340 N 
ATOM     20  H   UNL     1       4.414   1.346   1.737  0.00  0.00    +0.144 HD
ATOM     21  H   UNL     1       5.533   2.355   0.994  0.00  0.00    +0.144 HD
BRANCH  18  22
ATOM     22  O   UNL     1       3.210   3.135  -2.098  0.00  0.00    -0.408 OA
ATOM     23  H   UNL     1       3.525   3.772  -2.753  0.00  0.00    +0.328 HD
ENDBRANCH  18  22
ENDBRANCH   3  17
TORSDOF 5
