REMARK  Name = ZINC34691789
REMARK  11 active torsions:
REMARK  status: ('A' for Active; 'I' for Inactive)
REMARK    1  A    between atoms: C_1  and  O_2
REMARK    2  A    between atoms: O_2  and  C_3
REMARK    3  A    between atoms: C_5  and  C_13
REMARK    4  A    between atoms: C_7  and  O_11
REMARK    5  A    between atoms: C_8  and  O_9
REMARK    6  A    between atoms: O_9  and  C_10
REMARK    7  A    between atoms: O_11  and  C_12
REMARK    8  A    between atoms: N_18  and  C_21
REMARK    9  A    between atoms: C_21  and  C_22
REMARK   10  A    between atoms: N_25  and  C_29
REMARK   11  A    between atoms: C_29  and  C_30
REMARK                            x       y       z     vdW  Elec       q    Type
REMARK                         _______ _______ _______ _____ _____    ______ ____
ROOT
ATOM      1  C   UNL     1       2.424   0.185   4.134  0.00  0.00    +0.247 C 
ATOM      2  O   UNL     1       1.894  -0.523   3.300  0.00  0.00    -0.270 OA
ATOM      3  N   UNL     1       3.138  -0.369   5.133  0.00  0.00    -0.301 N 
ATOM      4  C   UNL     1       3.396  -1.817   5.167  0.00  0.00    +0.089 C 
ATOM      5  C   UNL     1       3.015  -2.346   6.553  0.00  0.00    -0.059 C 
ATOM      6  N   UNL     1       3.730  -1.580   7.582  0.00  0.00    +0.383 N 
ATOM      7  C   UNL     1       3.289  -0.180   7.559  0.00  0.00    -0.059 C 
ATOM      8  C   UNL     1       3.688   0.458   6.219  0.00  0.00    +0.089 C 
ATOM      9  H   UNL     1       4.722  -1.622   7.402  0.00  0.00    -0.082 HD
ENDROOT
BRANCH   1  12
ATOM     10  C   UNL     1       3.191   3.853   4.407  0.00  0.00    +0.166 A 
ATOM     11  C   UNL     1       3.324   2.479   4.486  0.00  0.00    +0.062 A 
ATOM     12  C   UNL     1       2.284   1.652   4.052  0.00  0.00    +0.044 A 
ATOM     13  C   UNL     1       1.113   2.216   3.540  0.00  0.00    +0.062 A 
ATOM     14  C   UNL     1       0.986   3.591   3.463  0.00  0.00    +0.166 A 
ATOM     15  C   UNL     1       2.021   4.413   3.901  0.00  0.00    +0.204 A 
BRANCH  10  17
ATOM     16  C   UNL     1       5.374   4.017   5.337  0.00  0.00    +0.277 C 
ATOM     17  O   UNL     1       4.202   4.658   4.830  0.00  0.00    -0.491 OA
ENDBRANCH  10  17
BRANCH  15  18
ATOM     18  O   UNL     1       1.891   5.763   3.830  0.00  0.00    -0.488 OA
ATOM     19  C   UNL     1       2.328   6.395   2.625  0.00  0.00    +0.277 C 
ENDBRANCH  15  18
BRANCH  14  20
ATOM     20  O   UNL     1      -0.154   4.141   2.965  0.00  0.00    -0.491 OA
ATOM     21  C   UNL     1      -1.177   3.238   2.538  0.00  0.00    +0.277 C 
ENDBRANCH  14  20
ENDBRANCH   1  12
BRANCH   6  22
ATOM     22  C   UNL     1       3.451  -2.158   8.903  0.00  0.00    -0.045 C 
BRANCH  22  23
ATOM     23  C   UNL     1       4.058  -3.560   8.985  0.00  0.00    +0.116 C 
ATOM     24  C   UNL     1       3.766  -4.164  10.361  0.00  0.00    +0.114 C 
ATOM     25  N   UNL     1       4.416  -5.479  10.462  0.00  0.00    -0.291 NA
ATOM     26  C   UNL     1       5.868  -5.358  10.262  0.00  0.00    +0.113 C 
ATOM     27  C   UNL     1       6.139  -4.742   8.887  0.00  0.00    +0.175 C 
ATOM     28  O   UNL     1       5.473  -3.480   8.795  0.00  0.00    -0.376 OA
BRANCH  25  29
ATOM     29  C   UNL     1       4.113  -6.119  11.749  0.00  0.00    +0.158 C 
BRANCH  29  30
ATOM     30  C   UNL     1       4.585  -7.550  11.721  0.00  0.00    +0.119 A 
ATOM     31  C   UNL     1       5.801  -7.985  12.096  0.00  0.00    +0.046 A 
ATOM     32  C   UNL     1       5.811  -9.386  11.908  0.00  0.00    +0.041 A 
ATOM     33  C   UNL     1       4.600  -9.724  11.429  0.00  0.00    +0.195 A 
ATOM     34  O   UNL     1       3.860  -8.608  11.324  0.00  0.00    -0.467 OA
ENDBRANCH  29  30
ENDBRANCH  25  29
ENDBRANCH  22  23
ENDBRANCH   6  22
TORSDOF 8
