REMARK  Name = ZINC54086944
REMARK  7 active torsions:
REMARK  status: ('A' for Active; 'I' for Inactive)
REMARK    1  A    between atoms: C_1  and  C_2
REMARK    2  A    between atoms: C_2  and  C_4
REMARK    3  A    between atoms: C_2  and  N_12
REMARK    4  A    between atoms: C_13  and  C_15
REMARK    5  A    between atoms: N_17  and  C_29
REMARK    6  A    between atoms: C_19  and  C_20
REMARK    7  A    between atoms: C_23  and  N_26
REMARK                            x       y       z     vdW  Elec       q    Type
REMARK                         _______ _______ _______ _____ _____    ______ ____
ROOT
ATOM      1  C   UNL     1       2.276  -1.800  -2.580  0.00  0.00    +0.082 A 
ATOM      2  C   UNL     1       1.475  -2.404  -3.527  0.00  0.00    +0.121 A 
ATOM      3  N   UNL     1       2.276  -2.970  -4.443  0.00  0.00    -0.273 N 
ATOM      4  N   UNL     1       3.612  -2.743  -4.104  0.00  0.00    -0.171 NA
ATOM      5  C   UNL     1       3.661  -2.039  -2.996  0.00  0.00    +0.105 A 
ATOM      6  C   UNL     1       1.818  -3.714  -5.619  0.00  0.00    +0.172 C 
ENDROOT
BRANCH   5   7
ATOM      7  C   UNL     1       4.885  -1.578  -2.297  0.00  0.00    +0.003 A 
ATOM      8  C   UNL     1       4.995  -1.716  -0.914  0.00  0.00    +0.012 A 
ATOM      9  C   UNL     1       6.136  -1.285  -0.269  0.00  0.00    +0.033 A 
ATOM     10  C   UNL     1       7.170  -0.717  -0.992  0.00  0.00    +0.126 A 
ATOM     11  C   UNL     1       7.066  -0.577  -2.364  0.00  0.00    +0.033 A 
ATOM     12  C   UNL     1       5.932  -1.009  -3.021  0.00  0.00    +0.012 A 
BRANCH  10  13
ATOM     13  N   UNL     1       8.391  -0.256  -0.294  0.00  0.00    +0.056 N 
ATOM     14  O   UNL     1       8.484  -0.377   0.905  0.00  0.00    -0.126 OA
ATOM     15  O   UNL     1       9.296   0.241  -0.924  0.00  0.00    -0.126 OA
ENDBRANCH  10  13
ENDBRANCH   5   7
BRANCH   1  17
ATOM     16  N   UNL     1       0.511  -0.886  -1.158  0.00  0.00    -0.300 N 
ATOM     17  C   UNL     1       1.828  -1.057  -1.389  0.00  0.00    +0.248 C 
ATOM     18  O   UNL     1       2.646  -0.598  -0.616  0.00  0.00    -0.270 OA
ATOM     19  H   UNL     1      -0.141  -1.253  -1.775  0.00  0.00    +0.150 HD
BRANCH  16  21
ATOM     20  C   UNL     1       0.057   1.351  -0.281  0.00  0.00    +0.038 C 
ATOM     21  C   UNL     1       0.066  -0.148   0.026  0.00  0.00    +0.156 C 
BRANCH  21  22
ATOM     22  C   UNL     1      -1.324  -0.592   0.402  0.00  0.00    +0.236 C 
ATOM     23  O   UNL     1      -2.050  -1.086  -0.434  0.00  0.00    -0.274 OA
ATOM     24  N   UNL     1      -1.761  -0.440   1.668  0.00  0.00    -0.300 N 
ATOM     25  C   UNL     1      -0.945   0.271   2.662  0.00  0.00    +0.108 C 
ATOM     26  C   UNL     1      -1.791   1.381   3.292  0.00  0.00    +0.019 C 
ATOM     27  C   UNL     1      -3.080   0.778   3.854  0.00  0.00    +0.003 C 
ATOM     28  C   UNL     1      -3.885   0.143   2.718  0.00  0.00    +0.019 C 
ATOM     29  C   UNL     1      -3.066  -0.976   2.079  0.00  0.00    +0.108 C 
ENDBRANCH  21  22
ENDBRANCH  16  21
ENDBRANCH   1  17
TORSDOF 5
