REMARK  Name = ZINC08455998
REMARK  11 active torsions:
REMARK  status: ('A' for Active; 'I' for Inactive)
REMARK    1  A    between atoms: C_1  and  C_2
REMARK    2  A    between atoms: C_2  and  C_4
REMARK    3  A    between atoms: C_2  and  N_25
REMARK    4  A    between atoms: C_7  and  S_10
REMARK    5  A    between atoms: N_8  and  C_9
REMARK    6  A    between atoms: S_10  and  C_11
REMARK    7  A    between atoms: C_11  and  C_12
REMARK    8  A    between atoms: N_14  and  N_15
REMARK    9  A    between atoms: C_16  and  C_17
REMARK   10  A    between atoms: C_16  and  C_18
REMARK   11  A    between atoms: N_25  and  C_26
REMARK                            x       y       z     vdW  Elec       q    Type
REMARK                         _______ _______ _______ _____ _____    ______ ____
ROOT
ATOM      1  C   UNL     1      -5.948   0.004  -4.658  0.00  0.00    +0.154 A 
ATOM      2  N   UNL     1      -5.278  -0.917  -4.026  0.00  0.00    -0.132 NA
ATOM      3  N   UNL     1      -4.225  -0.409  -3.492  0.00  0.00    -0.122 NA
ATOM      4  C   UNL     1      -4.166   0.875  -3.757  0.00  0.00    +0.192 A 
ATOM      5  N   UNL     1      -5.267   1.180  -4.505  0.00  0.00    -0.308 N 
ATOM      6  C   UNL     1      -5.640   2.493  -5.036  0.00  0.00    +0.152 C 
ENDROOT
BRANCH   1   8
ATOM      7  C   UNL     1      -6.950  -0.891  -6.743  0.00  0.00    +0.036 C 
ATOM      8  C   UNL     1      -7.237  -0.190  -5.414  0.00  0.00    +0.135 C 
BRANCH   8   9
ATOM      9  N   UNL     1      -8.152  -1.012  -4.617  0.00  0.00    -0.334 N 
ATOM     10  H   UNL     1      -7.799  -1.624  -3.952  0.00  0.00    +0.147 HD
BRANCH   9  11
ATOM     11  C   UNL     1      -9.531  -0.913  -4.814  0.00  0.00    +0.028 A 
ATOM     12  C   UNL     1     -10.038  -0.033  -5.761  0.00  0.00    +0.024 A 
ATOM     13  C   UNL     1     -11.402   0.059  -5.957  0.00  0.00    +0.017 A 
ATOM     14  C   UNL     1     -12.264  -0.718  -5.203  0.00  0.00    +0.018 A 
ATOM     15  C   UNL     1     -11.763  -1.592  -4.255  0.00  0.00    +0.017 A 
ATOM     16  C   UNL     1     -10.399  -1.691  -4.058  0.00  0.00    +0.024 A 
ATOM     17 BR   UNL     1     -14.132  -0.584  -5.470  0.00  0.00    -0.050 Br
ENDBRANCH   9  11
ENDBRANCH   8   9
ENDBRANCH   1   8
BRANCH   4  18
ATOM     18  S   UNL     1      -2.909   1.996  -3.240  0.00  0.00    -0.077 S 
BRANCH  18  19
ATOM     19  C   UNL     1      -1.843   0.865  -2.312  0.00  0.00    +0.174 C 
BRANCH  19  20
ATOM     20  C   UNL     1      -0.664   1.625  -1.760  0.00  0.00    +0.242 C 
ATOM     21  O   UNL     1      -0.556   2.814  -1.972  0.00  0.00    -0.273 OA
ATOM     22  N   UNL     1       0.269   0.983  -1.029  0.00  0.00    -0.206 N 
ATOM     23  H   UNL     1       0.183   0.032  -0.860  0.00  0.00    +0.177 HD
BRANCH  22  24
ATOM     24  N   UNL     1       1.367   1.688  -0.520  0.00  0.00    -0.185 NA
ATOM     25  C   UNL     1       2.324   1.052   0.084  0.00  0.00    +0.063 C 
ATOM     26  C   UNL     1       3.409   1.821   0.793  0.00  0.00    +0.068 C 
BRANCH  25  27
ATOM     27  C   UNL     1       2.349  -0.422   0.075  0.00  0.00    -0.002 A 
ATOM     28  C   UNL     1       2.790  -1.122   1.201  0.00  0.00    +0.012 A 
ATOM     29  C   UNL     1       2.806  -2.501   1.190  0.00  0.00    +0.039 A 
ATOM     30  C   UNL     1       2.396  -3.192   0.060  0.00  0.00    +0.123 A 
ATOM     31  C   UNL     1       1.962  -2.503  -1.061  0.00  0.00    +0.039 A 
ATOM     32  C   UNL     1       1.936  -1.124  -1.060  0.00  0.00    +0.012 A 
ATOM     33  F   UNL     1       2.418  -4.543   0.053  0.00  0.00    -0.205 F 
ENDBRANCH  25  27
ENDBRANCH  22  24
ENDBRANCH  19  20
ENDBRANCH  18  19
ENDBRANCH   4  18
TORSDOF 8
