REMARK  Name = ZINC64131275
REMARK  7 active torsions:
REMARK  status: ('A' for Active; 'I' for Inactive)
REMARK    1  A    between atoms: C_1  and  C_2
REMARK    2  A    between atoms: C_9  and  C_20
REMARK    3  A    between atoms: C_11  and  C_14
REMARK    4  A    between atoms: C_23  and  C_26
REMARK    5  A    between atoms: C_36  and  C_38
REMARK    6  A    between atoms: C_38  and  C_39
REMARK    7  A    between atoms: C_38  and  C_40
REMARK                            x       y       z     vdW  Elec       q    Type
REMARK                         _______ _______ _______ _____ _____    ______ ____
ROOT
ATOM      1  C   UNL     1      -1.389  -4.699   2.934  0.00  0.00    +0.055 C 
ATOM      2  N   UNL     1      -2.310  -3.891   3.267  0.00  0.00    -0.185 NA
ATOM      3  N   UNL     1      -3.418  -4.491   3.862  0.00  0.00    -0.185 N 
ATOM      4  C   UNL     1      -3.187  -5.944   3.932  0.00  0.00    +0.137 C 
ATOM      5  C   UNL     1      -1.794  -6.111   3.292  0.00  0.00    +0.083 C 
ATOM      6  C   UNL     1      -4.519  -3.849   4.300  0.00  0.00    +0.238 C 
ATOM      7  O   UNL     1      -5.426  -4.475   4.804  0.00  0.00    -0.274 OA
ENDROOT
BRANCH   1  16
ATOM      8  C   UNL     1       0.601   1.477   0.026  0.00  0.00    +0.044 C 
ATOM      9  C   UNL     1       0.453  -0.023   0.013  0.00  0.00    -0.050 A 
ATOM     10  C   UNL     1       0.453  -0.698  -1.205  0.00  0.00    +0.005 A 
ATOM     11  C   UNL     1       0.323  -2.052  -1.276  0.00  0.00    +0.024 A 
ATOM     12  C   UNL     1       0.185  -2.807  -0.097  0.00  0.00    +0.041 A 
ATOM     13  N   UNL     1       0.058  -4.136  -0.168  0.00  0.00    -0.284 N 
ATOM     14  C   UNL     1      -0.075  -4.913   0.889  0.00  0.00    +0.230 C 
ATOM     15  O   UNL     1      -0.186  -6.117   0.748  0.00  0.00    -0.274 OA
ATOM     16  C   UNL     1      -0.091  -4.311   2.275  0.00  0.00    +0.152 C 
ATOM     17  C   UNL     1       0.051  -2.804   2.381  0.00  0.00    -0.014 C 
ATOM     18  C   UNL     1       0.186  -2.094   1.185  0.00  0.00    +0.001 A 
ATOM     19  C   UNL     1       0.330  -0.690   1.192  0.00  0.00    +0.013 A 
ATOM     20  H   UNL     1       0.065  -4.551  -1.045  0.00  0.00    +0.155 HD
BRANCH  17  21
ATOM     21  C   UNL     1       0.048  -2.147   3.637  0.00  0.00    -0.020 A 
ATOM     22  C   UNL     1       1.054  -2.417   4.580  0.00  0.00    +0.008 A 
ATOM     23  C   UNL     1       1.041  -1.773   5.797  0.00  0.00    +0.001 A 
ATOM     24  C   UNL     1       0.041  -0.861   6.093  0.00  0.00    +0.000 A 
ATOM     25  C   UNL     1      -0.955  -0.587   5.170  0.00  0.00    +0.001 A 
ATOM     26  C   UNL     1      -0.958  -1.216   3.945  0.00  0.00    +0.008 A 
ENDBRANCH  17  21
ENDBRANCH   1  16
BRANCH   4  27
ATOM     27  C   UNL     1      -3.183  -6.412   5.364  0.00  0.00    -0.023 A 
ATOM     28  C   UNL     1      -2.599  -5.614   6.347  0.00  0.00    +0.008 A 
ATOM     29  C   UNL     1      -2.579  -6.008   7.649  0.00  0.00    +0.030 A 
ATOM     30  C   UNL     1      -3.155  -7.238   8.014  0.00  0.00    +0.089 A 
ATOM     31  C   UNL     1      -3.749  -8.050   7.015  0.00  0.00    +0.089 A 
ATOM     32  C   UNL     1      -3.754  -7.606   5.681  0.00  0.00    +0.035 A 
ATOM     33  N   UNL     1      -4.298  -9.221   7.356  0.00  0.00    -0.252 NA
ATOM     34  C   UNL     1      -4.282  -9.606   8.611  0.00  0.00    +0.131 A 
ATOM     35  C   UNL     1      -3.697  -8.806   9.595  0.00  0.00    +0.131 A 
ATOM     36  N   UNL     1      -3.151  -7.652   9.285  0.00  0.00    -0.252 NA
ENDBRANCH   4  27
BRANCH   6  37
ATOM     37  C   UNL     1      -4.622  -2.351   4.163  0.00  0.00    +0.071 C 
ATOM     38  C   UNL     1      -4.533  -1.967   2.685  0.00  0.00    +0.017 C 
ATOM     39  C   UNL     1      -5.960  -1.878   4.734  0.00  0.00    +0.017 C 
ENDBRANCH   6  37
TORSDOF 4
