REMARK  Name = ZINC08881764
REMARK  10 active torsions:
REMARK  status: ('A' for Active; 'I' for Inactive)
REMARK    1  A    between atoms: C_1  and  C_2
REMARK    2  A    between atoms: N_5  and  S_8
REMARK    3  A    between atoms: S_8  and  C_11
REMARK    4  A    between atoms: C_14  and  C_17
REMARK    5  A    between atoms: N_19  and  C_20
REMARK    6  A    between atoms: C_21  and  C_32
REMARK    7  A    between atoms: C_25  and  C_30
REMARK    8  A    between atoms: C_25  and  C_31
REMARK    9  A    between atoms: C_26  and  C_28
REMARK   10  A    between atoms: C_26  and  C_29
REMARK                            x       y       z     vdW  Elec       q    Type
REMARK                         _______ _______ _______ _____ _____    ______ ____
ROOT
ATOM      1  C   UNL     1      -6.375   2.341  -3.051  0.00  0.00    +0.249 C 
ATOM      2  O   UNL     1      -5.862   3.435  -3.182  0.00  0.00    -0.270 OA
ATOM      3  N   UNL     1      -5.872   1.462  -2.162  0.00  0.00    -0.275 N 
ATOM      4  H   UNL     1      -6.281   0.589  -2.058  0.00  0.00    +0.156 HD
ENDROOT
BRANCH   3   5
ATOM      5  C   UNL     1      -4.768   1.806  -1.396  0.00  0.00    +0.090 A 
ATOM      6  C   UNL     1      -4.113   1.043  -0.438  0.00  0.00    +0.084 A 
ATOM      7  C   UNL     1      -2.974   1.642   0.227  0.00  0.00    -0.021 A 
ATOM      8  C   UNL     1      -2.666   2.899  -0.168  0.00  0.00    -0.015 A 
ATOM      9  S   UNL     1      -3.873   3.290  -1.401  0.00  0.00    -0.078 S 
ATOM     10  C   UNL     1      -1.545   3.747   0.341  0.00  0.00    -0.041 C 
ATOM     11  C   UNL     1      -0.729   1.579   1.268  0.00  0.00    -0.069 C 
ATOM     12  C   UNL     1      -2.139   0.981   1.315  0.00  0.00    +0.024 C 
ATOM     13  C   UNL     1      -0.013   1.086   0.008  0.00  0.00    -0.010 C 
ATOM     14  C   UNL     1       0.047   1.048   2.488  0.00  0.00    -0.010 C 
ATOM     15  C   UNL     1      -2.154   4.999   1.004  0.00  0.00    -0.005 C 
ATOM     16  C   UNL     1      -0.673   4.212  -0.832  0.00  0.00    -0.005 C 
ATOM     17  N   UNL     1      -0.718   3.061   1.374  0.00  0.00    +0.389 N 
ATOM     18  H   UNL     1      -1.076   3.321   2.300  0.00  0.00    -0.084 HD
ATOM     19  H   UNL     1       0.252   3.384   1.279  0.00  0.00    -0.084 HD
BRANCH   6  20
ATOM     20  C   UNL     1      -4.557  -0.282  -0.125  0.00  0.00    +0.102 C 
ATOM     21  N   UNL     1      -4.910  -1.333   0.124  0.00  0.00    -0.191 NA
ENDBRANCH   6  20
ENDBRANCH   3   5
BRANCH   1  25
ATOM     22  C   UNL     1      -9.755   1.286  -5.398  0.00  0.00    +0.106 A 
ATOM     23  C   UNL     1      -9.173   2.533  -5.549  0.00  0.00    +0.029 A 
ATOM     24  C   UNL     1      -8.076   2.882  -4.790  0.00  0.00    +0.015 A 
ATOM     25  C   UNL     1      -7.551   1.974  -3.868  0.00  0.00    +0.037 A 
ATOM     26  C   UNL     1      -8.139   0.716  -3.725  0.00  0.00    +0.015 A 
ATOM     27  C   UNL     1      -9.240   0.382  -4.487  0.00  0.00    +0.029 A 
BRANCH  22  28
ATOM     28  S   UNL     1     -11.156   0.849  -6.372  0.00  0.00    +0.061 S 
ATOM     29  O   UNL     1     -11.847  -0.166  -5.656  0.00  0.00    -0.153 OA
ATOM     30  O   UNL     1     -11.779   2.067  -6.758  0.00  0.00    -0.153 OA
BRANCH  28  35
ATOM     31  C   UNL     1     -11.427  -1.680 -11.511  0.00  0.00    +0.007 C 
ATOM     32  C   UNL     1     -10.698  -1.102 -10.295  0.00  0.00    -0.012 C 
ATOM     33  C   UNL     1     -11.124  -1.863  -9.037  0.00  0.00    +0.020 C 
ATOM     34  C   UNL     1     -10.367  -1.305  -7.828  0.00  0.00    +0.110 C 
ATOM     35  N   UNL     1     -10.589   0.146  -7.760  0.00  0.00    -0.177 NA
ATOM     36  C   UNL     1     -10.303   0.961  -8.949  0.00  0.00    +0.110 C 
ATOM     37  C   UNL     1     -11.055   0.378 -10.144  0.00  0.00    +0.020 C 
ENDBRANCH  28  35
ENDBRANCH  22  28
ENDBRANCH   1  25
TORSDOF 5
