REMARK  Name = ZINC66337706
REMARK  2 active torsions:
REMARK  status: ('A' for Active; 'I' for Inactive)
REMARK    1  A    between atoms: C_1  and  C_2
REMARK    2  A    between atoms: C_3  and  C_13
REMARK                            x       y       z     vdW  Elec       q    Type
REMARK                         _______ _______ _______ _____ _____    ______ ____
ROOT
ATOM      1  C   UNL     1      -0.018   1.503   0.010  0.00  0.00    +0.087 C 
ATOM      2  C   UNL     1       0.002  -0.004   0.002  0.00  0.00    +0.118 A 
ATOM      3  C   UNL     1      -1.100  -0.804   0.003  0.00  0.00    +0.092 A 
ATOM      4  C   UNL     1      -0.586  -2.183  -0.008  0.00  0.00    +0.116 A 
ATOM      5  C   UNL     1      -1.173  -3.467  -0.013  0.00  0.00    +0.263 A 
ATOM      6  O   UNL     1      -2.384  -3.603  -0.008  0.00  0.00    -0.267 OA
ATOM      7  N   UNL     1      -0.351  -4.542  -0.023  0.00  0.00    -0.313 N 
ATOM      8  H   UNL     1      -0.724  -5.437  -0.027  0.00  0.00    +0.170 HD
ATOM      9  C   UNL     1       0.994  -4.369  -0.029  0.00  0.00    +0.203 A 
ATOM     10  N   UNL     1       1.546  -3.188  -0.024  0.00  0.00    -0.202 NA
ATOM     11  C   UNL     1       0.804  -2.070  -0.014  0.00  0.00    +0.235 A 
ATOM     12  O   UNL     1       1.107  -0.761  -0.013  0.00  0.00    -0.441 OA
ENDROOT
BRANCH   3  13
ATOM     13  C   UNL     1      -2.509  -0.379   0.013  0.00  0.00    +0.255 C 
ATOM     14  O   UNL     1      -3.097  -0.197  -1.036  0.00  0.00    -0.269 OA
ATOM     15  N   UNL     1      -3.148  -0.191   1.185  0.00  0.00    -0.267 N 
ATOM     16  C   UNL     1      -4.546   0.225   1.321  0.00  0.00    +0.119 C 
ATOM     17  C   UNL     1      -4.799   0.297   2.836  0.00  0.00    +0.056 C 
ATOM     18  C   UNL     1      -3.480  -0.097   3.462  0.00  0.00    -0.023 A 
ATOM     19  C   UNL     1      -2.575  -0.370   2.447  0.00  0.00    +0.040 A 
ATOM     20  C   UNL     1      -1.278  -0.763   2.783  0.00  0.00    +0.025 A 
ATOM     21  C   UNL     1      -0.907  -0.880   4.106  0.00  0.00    +0.017 A 
ATOM     22  C   UNL     1      -1.819  -0.610   5.111  0.00  0.00    +0.018 A 
ATOM     23  C   UNL     1      -3.103  -0.212   4.786  0.00  0.00    +0.020 A 
ATOM     24 BR   UNL     1      -1.307  -0.773   6.924  0.00  0.00    -0.050 Br
ENDBRANCH   3  13
TORSDOF 1
