REMARK  Name = ZINC30980291
REMARK  10 active torsions:
REMARK  status: ('A' for Active; 'I' for Inactive)
REMARK    1  A    between atoms: C_1  and  O_2
REMARK    2  A    between atoms: O_2  and  C_3
REMARK    3  A    between atoms: C_6  and  C_9
REMARK    4  A    between atoms: C_11  and  C_14
REMARK    5  A    between atoms: C_14  and  N_15
REMARK    6  A    between atoms: C_18  and  C_21
REMARK    7  A    between atoms: N_23  and  C_24
REMARK    8  A    between atoms: C_25  and  C_33
REMARK    9  A    between atoms: C_33  and  O_35
REMARK   10  A    between atoms: O_35  and  C_36
REMARK                            x       y       z     vdW  Elec       q    Type
REMARK                         _______ _______ _______ _____ _____    ______ ____
ROOT
ATOM      1  N   UNL     1      -3.536   0.488   9.593  0.00  0.00    +0.386 N 
ATOM      2  C   UNL     1      -3.084   1.883   9.529  0.00  0.00    -0.077 C 
ATOM      3  C   UNL     1      -3.035   2.338   8.068  0.00  0.00    -0.006 C 
ATOM      4  C   UNL     1      -2.075   1.435   7.289  0.00  0.00    +0.072 C 
ATOM      5  C   UNL     1      -2.541  -0.019   7.413  0.00  0.00    -0.006 C 
ATOM      6  C   UNL     1      -2.604  -0.405   8.892  0.00  0.00    -0.077 C 
ATOM      7  H   UNL     1      -4.508   0.426   9.082  0.00  0.00    -0.081 HD
ENDROOT
BRANCH   4   8
ATOM      8  C   UNL     1      -2.068   1.840   5.838  0.00  0.00    +0.221 C 
ATOM      9  O   UNL     1      -2.762   2.760   5.462  0.00  0.00    -0.275 OA
ATOM     10  N   UNL     1      -1.290   1.179   4.957  0.00  0.00    -0.279 N 
ATOM     11  H   UNL     1      -0.660   0.344   5.298  0.00  0.00    +0.155 HD
BRANCH  10  12
ATOM     12  C   UNL     1      -1.284   1.552   3.623  0.00  0.00    +0.086 A 
ATOM     13  C   UNL     1      -0.558   0.998   2.575  0.00  0.00    +0.091 A 
ATOM     14  C   UNL     1      -0.732   1.580   1.257  0.00  0.00    -0.021 A 
ATOM     15  C   UNL     1      -1.601   2.614   1.194  0.00  0.00    -0.004 A 
ATOM     16  S   UNL     1      -2.179   2.821   2.855  0.00  0.00    -0.077 S 
ATOM     17  C   UNL     1      -1.979   3.405  -0.021  0.00  0.00    +0.043 C 
ATOM     18  C   UNL     1      -0.956   3.111  -1.127  0.00  0.00    +0.005 C 
ATOM     19  C   UNL     1      -0.758   1.595  -1.227  0.00  0.00    +0.005 C 
ATOM     20  C   UNL     1      -0.013   1.086   0.008  0.00  0.00    +0.037 C 
BRANCH  13  21
ATOM     21  C   UNL     1       0.349  -0.130   2.793  0.00  0.00    +0.342 C 
ATOM     22  O   UNL     1      -0.062  -1.270   2.693  0.00  0.00    -0.245 OA
BRANCH  21  23
ATOM     23  O   UNL     1       1.642   0.095   3.105  0.00  0.00    -0.464 OA
ATOM     24  C   UNL     1       2.485  -1.071   3.307  0.00  0.00    +0.280 C 
ENDBRANCH  21  23
ENDBRANCH  13  21
ENDBRANCH  10  12
ENDBRANCH   4   8
BRANCH   1  25
ATOM     25  C   UNL     1      -3.728   0.060  10.985  0.00  0.00    +0.022 C 
BRANCH  25  28
ATOM     26  C   UNL     1      -4.848  -3.355  11.031  0.00  0.00    +0.202 A 
ATOM     27  N   UNL     1      -3.840  -2.453  11.002  0.00  0.00    -0.193 NA
ATOM     28  C   UNL     1      -4.419  -1.278  11.009  0.00  0.00    +0.211 A 
ATOM     29  O   UNL     1      -5.739  -1.490  11.047  0.00  0.00    -0.340 OA
ATOM     30  N   UNL     1      -5.968  -2.681  11.054  0.00  0.00    -0.056 NA
BRANCH  26  34
ATOM     31  C   UNL     1      -4.448  -7.589  11.042  0.00  0.00    +0.120 A 
ATOM     32  C   UNL     1      -5.710  -7.013  11.070  0.00  0.00    +0.046 A 
ATOM     33  C   UNL     1      -5.843  -5.640  11.066  0.00  0.00    +0.015 A 
ATOM     34  C   UNL     1      -4.708  -4.832  11.035  0.00  0.00    +0.023 A 
ATOM     35  C   UNL     1      -3.442  -5.413  11.002  0.00  0.00    +0.015 A 
ATOM     36  C   UNL     1      -3.315  -6.786  11.010  0.00  0.00    +0.046 A 
BRANCH  31  38
ATOM     37  C   UNL     1      -2.991  -9.468  11.015  0.00  0.00    +0.277 C 
ATOM     38  O   UNL     1      -4.320  -8.942  11.045  0.00  0.00    -0.495 OA
ENDBRANCH  31  38
ENDBRANCH  26  34
ENDBRANCH  25  28
ENDBRANCH   1  25
TORSDOF 8
