REMARK  Name = ZINC29826319
REMARK  7 active torsions:
REMARK  status: ('A' for Active; 'I' for Inactive)
REMARK    1  A    between atoms: C_2  and  C_3
REMARK    2  A    between atoms: C_3  and  S_4
REMARK    3  A    between atoms: S_4  and  C_5
REMARK    4  A    between atoms: C_10  and  N_11
REMARK    5  A    between atoms: C_12  and  C_14
REMARK    6  A    between atoms: C_14  and  N_15
REMARK    7  A    between atoms: C_19  and  C_22
REMARK                            x       y       z     vdW  Elec       q    Type
REMARK                         _______ _______ _______ _____ _____    ______ ____
ROOT
ATOM      1  N   UNL     1       7.932   1.485   1.181  0.00  0.00    +0.386 N 
ATOM      2  C   UNL     1       8.419   2.231   0.014  0.00  0.00    -0.078 C 
ATOM      3  C   UNL     1       7.961   1.530  -1.268  0.00  0.00    -0.018 C 
ATOM      4  C   UNL     1       6.432   1.458  -1.286  0.00  0.00    +0.009 C 
ATOM      5  C   UNL     1       5.948   0.719  -0.035  0.00  0.00    +0.059 C 
ATOM      6  C   UNL     1       6.464   1.444   1.211  0.00  0.00    -0.065 C 
ATOM      7  H   UNL     1       8.295   0.450   1.094  0.00  0.00    -0.081 HD
ENDROOT
BRANCH   5   8
ATOM      8  C   UNL     1       4.442   0.696  -0.015  0.00  0.00    +0.198 A 
ATOM      9  N   UNL     1       3.716  -0.382  -0.014  0.00  0.00    -0.213 NA
ATOM     10  C   UNL     1       2.403  -0.026   0.006  0.00  0.00    +0.110 A 
ATOM     11  C   UNL     1       1.207  -0.745   0.016  0.00  0.00    +0.031 A 
ATOM     12  C   UNL     1       0.006  -0.073   0.037  0.00  0.00    +0.002 A 
ATOM     13  C   UNL     1      -0.023   1.314   0.047  0.00  0.00    +0.004 A 
ATOM     14  C   UNL     1       1.151   2.038   0.037  0.00  0.00    +0.048 A 
ATOM     15  C   UNL     1       2.370   1.377   0.016  0.00  0.00    +0.155 A 
ATOM     16  O   UNL     1       3.658   1.785   0.002  0.00  0.00    -0.440 OA
ENDBRANCH   5   8
BRANCH   1  17
ATOM     17  C   UNL     1       8.468   2.050   2.427  0.00  0.00    +0.019 C 
BRANCH  17  19
ATOM     18  N   UNL     1      10.670   2.288   3.527  0.00  0.00    -0.286 N 
ATOM     19  C   UNL     1       9.960   1.847   2.470  0.00  0.00    +0.201 C 
ATOM     20  O   UNL     1      10.523   1.288   1.552  0.00  0.00    -0.278 OA
ATOM     21  H   UNL     1      10.176   2.875   4.315  0.00  0.00    +0.155 HD
BRANCH  18  27
ATOM     22  C   UNL     1      12.877   2.823   4.373  0.00  0.00    +0.029 A 
ATOM     23  C   UNL     1      14.231   2.531   4.463  0.00  0.00    +0.016 A 
ATOM     24  C   UNL     1      14.744   1.426   3.809  0.00  0.00    +0.001 A 
ATOM     25  C   UNL     1      13.912   0.610   3.065  0.00  0.00    +0.002 A 
ATOM     26  C   UNL     1      12.561   0.890   2.974  0.00  0.00    +0.024 A 
ATOM     27  C   UNL     1      12.038   1.999   3.622  0.00  0.00    +0.047 A 
BRANCH  22  28
ATOM     28  S   UNL     1      12.220   4.230   5.206  0.00  0.00    -0.119 S 
BRANCH  28  29
ATOM     29  C   UNL     1      13.660   4.967   6.026  0.00  0.00    +0.101 C 
BRANCH  29  31
ATOM     30  C   UNL     1      13.317   6.222   8.092  0.00  0.00    +0.005 C 
ATOM     31  C   UNL     1      13.231   6.196   6.785  0.00  0.00    -0.024 C 
ENDBRANCH  29  31
ENDBRANCH  28  29
ENDBRANCH  22  28
ENDBRANCH  18  27
ENDBRANCH  17  19
ENDBRANCH   1  17
TORSDOF 7
