REMARK  Name = ZINC41514542
REMARK  9 active torsions:
REMARK  status: ('A' for Active; 'I' for Inactive)
REMARK    1  A    between atoms: C_1  and  C_2
REMARK    2  A    between atoms: C_4  and  O_32
REMARK    3  A    between atoms: C_5  and  C_22
REMARK    4  A    between atoms: C_11  and  C_12
REMARK    5  A    between atoms: C_16  and  N_18
REMARK    6  A    between atoms: C_22  and  N_23
REMARK    7  A    between atoms: N_23  and  C_24
REMARK    8  A    between atoms: N_23  and  C_25
REMARK    9  A    between atoms: C_25  and  C_26
REMARK                            x       y       z     vdW  Elec       q    Type
REMARK                         _______ _______ _______ _____ _____    ______ ____
ROOT
ATOM      1  C   UNL     1      -0.085   1.509   0.016  0.00  0.00    +0.045 C 
ATOM      2  C   UNL     1      -0.073   0.002   0.006  0.00  0.00    -0.033 A 
ATOM      3  C   UNL     1      -0.095  -0.674  -1.181  0.00  0.00    +0.050 A 
ATOM      4  C   UNL     1      -0.083  -2.066  -1.193  0.00  0.00    +0.122 A 
ATOM      5  C   UNL     1      -0.050  -2.781  -0.006  0.00  0.00    +0.020 A 
ATOM      6  C   UNL     1      -0.028  -2.109   1.209  0.00  0.00    +0.145 A 
ATOM      7  C   UNL     1      -0.035  -0.704   1.208  0.00  0.00    +0.071 A 
ATOM      8  C   UNL     1       0.000  -0.288   2.622  0.00  0.00    +0.232 C 
ATOM      9  O   UNL     1       0.002   0.847   3.065  0.00  0.00    -0.283 OA
ATOM     10  C   UNL     1       0.031  -1.551   3.378  0.00  0.00    +0.176 C 
ATOM     11  C   UNL     1       0.069  -1.676   4.727  0.00  0.00    +0.058 C 
ATOM     12  O   UNL     1       0.004  -2.564   2.481  0.00  0.00    -0.451 OA
ENDROOT
BRANCH  11  13
ATOM     13  C   UNL     1      -0.018  -3.007   5.344  0.00  0.00    -0.019 A 
ATOM     14  C   UNL     1      -0.004  -4.156   4.545  0.00  0.00    +0.008 A 
ATOM     15  C   UNL     1      -0.085  -5.401   5.131  0.00  0.00    +0.003 A 
ATOM     16  C   UNL     1      -0.180  -5.516   6.508  0.00  0.00    +0.033 A 
ATOM     17  C   UNL     1      -0.194  -4.386   7.306  0.00  0.00    +0.127 A 
ATOM     18  C   UNL     1      -0.108  -3.134   6.735  0.00  0.00    +0.040 A 
BRANCH  17  19
ATOM     19  N   UNL     1      -0.297  -4.521   8.776  0.00  0.00    +0.056 N 
ATOM     20  O   UNL     1      -0.368  -5.619   9.278  0.00  0.00    -0.126 OA
ATOM     21  O   UNL     1      -0.309  -3.535   9.475  0.00  0.00    -0.126 OA
ENDBRANCH  17  19
ENDBRANCH  11  13
BRANCH   4  22
ATOM     22  O   UNL     1      -0.105  -2.729  -2.377  0.00  0.00    -0.506 OA
ATOM     23  H   UNL     1       0.771  -2.913  -2.741  0.00  0.00    +0.292 HD
ENDBRANCH   4  22
BRANCH   5  24
ATOM     24  C   UNL     1      -0.039  -4.288  -0.035  0.00  0.00    -0.035 C 
BRANCH  24  25
ATOM     25  N   UNL     1       1.349  -4.766  -0.076  0.00  0.00    +0.383 N 
ATOM     26  C   UNL     1       2.032  -4.396   1.171  0.00  0.00    -0.095 C 
ATOM     27  H   UNL     1       1.827  -4.345  -0.859  0.00  0.00    -0.081 HD
BRANCH  25  28
ATOM     28  C   UNL     1       1.359  -6.228  -0.224  0.00  0.00    -0.043 C 
BRANCH  28  29
ATOM     29  C   UNL     1       2.779  -6.706  -0.389  0.00  0.00    -0.064 A 
ATOM     30  C   UNL     1       3.334  -6.800  -1.651  0.00  0.00    +0.002 A 
ATOM     31  C   UNL     1       4.636  -7.239  -1.803  0.00  0.00    +0.000 A 
ATOM     32  C   UNL     1       5.383  -7.583  -0.692  0.00  0.00    +0.000 A 
ATOM     33  C   UNL     1       4.828  -7.488   0.570  0.00  0.00    +0.000 A 
ATOM     34  C   UNL     1       3.528  -7.045   0.722  0.00  0.00    +0.002 A 
ENDBRANCH  28  29
ENDBRANCH  25  28
ENDBRANCH  24  25
ENDBRANCH   5  24
TORSDOF 7
