REMARK  Name = ZINC02135730
REMARK  7 active torsions:
REMARK  status: ('A' for Active; 'I' for Inactive)
REMARK    1  A    between atoms: C_1  and  C_2
REMARK    2  A    between atoms: C_7  and  C_8
REMARK    3  A    between atoms: C_17  and  C_19
REMARK    4  A    between atoms: C_19  and  C_20
REMARK    5  A    between atoms: C_20  and  S_21
REMARK    6  A    between atoms: S_21  and  C_22
REMARK    7  A    between atoms: N_25  and  C_28
REMARK                            x       y       z     vdW  Elec       q    Type
REMARK                         _______ _______ _______ _____ _____    ______ ____
ROOT
ATOM      1  C   UNL     1       4.912   2.007  -0.034  0.00  0.00    +0.044 C 
ATOM      2  C   UNL     1       3.456   2.393  -0.018  0.00  0.00    -0.046 A 
ATOM      3  C   UNL     1       3.098   3.729  -0.009  0.00  0.00    +0.004 A 
ATOM      4  C   UNL     1       1.761   4.084   0.006  0.00  0.00    +0.005 A 
ATOM      5  C   UNL     1       0.789   3.108   0.010  0.00  0.00    -0.027 A 
ATOM      6  C   UNL     1       1.137   1.761   0.001  0.00  0.00    +0.039 A 
ATOM      7  C   UNL     1       2.486   1.413  -0.013  0.00  0.00    -0.026 A 
ATOM      8  C   UNL     1       2.886  -0.040  -0.023  0.00  0.00    +0.046 C 
ATOM      9  N   UNL     1      -0.011   0.966   0.007  0.00  0.00    -0.286 N 
ATOM     10  C   UNL     1      -1.139   1.702   0.016  0.00  0.00    +0.211 C 
ATOM     11  O   UNL     1      -2.277   1.284   0.019  0.00  0.00    -0.277 OA
ATOM     12  C   UNL     1      -0.713   3.145   0.024  0.00  0.00    +0.050 C 
ATOM     13  C   UNL     1      -1.246   3.885   1.256  0.00  0.00    +0.088 C 
ATOM     14  C   UNL     1      -1.560   5.319   0.744  0.00  0.00    +0.073 C 
ATOM     15  C   UNL     1      -1.175   5.300  -0.750  0.00  0.00    -0.057 C 
ATOM     16  C   UNL     1      -3.064   5.414   0.872  0.00  0.00    +0.224 C 
ATOM     17  O   UNL     1      -3.733   6.378   0.570  0.00  0.00    -0.275 OA
ATOM     18  N   UNL     1      -3.540   4.267   1.371  0.00  0.00    -0.239 N 
ATOM     19  C   UNL     1      -2.608   3.342   1.625  0.00  0.00    +0.225 C 
ATOM     20  O   UNL     1      -2.822   2.239   2.081  0.00  0.00    -0.275 OA
ATOM     21  H   UNL     1       0.002  -0.004   0.002  0.00  0.00    +0.155 HD
ATOM     22  N   UNL     1      -1.234   3.882  -1.113  0.00  0.00    +0.394 N 
ATOM     23  H   UNL     1      -2.205   3.604  -1.302  0.00  0.00    -0.083 HD
ATOM     24  H   UNL     1      -0.660   3.705  -1.945  0.00  0.00    -0.083 HD
ENDROOT
BRANCH  18  25
ATOM     25  C   UNL     1      -4.967   4.044   1.619  0.00  0.00    +0.084 C 
ATOM     26  C   UNL     1      -5.729   4.150   0.282  0.00  0.00    +0.023 C 
ATOM     27  C   UNL     1      -7.048   3.438   0.426  0.00  0.00    +0.002 C 
ATOM     28  C   UNL     1      -8.190   4.394   0.822  0.00  0.00    +0.000 C 
ATOM     29  C   UNL     1      -7.768   5.419   1.891  0.00  0.00    +0.000 C 
ATOM     30  C   UNL     1      -6.916   4.808   2.970  0.00  0.00    +0.002 C 
ATOM     31  C   UNL     1      -5.433   5.014   2.599  0.00  0.00    +0.023 C 
ENDBRANCH  18  25
BRANCH  15  32
ATOM     32  C   UNL     1      -2.170   6.127  -1.567  0.00  0.00    -0.004 C 
BRANCH  32  33
ATOM     33  C   UNL     1      -1.742   6.134  -3.036  0.00  0.00    +0.067 C 
BRANCH  33  34
ATOM     34  S   UNL     1      -2.922   7.115  -4.004  0.00  0.00    -0.164 S 
ATOM     35  C   UNL     1      -2.281   7.024  -5.699  0.00  0.00    +0.084 C 
ENDBRANCH  33  34
ENDBRANCH  32  33
ENDBRANCH  15  32
TORSDOF 4
