REMARK  Name = ZINC05754709
REMARK  7 active torsions:
REMARK  status: ('A' for Active; 'I' for Inactive)
REMARK    1  A    between atoms: C_3  and  C_8
REMARK    2  A    between atoms: C_5  and  O_7
REMARK    3  A    between atoms: C_8  and  O_10
REMARK    4  A    between atoms: O_10  and  C_11
REMARK    5  A    between atoms: C_11  and  C_12
REMARK    6  A    between atoms: N_14  and  C_15
REMARK    7  A    between atoms: C_18  and  N_22
REMARK                            x       y       z     vdW  Elec       q    Type
REMARK                         _______ _______ _______ _____ _____    ______ ____
ROOT
ATOM      1  C   UNL     1       4.680   5.674  -0.008  0.00  0.00    +0.255 C 
ATOM      2  O   UNL     1       3.553   6.121   0.002  0.00  0.00    -0.272 OA
ATOM      3  N   UNL     1       5.737   6.510  -0.020  0.00  0.00    -0.281 N 
ATOM      4  H   UNL     1       6.638   6.154   0.038  0.00  0.00    +0.155 HD
ENDROOT
BRANCH   3   5
ATOM      5  C   UNL     1       5.536   7.891  -0.117  0.00  0.00    +0.052 A 
ATOM      6  C   UNL     1       4.432   8.478   0.488  0.00  0.00    +0.027 A 
ATOM      7  C   UNL     1       4.236   9.841   0.391  0.00  0.00    +0.034 A 
ATOM      8  C   UNL     1       5.138  10.623  -0.307  0.00  0.00    +0.128 A 
ATOM      9  C   UNL     1       6.238  10.044  -0.911  0.00  0.00    +0.054 A 
ATOM     10  C   UNL     1       6.443   8.680  -0.814  0.00  0.00    +0.064 A 
ATOM     11 CL   UNL     1       7.829   7.954  -1.566  0.00  0.00    -0.082 Cl
BRANCH   8  12
ATOM     12  N   UNL     1       4.924  12.085  -0.409  0.00  0.00    +0.056 N 
ATOM     13  O   UNL     1       3.962  12.593   0.118  0.00  0.00    -0.126 OA
ATOM     14  O   UNL     1       5.711  12.770  -1.020  0.00  0.00    -0.126 OA
ENDBRANCH   8  12
ENDBRANCH   3   5
BRANCH   1  15
ATOM     15  C   UNL     1       4.899   4.183  -0.005  0.00  0.00    +0.328 C 
BRANCH  15  16
ATOM     16  O   UNL     1       3.635   3.516   0.009  0.00  0.00    -0.452 OA
BRANCH  16  17
ATOM     17  C   UNL     1       3.654   2.169   0.012  0.00  0.00    +0.340 C 
ATOM     18  O   UNL     1       4.714   1.576   0.004  0.00  0.00    -0.245 OA
BRANCH  17  21
ATOM     19  C   UNL     1      -0.018   1.381   0.049  0.00  0.00    +0.004 A 
ATOM     20  C   UNL     1       1.165   2.091   0.036  0.00  0.00    +0.015 A 
ATOM     21  C   UNL     1       2.385   1.412   0.026  0.00  0.00    +0.062 A 
ATOM     22  C   UNL     1       2.402   0.017   0.030  0.00  0.00    +0.060 A 
ATOM     23  C   UNL     1       1.209  -0.685   0.043  0.00  0.00    +0.118 A 
ATOM     24  C   UNL     1       0.000  -0.002   0.052  0.00  0.00    +0.045 A 
BRANCH  23  25
ATOM     25  O   UNL     1       1.220  -2.045   0.046  0.00  0.00    -0.507 OA
ATOM     26  H   UNL     1       1.232  -2.436   0.930  0.00  0.00    +0.292 HD
ENDBRANCH  23  25
ENDBRANCH  17  21
ENDBRANCH  16  17
ENDBRANCH  15  16
ENDBRANCH   1  15
TORSDOF 7
