REMARK  Name = ZINC63506627
REMARK  11 active torsions:
REMARK  status: ('A' for Active; 'I' for Inactive)
REMARK    1  A    between atoms: C_1  and  C_2
REMARK    2  A    between atoms: C_2  and  O_3
REMARK    3  A    between atoms: O_3  and  C_4
REMARK    4  A    between atoms: C_4  and  C_6
REMARK    5  A    between atoms: C_7  and  C_26
REMARK    6  A    between atoms: C_9  and  N_25
REMARK    7  A    between atoms: C_10  and  C_23
REMARK    8  A    between atoms: C_11  and  C_13
REMARK    9  A    between atoms: C_15  and  C_22
REMARK   10  A    between atoms: C_16  and  C_20
REMARK   11  A    between atoms: C_18  and  C_19
REMARK                            x       y       z     vdW  Elec       q    Type
REMARK                         _______ _______ _______ _____ _____    ______ ____
ROOT
ATOM      1  C   UNL     1       1.342  -2.095  -2.415  0.00  0.00    +0.083 C 
ATOM      2  C   UNL     1       1.384  -3.425  -2.563  0.00  0.00    +0.115 C 
ATOM      3  O   UNL     1       2.055  -4.007  -3.569  0.00  0.00    -0.445 OA
ATOM      4  C   UNL     1       2.389  -3.288  -4.657  0.00  0.00    +0.198 C 
ATOM      5  C   UNL     1       2.407  -1.934  -4.631  0.00  0.00    +0.095 C 
ATOM      6  C   UNL     1       2.047  -1.182  -3.381  0.00  0.00    +0.087 C 
ATOM      7  C   UNL     1       0.656  -4.295  -1.571  0.00  0.00    +0.087 C 
ENDROOT
BRANCH   6   8
ATOM      8  C   UNL     1       3.324  -0.645  -2.731  0.00  0.00    +0.074 C 
ATOM      9  C   UNL     1       4.053   0.291  -3.677  0.00  0.00    -0.027 C 
ATOM     10  C   UNL     1       5.247  -0.291  -3.891  0.00  0.00    +0.140 C 
ATOM     11  N   UNL     1       5.367  -1.464  -3.209  0.00  0.00    -0.245 NA
ATOM     12  C   UNL     1       4.323  -1.762  -2.510  0.00  0.00    +0.025 C 
ATOM     13  C   UNL     1       4.132  -2.981  -1.644  0.00  0.00    +0.061 C 
ATOM     14  C   UNL     1       3.550   1.590  -4.252  0.00  0.00    +0.042 C 
BRANCH  10  15
ATOM     15  C   UNL     1       6.268   0.257  -4.733  0.00  0.00    +0.119 C 
ATOM     16  N   UNL     1       7.077   0.691  -5.401  0.00  0.00    -0.189 NA
ENDBRANCH  10  15
ENDBRANCH   6   8
BRANCH   4  17
ATOM     17  N   UNL     1       2.719  -3.942  -5.818  0.00  0.00    -0.328 N 
ATOM     18  H   UNL     1       2.710  -4.912  -5.848  0.00  0.00    +0.145 HD
ATOM     19  H   UNL     1       2.962  -3.435  -6.608  0.00  0.00    +0.145 HD
ENDBRANCH   4  17
BRANCH   1  20
ATOM     20  C   UNL     1       0.616  -1.538  -1.334  0.00  0.00    +0.339 C 
ATOM     21  O   UNL     1      -0.518  -1.133  -1.508  0.00  0.00    -0.245 OA
BRANCH  20  22
ATOM     22  O   UNL     1       1.182  -1.456  -0.112  0.00  0.00    -0.462 OA
BRANCH  22  24
ATOM     23  C   UNL     1       1.234  -0.790   2.210  0.00  0.00    +0.048 C 
ATOM     24  C   UNL     1       0.437  -0.782   0.904  0.00  0.00    +0.229 C 
ENDBRANCH  22  24
ENDBRANCH  20  22
ENDBRANCH   1  20
BRANCH   5  25
ATOM     25  C   UNL     1       2.769  -1.209  -5.812  0.00  0.00    +0.100 C 
ATOM     26  N   UNL     1       3.056  -0.633  -6.749  0.00  0.00    -0.191 NA
ENDBRANCH   5  25
TORSDOF 7
