REMARK  Name = ZINC41006323
REMARK  12 active torsions:
REMARK  status: ('A' for Active; 'I' for Inactive)
REMARK    1  A    between atoms: C_1  and  C_2
REMARK    2  A    between atoms: C_5  and  N_9
REMARK    3  A    between atoms: C_6  and  C_8
REMARK    4  A    between atoms: C_10  and  C_12
REMARK    5  A    between atoms: C_14  and  C_35
REMARK    6  A    between atoms: C_16  and  C_24
REMARK    7  A    between atoms: C_18  and  C_22
REMARK    8  A    between atoms: C_18  and  O_23
REMARK    9  A    between atoms: N_26  and  C_27
REMARK   10  A    between atoms: C_30  and  C_34
REMARK   11  A    between atoms: C_32  and  C_33
REMARK   12  A    between atoms: C_36  and  C_40
REMARK                            x       y       z     vdW  Elec       q    Type
REMARK                         _______ _______ _______ _____ _____    ______ ____
ROOT
ATOM      1  C   UNL     1      -0.042  -6.654  -1.233  0.00  0.00    +0.150 C 
ATOM      2  C   UNL     1      -0.095  -6.659  -2.765  0.00  0.00    +0.060 C 
ATOM      3  C   UNL     1       1.163  -5.989  -3.319  0.00  0.00    +0.116 C 
ATOM      4  C   UNL     1       2.398  -6.803  -2.928  0.00  0.00    +0.082 C 
ATOM      5  C   UNL     1       2.546  -6.804  -1.403  0.00  0.00    +0.110 C 
ATOM      6  C   UNL     1       1.251  -7.304  -0.791  0.00  0.00    +0.149 C 
ATOM      7  O   UNL     1       1.249  -8.196   0.023  0.00  0.00    -0.296 OA
ATOM      8  C   UNL     1       2.241  -8.241  -3.427  0.00  0.00    +0.042 C 
ENDROOT
BRANCH   2   9
ATOM      9  C   UNL     1      -1.313  -5.901  -3.227  0.00  0.00    -0.002 A 
ATOM     10  C   UNL     1      -2.435  -6.371  -3.825  0.00  0.00    -0.040 A 
ATOM     11  C   UNL     1      -3.437  -5.481  -4.165  0.00  0.00    +0.011 A 
ATOM     12  C   UNL     1      -3.267  -4.165  -3.892  0.00  0.00    +0.046 A 
ATOM     13  S   UNL     1      -1.655  -4.152  -3.124  0.00  0.00    -0.101 S 
ATOM     14  C   UNL     1      -2.589  -7.842  -4.114  0.00  0.00    +0.044 C 
ENDBRANCH   2   9
BRANCH   1  16
ATOM     15  N   UNL     1      -1.183  -4.793  -0.070  0.00  0.00    -0.285 N 
ATOM     16  C   UNL     1      -0.094  -5.235  -0.729  0.00  0.00    +0.228 C 
ATOM     17  O   UNL     1       0.845  -4.490  -0.917  0.00  0.00    -0.275 OA
ATOM     18  H   UNL     1      -1.906  -5.406   0.137  0.00  0.00    +0.155 HD
BRANCH  15  23
ATOM     19  C   UNL     1      -1.537   0.647   1.498  0.00  0.00    +0.044 C 
ATOM     20  C   UNL     1      -1.443  -0.798   1.082  0.00  0.00    -0.050 A 
ATOM     21  C   UNL     1      -0.204  -1.396   0.940  0.00  0.00    +0.005 A 
ATOM     22  C   UNL     1      -0.114  -2.720   0.558  0.00  0.00    +0.024 A 
ATOM     23  C   UNL     1      -1.270  -3.451   0.317  0.00  0.00    +0.036 A 
ATOM     24  C   UNL     1      -2.513  -2.848   0.461  0.00  0.00    -0.029 A 
ATOM     25  C   UNL     1      -2.595  -1.525   0.848  0.00  0.00    +0.008 A 
ATOM     26  C   UNL     1      -3.769  -3.638   0.201  0.00  0.00    +0.045 C 
ENDBRANCH  15  23
ENDBRANCH   1  16
BRANCH   3  27
ATOM     27  C   UNL     1       1.070  -5.913  -4.821  0.00  0.00    +0.224 C 
ATOM     28  O   UNL     1       0.093  -6.351  -5.391  0.00  0.00    -0.275 OA
ATOM     29  N   UNL     1       2.072  -5.358  -5.531  0.00  0.00    -0.285 N 
ATOM     30  H   UNL     1       2.880  -5.065  -5.082  0.00  0.00    +0.155 HD
BRANCH  29  31
ATOM     31  C   UNL     1       1.947  -5.205  -6.917  0.00  0.00    +0.036 A 
ATOM     32  C   UNL     1       1.152  -6.081  -7.644  0.00  0.00    +0.024 A 
ATOM     33  C   UNL     1       1.030  -5.928  -9.011  0.00  0.00    +0.005 A 
ATOM     34  C   UNL     1       1.699  -4.903  -9.656  0.00  0.00    -0.050 A 
ATOM     35  C   UNL     1       2.492  -4.030  -8.934  0.00  0.00    +0.008 A 
ATOM     36  C   UNL     1       2.612  -4.174  -7.566  0.00  0.00    -0.029 A 
ATOM     37  C   UNL     1       3.471  -3.217  -6.779  0.00  0.00    +0.045 C 
ATOM     38  C   UNL     1       1.565  -4.739 -11.148  0.00  0.00    +0.044 C 
ENDBRANCH  29  31
ENDBRANCH   3  27
BRANCH   4  39
ATOM     39  O   UNL     1       3.561  -6.218  -3.519  0.00  0.00    -0.388 OA
ATOM     40  H   UNL     1       4.383  -6.684  -3.313  0.00  0.00    +0.210 HD
ENDBRANCH   4  39
TORSDOF 6
