REMARK  Name = ZINC38685881
REMARK  13 active torsions:
REMARK  status: ('A' for Active; 'I' for Inactive)
REMARK    1  A    between atoms: C_1  and  C_2
REMARK    2  A    between atoms: C_2  and  O_3
REMARK    3  A    between atoms: O_3  and  C_4
REMARK    4  A    between atoms: C_7  and  C_10
REMARK    5  A    between atoms: C_15  and  O_24
REMARK    6  A    between atoms: C_19  and  N_23
REMARK    7  A    between atoms: C_20  and  C_21
REMARK    8  A    between atoms: O_24  and  C_25
REMARK    9  A    between atoms: C_25  and  C_27
REMARK   10  A    between atoms: C_27  and  O_28
REMARK   11  A    between atoms: O_28  and  C_29
REMARK   12  A    between atoms: C_31  and  C_36
REMARK   13  A    between atoms: C_33  and  C_35
REMARK                            x       y       z     vdW  Elec       q    Type
REMARK                         _______ _______ _______ _____ _____    ______ ____
ROOT
ATOM      1  C   UNL     1       1.160  -6.021  -1.882  0.00  0.00    +0.098 C 
ATOM      2  C   UNL     1       0.458  -6.429  -3.150  0.00  0.00    +0.008 A 
ATOM      3  C   UNL     1      -0.917  -6.584  -3.147  0.00  0.00    +0.012 A 
ATOM      4  C   UNL     1      -1.577  -6.957  -4.301  0.00  0.00    +0.047 A 
ATOM      5  C   UNL     1      -0.862  -7.179  -5.469  0.00  0.00    +0.135 A 
ATOM      6  C   UNL     1       0.515  -7.025  -5.475  0.00  0.00    +0.093 A 
ATOM      7  C   UNL     1       1.178  -6.648  -4.314  0.00  0.00    +0.138 A 
ATOM      8  O   UNL     1       2.526  -6.502  -4.337  0.00  0.00    -0.441 OA
ATOM      9  C   UNL     1       3.221  -6.525  -3.188  0.00  0.00    +0.199 C 
ATOM     10  C   UNL     1       2.632  -6.303  -1.993  0.00  0.00    +0.098 C 
ENDROOT
BRANCH   1  14
ATOM     11  C   UNL     1       0.567  -1.841  -1.217  0.00  0.00    +0.121 A 
ATOM     12  C   UNL     1       0.123  -2.764  -0.281  0.00  0.00    +0.046 A 
ATOM     13  C   UNL     1       0.315  -4.114  -0.498  0.00  0.00    +0.008 A 
ATOM     14  C   UNL     1       0.951  -4.547  -1.647  0.00  0.00    -0.034 A 
ATOM     15  C   UNL     1       1.396  -3.630  -2.582  0.00  0.00    +0.008 A 
ATOM     16  C   UNL     1       1.200  -2.278  -2.372  0.00  0.00    +0.046 A 
BRANCH  11  17
ATOM     17  O   UNL     1       0.379  -0.512  -1.005  0.00  0.00    -0.492 OA
BRANCH  17  19
ATOM     18  C   UNL     1      -0.401   1.389   0.267  0.00  0.00    +0.048 C 
ATOM     19  C   UNL     1      -0.280  -0.135   0.206  0.00  0.00    +0.225 C 
ENDBRANCH  17  19
ENDBRANCH  11  17
ENDBRANCH   1  14
BRANCH   9  20
ATOM     20  N   UNL     1       4.570  -6.779  -3.231  0.00  0.00    -0.328 N 
ATOM     21  H   UNL     1       5.006  -6.940  -4.082  0.00  0.00    +0.145 HD
ATOM     22  H   UNL     1       5.086  -6.799  -2.409  0.00  0.00    +0.145 HD
ENDBRANCH   9  20
BRANCH  10  23
ATOM     23  C   UNL     1       3.431  -6.340  -0.805  0.00  0.00    +0.101 C 
ATOM     24  N   UNL     1       4.065  -6.369   0.138  0.00  0.00    -0.191 NA
ENDBRANCH  10  23
BRANCH   5  25
ATOM     25  O   UNL     1      -1.510  -7.547  -6.605  0.00  0.00    -0.423 OA
BRANCH  25  26
ATOM     26  C   UNL     1      -1.324  -8.796  -7.061  0.00  0.00    +0.350 C 
ATOM     27  O   UNL     1      -0.681  -9.587  -6.411  0.00  0.00    -0.247 OA
BRANCH  26  28
ATOM     28  C   UNL     1      -1.915  -9.212  -8.383  0.00  0.00    +0.349 C 
BRANCH  28  29
ATOM     29  O   UNL     1      -1.581 -10.576  -8.647  0.00  0.00    -0.481 OA
BRANCH  29  30
ATOM     30  C   UNL     1      -2.041 -11.111  -9.809  0.00  0.00    +0.122 A 
ATOM     31  C   UNL     1      -2.794 -10.336 -10.679  0.00  0.00    +0.049 A 
ATOM     32  C   UNL     1      -3.260 -10.882 -11.860  0.00  0.00    -0.047 A 
ATOM     33  C   UNL     1      -2.977 -12.199 -12.173  0.00  0.00    +0.007 A 
ATOM     34  C   UNL     1      -2.227 -12.972 -11.307  0.00  0.00    -0.047 A 
ATOM     35  C   UNL     1      -1.753 -12.430 -10.128  0.00  0.00    +0.049 A 
ATOM     36  C   UNL     1      -1.921 -14.407 -11.652  0.00  0.00    +0.044 C 
ATOM     37  C   UNL     1      -4.078 -10.042 -12.806  0.00  0.00    +0.044 C 
ENDBRANCH  29  30
ENDBRANCH  28  29
ENDBRANCH  26  28
ENDBRANCH  25  26
ENDBRANCH   5  25
TORSDOF 10
