REMARK  Name = ZINC14543946
REMARK  6 active torsions:
REMARK  status: ('A' for Active; 'I' for Inactive)
REMARK    1  A    between atoms: C_1  and  O_2
REMARK    2  A    between atoms: O_2  and  C_3
REMARK    3  A    between atoms: C_12  and  C_13
REMARK    4  A    between atoms: C_24  and  S_29
REMARK    5  A    between atoms: S_29  and  N_32
REMARK    6  A    between atoms: N_32  and  C_33
REMARK                            x       y       z     vdW  Elec       q    Type
REMARK                         _______ _______ _______ _____ _____    ______ ____
ROOT
ATOM      1  C   UNL     1       0.220  -2.538  -0.203  0.00  0.00    +0.109 C 
ATOM      2  C   UNL     1       1.026  -2.474  -1.466  0.00  0.00    +0.029 C 
ATOM      3  C   UNL     1       1.517  -1.044  -1.775  0.00  0.00    +0.033 C 
ATOM      4  C   UNL     1       1.649  -1.026  -3.283  0.00  0.00    -0.030 C 
ATOM      5  C   UNL     1       0.981  -2.012  -3.823  0.00  0.00    -0.023 C 
ATOM      6  C   UNL     1       0.281  -2.815  -2.754  0.00  0.00    +0.049 C 
ATOM      7  C   UNL     1      -1.162  -2.399  -2.731  0.00  0.00    -0.018 A 
ATOM      8  C   UNL     1      -1.859  -2.373  -3.931  0.00  0.00    +0.034 A 
ATOM      9  C   UNL     1      -3.184  -1.987  -3.962  0.00  0.00    +0.109 A 
ATOM     10  C   UNL     1      -3.828  -1.621  -2.794  0.00  0.00    +0.030 A 
ATOM     11  C   UNL     1      -3.145  -1.647  -1.596  0.00  0.00    +0.025 A 
ATOM     12  C   UNL     1      -1.810  -2.042  -1.562  0.00  0.00    +0.031 A 
ATOM     13  N   UNL     1      -1.156  -2.108  -0.347  0.00  0.00    -0.336 N 
ATOM     14  H   UNL     1      -1.639  -1.825   0.445  0.00  0.00    +0.147 HD
ENDROOT
BRANCH   1  24
ATOM     15  C   UNL     1       0.573  -0.343   0.920  0.00  0.00    +0.126 A 
ATOM     16  C   UNL     1       1.178   0.475   1.879  0.00  0.00    +0.046 A 
ATOM     17  C   UNL     1       2.097  -0.027   2.747  0.00  0.00    +0.012 A 
ATOM     18  C   UNL     1       2.447  -1.387   2.681  0.00  0.00    -0.017 A 
ATOM     19  C   UNL     1       3.393  -1.939   3.562  0.00  0.00    +0.008 A 
ATOM     20  C   UNL     1       3.708  -3.260   3.471  0.00  0.00    +0.001 A 
ATOM     21  C   UNL     1       3.106  -4.077   2.516  0.00  0.00    +0.001 A 
ATOM     22  C   UNL     1       2.186  -3.578   1.646  0.00  0.00    +0.009 A 
ATOM     23  C   UNL     1       1.835  -2.218   1.710  0.00  0.00    -0.009 A 
ATOM     24  C   UNL     1       0.885  -1.669   0.832  0.00  0.00    +0.022 A 
BRANCH  15  26
ATOM     25  C   UNL     1      -0.628   1.581   0.208  0.00  0.00    +0.277 C 
ATOM     26  O   UNL     1      -0.343   0.188   0.067  0.00  0.00    -0.495 OA
ENDBRANCH  15  26
ENDBRANCH   1  24
BRANCH   9  27
ATOM     27  S   UNL     1      -4.056  -1.960  -5.493  0.00  0.00    +0.072 S 
ATOM     28  O   UNL     1      -5.052  -0.953  -5.376  0.00  0.00    -0.150 OA
ATOM     29  O   UNL     1      -3.074  -1.945  -6.520  0.00  0.00    -0.150 OA
BRANCH  27  30
ATOM     30  N   UNL     1      -4.857  -3.404  -5.626  0.00  0.00    -0.216 N 
ATOM     31  H   UNL     1      -5.825  -3.419  -5.678  0.00  0.00    +0.174 HD
BRANCH  30  32
ATOM     32  C   UNL     1      -4.137  -4.601  -5.663  0.00  0.00    +0.048 A 
ATOM     33  C   UNL     1      -3.018  -4.715  -6.477  0.00  0.00    +0.024 A 
ATOM     34  C   UNL     1      -2.308  -5.899  -6.511  0.00  0.00    +0.002 A 
ATOM     35  C   UNL     1      -2.712  -6.971  -5.736  0.00  0.00    +0.000 A 
ATOM     36  C   UNL     1      -3.826  -6.861  -4.924  0.00  0.00    +0.002 A 
ATOM     37  C   UNL     1      -4.536  -5.678  -4.881  0.00  0.00    +0.024 A 
ENDBRANCH  30  32
ENDBRANCH  27  30
ENDBRANCH   9  27
TORSDOF 5
