REMARK  Name = ZINC40342352
REMARK  8 active torsions:
REMARK  status: ('A' for Active; 'I' for Inactive)
REMARK    1  A    between atoms: C_1  and  S_2
REMARK    2  A    between atoms: S_2  and  C_3
REMARK    3  A    between atoms: C_6  and  C_9
REMARK    4  A    between atoms: C_12  and  C_28
REMARK    5  A    between atoms: N_19  and  C_20
REMARK    6  A    between atoms: C_20  and  C_21
REMARK    7  A    between atoms: C_21  and  C_22
REMARK    8  A    between atoms: C_22  and  N_23
REMARK                            x       y       z     vdW  Elec       q    Type
REMARK                         _______ _______ _______ _____ _____    ______ ____
ROOT
ATOM      1  C   UNL     1       2.901  -1.397  -5.106  0.00  0.00    +0.141 C 
ATOM      2  C   UNL     1       4.318  -1.801  -4.802  0.00  0.00    +0.035 A 
ATOM      3  C   UNL     1       5.524  -1.453  -4.284  0.00  0.00    +0.072 A 
ATOM      4  N   UNL     1       6.340  -2.539  -4.428  0.00  0.00    -0.276 N 
ATOM      5  N   UNL     1       5.698  -3.498  -4.994  0.00  0.00    -0.168 NA
ATOM      6  H   UNL     1       7.267  -2.580  -4.146  0.00  0.00    +0.189 HD
ATOM      7  C   UNL     1       4.459  -3.132  -5.255  0.00  0.00    +0.153 A 
ATOM      8  C   UNL     1       3.167  -3.553  -5.828  0.00  0.00    +0.268 C 
ATOM      9  O   UNL     1       2.946  -4.648  -6.309  0.00  0.00    -0.268 OA
ATOM     10  N   UNL     1       2.268  -2.557  -5.744  0.00  0.00    -0.285 N 
ENDROOT
BRANCH   3  11
ATOM     11  C   UNL     1       5.885  -0.151  -3.681  0.00  0.00    +0.000 A 
ATOM     12  C   UNL     1       5.506   1.038  -4.304  0.00  0.00    +0.011 A 
ATOM     13  C   UNL     1       5.845   2.249  -3.737  0.00  0.00    +0.020 A 
ATOM     14  C   UNL     1       6.560   2.286  -2.552  0.00  0.00    +0.041 A 
ATOM     15  C   UNL     1       6.938   1.109  -1.929  0.00  0.00    +0.020 A 
ATOM     16  C   UNL     1       6.600  -0.108  -2.483  0.00  0.00    +0.011 A 
ATOM     17 CL   UNL     1       6.984   3.814  -1.845  0.00  0.00    -0.084 Cl
ENDBRANCH   3  11
BRANCH   1  21
ATOM     18  C   UNL     1       0.848  -0.411  -1.489  0.00  0.00    +0.008 A 
ATOM     19  C   UNL     1       1.315   0.599  -2.322  0.00  0.00    +0.015 A 
ATOM     20  C   UNL     1       1.978   0.276  -3.490  0.00  0.00    +0.007 A 
ATOM     21  C   UNL     1       2.178  -1.049  -3.830  0.00  0.00    -0.022 A 
ATOM     22  C   UNL     1       1.714  -2.056  -3.004  0.00  0.00    +0.007 A 
ATOM     23  C   UNL     1       1.056  -1.742  -1.831  0.00  0.00    +0.015 A 
BRANCH  18  25
ATOM     24  C   UNL     1      -0.022   1.810   0.012  0.00  0.00    +0.090 C 
ATOM     25  S   UNL     1       0.002  -0.004   0.002  0.00  0.00    -0.129 S 
ENDBRANCH  18  25
ENDBRANCH   1  21
BRANCH  10  26
ATOM     26  C   UNL     1       0.881  -2.618  -6.213  0.00  0.00    +0.111 C 
BRANCH  26  27
ATOM     27  C   UNL     1       0.815  -2.154  -7.670  0.00  0.00    +0.040 C 
BRANCH  27  28
ATOM     28  C   UNL     1      -0.633  -2.218  -8.159  0.00  0.00    +0.124 C 
BRANCH  28  29
ATOM     29  N   UNL     1      -0.697  -1.774  -9.554  0.00  0.00    -0.338 N 
ATOM     30  C   UNL     1      -0.887  -0.491  -9.990  0.00  0.00    +0.104 A 
ATOM     31  C   UNL     1      -0.878  -0.531 -11.336  0.00  0.00    +0.101 A 
ATOM     32  N   UNL     1      -0.689  -1.804 -11.712  0.00  0.00    -0.352 N 
ATOM     33  C   UNL     1      -0.575  -2.554 -10.650  0.00  0.00    +0.173 A 
ATOM     34  H   UNL     1      -0.641  -2.118 -12.629  0.00  0.00    +0.166 HD
ENDBRANCH  28  29
ENDBRANCH  27  28
ENDBRANCH  26  27
ENDBRANCH  10  26
TORSDOF 7
