REMARK  Name = ZINC66731253
REMARK  6 active torsions:
REMARK  status: ('A' for Active; 'I' for Inactive)
REMARK    1  A    between atoms: C_1  and  C_2
REMARK    2  A    between atoms: C_4  and  N_9
REMARK    3  A    between atoms: C_6  and  C_8
REMARK    4  A    between atoms: C_13  and  O_16
REMARK    5  A    between atoms: O_16  and  C_17
REMARK    6  A    between atoms: C_17  and  C_19
REMARK                            x       y       z     vdW  Elec       q    Type
REMARK                         _______ _______ _______ _____ _____    ______ ____
ROOT
ATOM      1  N   UNL     1       0.030  -2.832  -2.322  0.00  0.00    -0.312 N 
ATOM      2  C   UNL     1       0.044  -4.300  -2.279  0.00  0.00    +0.107 C 
ATOM      3  C   UNL     1       1.214  -4.807  -3.129  0.00  0.00    +0.023 C 
ATOM      4  C   UNL     1       1.108  -4.220  -4.538  0.00  0.00    +0.048 C 
ATOM      5  C   UNL     1       1.190  -2.693  -4.464  0.00  0.00    +0.194 C 
ATOM      6  C   UNL     1       0.014  -2.163  -3.630  0.00  0.00    +0.151 C 
ENDROOT
BRANCH   1  10
ATOM      7  C   UNL     1      -0.452   1.464   0.034  0.00  0.00    +0.063 C 
ATOM      8  C   UNL     1      -0.204  -0.023   0.013  0.00  0.00    +0.017 A 
ATOM      9  C   UNL     1      -0.210  -0.716  -1.181  0.00  0.00    +0.064 A 
ATOM     10  C   UNL     1       0.026  -2.092  -1.150  0.00  0.00    +0.125 A 
ATOM     11  N   UNL     1       0.245  -2.681   0.022  0.00  0.00    -0.220 NA
ATOM     12  C   UNL     1       0.241  -1.980   1.137  0.00  0.00    +0.106 A 
ATOM     13  N   UNL     1       0.028  -0.680   1.141  0.00  0.00    -0.347 N 
ATOM     14  C   UNL     1       0.495  -2.684   2.445  0.00  0.00    +0.086 C 
ATOM     15  H   UNL     1       0.036  -0.197   1.982  0.00  0.00    +0.167 HD
ENDBRANCH   1  10
BRANCH   5  16
ATOM     16  O   UNL     1       1.122  -2.147  -5.783  0.00  0.00    -0.456 OA
BRANCH  16  17
ATOM     17  C   UNL     1       2.289  -1.974  -6.434  0.00  0.00    +0.345 C 
ATOM     18  O   UNL     1       3.337  -2.277  -5.896  0.00  0.00    -0.245 OA
BRANCH  17  19
ATOM     19  C   UNL     1       2.296  -1.417  -7.794  0.00  0.00    +0.123 A 
ATOM     20  C   UNL     1       3.494  -1.237  -8.482  0.00  0.00    +0.025 A 
ATOM     21  C   UNL     1       3.467  -0.705  -9.774  0.00  0.00    -0.027 A 
ATOM     22  C   UNL     1       2.282  -0.370 -10.348  0.00  0.00    +0.022 A 
ATOM     23  N   UNL     1       1.112  -0.545  -9.678  0.00  0.00    -0.325 N 
ATOM     24  H   UNL     1       0.278  -0.298 -10.108  0.00  0.00    +0.169 HD
ATOM     25  C   UNL     1       1.083  -1.058  -8.436  0.00  0.00    +0.263 A 
ATOM     26  O   UNL     1       0.018  -1.209  -7.861  0.00  0.00    -0.267 OA
ATOM     27  C   UNL     1       2.519   0.180 -11.741  0.00  0.00    +0.054 C 
ATOM     28  C   UNL     1       4.018   0.545 -11.780  0.00  0.00    +0.011 C 
ATOM     29  C   UNL     1       4.609  -0.413 -10.724  0.00  0.00    +0.037 C 
ENDBRANCH  17  19
ENDBRANCH  16  17
ENDBRANCH   5  16
TORSDOF 4
