REMARK  Name = ZINC12418194
REMARK  9 active torsions:
REMARK  status: ('A' for Active; 'I' for Inactive)
REMARK    1  A    between atoms: C_1  and  C_2
REMARK    2  A    between atoms: C_2  and  C_3
REMARK    3  A    between atoms: C_3  and  C_31
REMARK    4  A    between atoms: N_4  and  N_5
REMARK    5  A    between atoms: C_6  and  C_8
REMARK    6  A    between atoms: C_8  and  C_10
REMARK    7  A    between atoms: C_8  and  N_22
REMARK    8  A    between atoms: C_23  and  C_25
REMARK    9  A    between atoms: C_31  and  C_32
REMARK                            x       y       z     vdW  Elec       q    Type
REMARK                         _______ _______ _______ _____ _____    ______ ____
ROOT
ATOM      1  C   UNL     1       6.210  -1.409  -2.205  0.00  0.00    +0.212 C 
ENDROOT
BRANCH   1   2
ATOM      2  C   UNL     1       6.027  -1.891  -0.788  0.00  0.00    +0.099 A 
ATOM      3  C   UNL     1       6.905  -2.930  -0.251  0.00  0.00    +0.013 A 
ATOM      4  C   UNL     1       7.924  -3.502  -1.015  0.00  0.00    +0.010 A 
ATOM      5  C   UNL     1       8.718  -4.471  -0.467  0.00  0.00    +0.001 A 
ATOM      6  C   UNL     1       8.527  -4.894   0.842  0.00  0.00    +0.001 A 
ATOM      7  C   UNL     1       7.531  -4.347   1.620  0.00  0.00    +0.014 A 
ATOM      8  C   UNL     1       6.708  -3.358   1.082  0.00  0.00    +0.050 A 
ATOM      9  C   UNL     1       5.628  -2.736   1.859  0.00  0.00    +0.272 A 
ATOM     10  O   UNL     1       5.420  -3.072   3.011  0.00  0.00    -0.266 OA
ATOM     11  N   UNL     1       4.872  -1.785   1.273  0.00  0.00    -0.242 N 
ATOM     12  H   UNL     1       4.158  -1.370   1.781  0.00  0.00    +0.192 HD
ATOM     13  N   UNL     1       5.094  -1.379  -0.043  0.00  0.00    -0.173 NA
ENDBRANCH   1   2
BRANCH   1  15
ATOM     14  N   UNL     1       8.517  -0.605  -1.823  0.00  0.00    -0.205 N 
ATOM     15  C   UNL     1       7.264  -0.333  -2.238  0.00  0.00    +0.259 C 
ATOM     16  O   UNL     1       6.985   0.777  -2.639  0.00  0.00    -0.272 OA
ATOM     17  H   UNL     1       8.740  -1.492  -1.502  0.00  0.00    +0.177 HD
BRANCH  14  19
ATOM     18  C   UNL     1      10.661   0.167  -1.372  0.00  0.00    +0.041 C 
ATOM     19  N   UNL     1       9.497   0.396  -1.853  0.00  0.00    -0.189 NA
BRANCH  18  21
ATOM     20  C   UNL     1      11.530   1.984   0.075  0.00  0.00    +0.010 C 
ATOM     21  C   UNL     1      11.670   1.282  -1.277  0.00  0.00    +0.049 C 
ENDBRANCH  18  21
BRANCH  18  22
ATOM     22  C   UNL     1      11.022  -1.218  -0.899  0.00  0.00    +0.087 C 
BRANCH  22  23
ATOM     23  C   UNL     1      11.665  -1.982  -2.028  0.00  0.00    -0.042 A 
ATOM     24  C   UNL     1      10.885  -2.735  -2.886  0.00  0.00    +0.004 A 
ATOM     25  C   UNL     1      11.474  -3.432  -3.924  0.00  0.00    +0.000 A 
ATOM     26  C   UNL     1      12.845  -3.385  -4.098  0.00  0.00    +0.000 A 
ATOM     27  C   UNL     1      13.625  -2.637  -3.236  0.00  0.00    +0.000 A 
ATOM     28  C   UNL     1      13.035  -1.935  -2.201  0.00  0.00    +0.004 A 
ENDBRANCH  22  23
ENDBRANCH  18  22
ENDBRANCH  14  19
ENDBRANCH   1  15
BRANCH   1  29
ATOM     29  N   UNL     1       4.943  -0.867  -2.703  0.00  0.00    -0.295 N 
ATOM     30  C   UNL     1       4.021  -1.692  -3.239  0.00  0.00    +0.245 C 
ATOM     31  O   UNL     1       4.241  -2.886  -3.309  0.00  0.00    -0.270 OA
ATOM     32  H   UNL     1       4.768   0.085  -2.648  0.00  0.00    +0.150 HD
BRANCH  30  33
ATOM     33  C   UNL     1       2.743  -1.145  -3.742  0.00  0.00    +0.037 A 
ATOM     34  C   UNL     1       1.787  -1.997  -4.298  0.00  0.00    +0.013 A 
ATOM     35  C   UNL     1       0.596  -1.480  -4.765  0.00  0.00    +0.001 A 
ATOM     36  C   UNL     1       0.349  -0.121  -4.683  0.00  0.00    +0.000 A 
ATOM     37  C   UNL     1       1.293   0.728  -4.134  0.00  0.00    +0.001 A 
ATOM     38  C   UNL     1       2.487   0.225  -3.663  0.00  0.00    +0.013 A 
ENDBRANCH  30  33
ENDBRANCH   1  29
TORSDOF 8
