REMARK  Name = ZINC18248358
REMARK  9 active torsions:
REMARK  status: ('A' for Active; 'I' for Inactive)
REMARK    1  A    between atoms: C_1  and  C_2
REMARK    2  A    between atoms: C_6  and  C_13
REMARK    3  A    between atoms: C_13  and  O_14
REMARK    4  A    between atoms: O_14  and  C_15
REMARK    5  A    between atoms: C_15  and  C_17
REMARK    6  A    between atoms: C_17  and  C_19
REMARK    7  A    between atoms: C_17  and  N_30
REMARK    8  A    between atoms: C_19  and  C_20
REMARK    9  A    between atoms: C_31  and  C_33
REMARK                            x       y       z     vdW  Elec       q    Type
REMARK                         _______ _______ _______ _____ _____    ______ ____
ROOT
ATOM      1  C   UNL     1      -4.990   1.630   0.034  0.00  0.00    +0.186 C 
ENDROOT
BRANCH   1   2
ATOM      2  N   UNL     1      -3.616   2.137   0.030  0.00  0.00    -0.298 N 
ATOM      3  C   UNL     1      -2.580   1.276   0.021  0.00  0.00    +0.251 C 
ATOM      4  O   UNL     1      -2.786   0.076   0.015  0.00  0.00    -0.270 OA
ATOM      5  H   UNL     1      -3.452   3.093   0.035  0.00  0.00    +0.150 HD
BRANCH   3   6
ATOM      6  C   UNL     1      -1.205   1.783   0.017  0.00  0.00    +0.074 A 
ATOM      7  C   UNL     1      -0.013   1.076   0.008  0.00  0.00    +0.021 A 
ATOM      8  C   UNL     1       1.149   1.808   0.001  0.00  0.00    +0.008 A 
ATOM      9  C   UNL     1       1.077   3.165   0.008  0.00  0.00    +0.046 A 
ATOM     10  S   UNL     1      -0.629   3.471   0.026  0.00  0.00    -0.092 S 
ENDBRANCH   3   6
ENDBRANCH   1   2
BRANCH   1  11
ATOM     11  C   UNL     1      -5.210   0.783   1.261  0.00  0.00    +0.328 C 
ATOM     12  O   UNL     1      -4.264   0.320   1.852  0.00  0.00    -0.249 OA
BRANCH  11  13
ATOM     13  O   UNL     1      -6.457   0.544   1.697  0.00  0.00    -0.459 OA
BRANCH  13  14
ATOM     14  C   UNL     1      -6.593  -0.280   2.884  0.00  0.00    +0.268 C 
BRANCH  14  20
ATOM     15  C   UNL     1      -9.769  -3.514   7.750  0.00  0.00    +0.044 C 
ATOM     16  C   UNL     1      -9.321  -2.706   6.560  0.00  0.00    -0.047 A 
ATOM     17  C   UNL     1      -7.967  -2.584   6.283  0.00  0.00    +0.004 A 
ATOM     18  C   UNL     1      -7.541  -1.856   5.208  0.00  0.00    +0.012 A 
ATOM     19  C   UNL     1      -8.478  -1.233   4.378  0.00  0.00    +0.024 A 
ATOM     20  C   UNL     1      -8.054  -0.438   3.221  0.00  0.00    +0.007 A 
ATOM     21  C   UNL     1      -9.012   0.146   2.458  0.00  0.00    +0.099 A 
ATOM     22  C   UNL     1     -10.373  -0.018   2.795  0.00  0.00    +0.338 A 
ATOM     23  O   UNL     1     -11.224   0.511   2.103  0.00  0.00    -0.245 OA
ATOM     24  O   UNL     1     -10.754  -0.742   3.859  0.00  0.00    -0.422 OA
ATOM     25  C   UNL     1      -9.851  -1.349   4.658  0.00  0.00    +0.140 A 
ATOM     26  C   UNL     1     -10.261  -2.094   5.756  0.00  0.00    +0.050 A 
ENDBRANCH  14  20
ENDBRANCH  13  14
ENDBRANCH  11  13
ENDBRANCH   1  11
BRANCH   1  27
ATOM     27  C   UNL     1      -5.225   0.784  -1.219  0.00  0.00    +0.071 C 
BRANCH  27  28
ATOM     28  C   UNL     1      -5.126   1.659  -2.442  0.00  0.00    -0.020 A 
ATOM     29  C   UNL     1      -6.145   2.251  -3.084  0.00  0.00    +0.087 A 
ATOM     30  N   UNL     1      -5.671   2.966  -4.151  0.00  0.00    -0.360 N 
ATOM     31  H   UNL     1      -6.219   3.480  -4.765  0.00  0.00    +0.165 HD
ATOM     32  C   UNL     1      -4.301   2.848  -4.222  0.00  0.00    +0.047 A 
ATOM     33  C   UNL     1      -3.899   2.029  -3.152  0.00  0.00    +0.003 A 
ATOM     34  C   UNL     1      -2.548   1.727  -2.975  0.00  0.00    +0.010 A 
ATOM     35  C   UNL     1      -1.620   2.239  -3.838  0.00  0.00    +0.001 A 
ATOM     36  C   UNL     1      -2.011   3.053  -4.893  0.00  0.00    +0.002 A 
ATOM     37  C   UNL     1      -3.340   3.358  -5.088  0.00  0.00    +0.026 A 
ENDBRANCH  27  28
ENDBRANCH   1  27
TORSDOF 8
