REMARK  Name = ZINC38038982
REMARK  7 active torsions:
REMARK  status: ('A' for Active; 'I' for Inactive)
REMARK    1  A    between atoms: C_1  and  C_2
REMARK    2  A    between atoms: C_2  and  C_4
REMARK    3  A    between atoms: C_2  and  N_12
REMARK    4  A    between atoms: C_7  and  O_11
REMARK    5  A    between atoms: C_9  and  O_10
REMARK    6  A    between atoms: N_12  and  C_13
REMARK    7  A    between atoms: C_13  and  C_14
REMARK                            x       y       z     vdW  Elec       q    Type
REMARK                         _______ _______ _______ _____ _____    ______ ____
ROOT
ATOM      1  C   UNL     1      -0.019   1.526   0.010  0.00  0.00    -0.009 C 
ATOM      2  C   UNL     1       0.002  -0.004   0.002  0.00  0.00    -0.040 C 
ENDROOT
BRANCH   2   3
ATOM      3  C   UNL     1      -1.412  -0.526   0.013  0.00  0.00    -0.020 A 
ATOM      4  C   UNL     1      -2.014  -0.864   1.210  0.00  0.00    +0.009 A 
ATOM      5  C   UNL     1      -3.310  -1.342   1.223  0.00  0.00    +0.046 A 
ATOM      6  C   UNL     1      -4.010  -1.484   0.033  0.00  0.00    +0.120 A 
ATOM      7  C   UNL     1      -3.409  -1.146  -1.169  0.00  0.00    +0.091 A 
ATOM      8  C   UNL     1      -2.110  -0.661  -1.179  0.00  0.00    +0.122 A 
BRANCH   8   9
ATOM      9  O   UNL     1      -1.519  -0.323  -2.355  0.00  0.00    -0.506 OA
ATOM     10  H   UNL     1      -1.044  -1.050  -2.780  0.00  0.00    +0.292 HD
ENDBRANCH   8   9
BRANCH   6  11
ATOM     11  O   UNL     1      -5.285  -1.956   0.047  0.00  0.00    -0.507 OA
ATOM     12  H   UNL     1      -5.958  -1.266   0.131  0.00  0.00    +0.292 HD
ENDBRANCH   6  11
ENDBRANCH   2   3
BRANCH   2  13
ATOM     13  N   UNL     1       0.713  -0.491   1.192  0.00  0.00    +0.386 N 
ATOM     14  H   UNL     1       0.290  -0.099   2.020  0.00  0.00    -0.085 HD
ATOM     15  H   UNL     1       0.655  -1.497   1.230  0.00  0.00    -0.085 HD
BRANCH  13  16
ATOM     16  C   UNL     1       2.122  -0.083   1.122  0.00  0.00    -0.045 C 
BRANCH  16  17
ATOM     17  C   UNL     1       2.851  -0.582   2.343  0.00  0.00    -0.048 A 
ATOM     18  C   UNL     1       3.094   0.274   3.400  0.00  0.00    +0.041 A 
ATOM     19  C   UNL     1       3.764  -0.184   4.522  0.00  0.00    +0.124 A 
ATOM     20  C   UNL     1       4.189  -1.501   4.583  0.00  0.00    +0.039 A 
ATOM     21  C   UNL     1       3.945  -2.356   3.525  0.00  0.00    +0.018 A 
ATOM     22  C   UNL     1       3.271  -1.898   2.407  0.00  0.00    +0.019 A 
ATOM     23 BR   UNL     1       2.930  -3.071   0.964  0.00  0.00    -0.050 Br
ATOM     24  F   UNL     1       4.003   0.652   5.556  0.00  0.00    -0.205 F 
ENDBRANCH  16  17
ENDBRANCH  13  16
ENDBRANCH   2  13
TORSDOF 6
