REMARK  Name = ZINC39711543
REMARK  14 active torsions:
REMARK  status: ('A' for Active; 'I' for Inactive)
REMARK    1  A    between atoms: C_1  and  C_2
REMARK    2  A    between atoms: C_2  and  O_3
REMARK    3  A    between atoms: O_3  and  C_4
REMARK    4  A    between atoms: C_11  and  C_16
REMARK    5  A    between atoms: C_16  and  C_18
REMARK    6  A    between atoms: C_16  and  N_28
REMARK    7  A    between atoms: N_23  and  C_24
REMARK    8  A    between atoms: C_24  and  C_25
REMARK    9  A    between atoms: C_24  and  C_26
REMARK   10  A    between atoms: C_24  and  C_27
REMARK   11  A    between atoms: N_28  and  C_29
REMARK   12  A    between atoms: N_28  and  C_35
REMARK   13  A    between atoms: C_29  and  C_30
REMARK   14  A    between atoms: C_35  and  C_36
REMARK                            x       y       z     vdW  Elec       q    Type
REMARK                         _______ _______ _______ _____ _____    ______ ____
ROOT
ATOM      1  C   UNL     1       3.608  -6.159   3.781  0.00  0.00    -0.008 C 
ENDROOT
BRANCH   1   9
ATOM      2  C   UNL     1       0.174  -5.646   8.474  0.00  0.00    +0.121 A 
ATOM      3  C   UNL     1      -0.041  -4.285   8.226  0.00  0.00    +0.047 A 
ATOM      4  C   UNL     1       0.307  -3.692   7.056  0.00  0.00    +0.027 A 
ATOM      5  C   UNL     1       0.908  -4.438   6.025  0.00  0.00    +0.041 A 
ATOM      6  N   UNL     1       1.244  -3.842   4.881  0.00  0.00    -0.285 N 
ATOM      7  C   UNL     1       1.812  -4.482   3.873  0.00  0.00    +0.223 C 
ATOM      8  O   UNL     1       2.097  -3.883   2.853  0.00  0.00    -0.275 OA
ATOM      9  C   UNL     1       2.106  -5.960   3.993  0.00  0.00    +0.088 C 
ATOM     10  C   UNL     1       1.726  -6.643   5.292  0.00  0.00    -0.006 C 
ATOM     11  C   UNL     1       1.147  -5.873   6.257  0.00  0.00    -0.004 A 
ATOM     12  C   UNL     1       0.754  -6.452   7.542  0.00  0.00    +0.055 A 
ATOM     13  H   UNL     1       1.064  -2.894   4.784  0.00  0.00    +0.155 HD
BRANCH   2  14
ATOM     14  O   UNL     1      -0.200  -6.173   9.670  0.00  0.00    -0.492 OA
BRANCH  14  16
ATOM     15  C   UNL     1      -1.155  -6.051  11.887  0.00  0.00    +0.048 C 
ATOM     16  C   UNL     1      -0.805  -5.283  10.611  0.00  0.00    +0.225 C 
ENDBRANCH  14  16
ENDBRANCH   2  14
ENDBRANCH   1   9
BRANCH   1  17
ATOM     17  C   UNL     1       3.974  -5.785   2.344  0.00  0.00    +0.205 C 
ATOM     18  N   UNL     1       3.219  -6.610   1.391  0.00  0.00    -0.152 NA
ATOM     19  N   UNL     1       4.013  -7.267   0.715  0.00  0.00    -0.070 NA
ATOM     20  N   UNL     1       5.344  -7.028   1.056  0.00  0.00    -0.179 N 
ATOM     21  N   UNL     1       5.391  -6.105   2.072  0.00  0.00    -0.183 NA
ATOM     22  H   UNL     1       6.114  -7.447   0.642  0.00  0.00    +0.191 HD
BRANCH  21  23
ATOM     23  C   UNL     1       6.133  -4.905   1.663  0.00  0.00    +0.035 C 
ATOM     24  C   UNL     1       5.967  -3.816   2.723  0.00  0.00    +0.029 C 
ATOM     25  C   UNL     1       7.617  -5.249   1.513  0.00  0.00    +0.029 C 
ATOM     26  C   UNL     1       5.589  -4.402   0.324  0.00  0.00    +0.029 C 
ENDBRANCH  21  23
ENDBRANCH   1  17
BRANCH   1  27
ATOM     27  N   UNL     1       3.955  -7.565   4.025  0.00  0.00    +0.392 N 
ATOM     28  H   UNL     1       3.539  -7.868   4.893  0.00  0.00    -0.080 HD
BRANCH  27  29
ATOM     29  C   UNL     1       3.448  -8.393   2.923  0.00  0.00    -0.002 C 
BRANCH  29  30
ATOM     30  C   UNL     1       3.349  -9.827   3.376  0.00  0.00    +0.089 A 
ATOM     31  C   UNL     1       2.274 -10.400   3.946  0.00  0.00    +0.042 A 
ATOM     32  C   UNL     1       2.617 -11.746   4.208  0.00  0.00    +0.041 A 
ATOM     33  C   UNL     1       3.882 -11.915   3.783  0.00  0.00    +0.195 A 
ATOM     34  O   UNL     1       4.319 -10.751   3.275  0.00  0.00    -0.470 OA
ENDBRANCH  29  30
ENDBRANCH  27  29
BRANCH  27  35
ATOM     35  C   UNL     1       5.416  -7.702   4.108  0.00  0.00    -0.034 C 
BRANCH  35  36
ATOM     36  C   UNL     1       5.917  -6.991   5.339  0.00  0.00    -0.027 A 
ATOM     37  C   UNL     1       6.176  -7.496   6.570  0.00  0.00    +0.009 A 
ATOM     38  C   UNL     1       6.636  -6.647   7.559  0.00  0.00    +0.008 A 
ATOM     39  C   UNL     1       6.814  -5.335   7.270  0.00  0.00    +0.045 A 
ATOM     40  S   UNL     1       6.332  -5.268   5.552  0.00  0.00    -0.103 S 
ENDBRANCH  35  36
ENDBRANCH  27  35
ENDBRANCH   1  27
TORSDOF 10
