REMARK  Name = ZINC39164359
REMARK  6 active torsions:
REMARK  status: ('A' for Active; 'I' for Inactive)
REMARK    1  A    between atoms: C_1  and  C_2
REMARK    2  A    between atoms: C_4  and  S_9
REMARK    3  A    between atoms: C_5  and  O_8
REMARK    4  A    between atoms: S_9  and  C_10
REMARK    5  A    between atoms: C_17  and  C_19
REMARK    6  A    between atoms: N_22  and  C_23
REMARK                            x       y       z     vdW  Elec       q    Type
REMARK                         _______ _______ _______ _____ _____    ______ ____
ROOT
ATOM      1  C   UNL     1       1.188  -1.238  -3.376  0.00  0.00    +0.264 C 
ATOM      2  N   UNL     1       2.421  -0.477  -3.157  0.00  0.00    -0.243 NA
ATOM      3  C   UNL     1       3.459  -1.077  -2.698  0.00  0.00    +0.107 C 
ATOM      4  C   UNL     1       3.531  -2.560  -2.483  0.00  0.00    +0.066 C 
ATOM      5  C   UNL     1       4.543  -3.023  -1.771  0.00  0.00    +0.003 C 
ATOM      6  C   UNL     1       5.558  -2.016  -1.258  0.00  0.00    +0.073 C 
ATOM      7  S   UNL     1       5.050  -0.500  -2.179  0.00  0.00    -0.098 S 
ATOM      8  C   UNL     1       6.983  -2.433  -1.627  0.00  0.00    +0.024 C 
ATOM      9  C   UNL     1       2.436  -3.368  -3.112  0.00  0.00    +0.255 C 
ATOM     10  O   UNL     1       2.483  -4.581  -3.182  0.00  0.00    -0.269 OA
ATOM     11  N   UNL     1       1.396  -2.657  -3.594  0.00  0.00    -0.235 N 
ENDROOT
BRANCH  11  12
ATOM     12  C   UNL     1       0.449  -3.342  -4.361  0.00  0.00    +0.039 A 
ATOM     13  C   UNL     1      -0.585  -4.031  -3.739  0.00  0.00    +0.023 A 
ATOM     14  C   UNL     1      -1.519  -4.706  -4.499  0.00  0.00    +0.002 A 
ATOM     15  C   UNL     1      -1.427  -4.697  -5.879  0.00  0.00    +0.000 A 
ATOM     16  C   UNL     1      -0.399  -4.013  -6.502  0.00  0.00    +0.002 A 
ATOM     17  C   UNL     1       0.535  -3.330  -5.747  0.00  0.00    +0.023 A 
ENDBRANCH  11  12
BRANCH   1  18
ATOM     18  S   UNL     1       0.117  -1.028  -1.927  0.00  0.00    -0.076 S 
BRANCH  18  21
ATOM     19  C   UNL     1      -2.665   0.752  -0.874  0.00  0.00    +0.040 C 
ATOM     20  C   UNL     1      -1.300   1.417  -1.065  0.00  0.00    +0.167 C 
ATOM     21  C   UNL     1      -0.454   0.634  -2.056  0.00  0.00    +0.077 C 
ATOM     22  C   UNL     1      -0.243   1.518  -3.062  0.00  0.00    +0.243 C 
ATOM     23  N   UNL     1      -0.840   2.684  -2.796  0.00  0.00    -0.115 NA
ATOM     24  N   UNL     1      -1.445   2.729  -1.719  0.00  0.00    -0.176 NA
BRANCH  22  25
ATOM     25  O   UNL     1       0.476   1.254  -4.189  0.00  0.00    -0.491 OA
ATOM     26  H   UNL     1       0.591   2.019  -4.770  0.00  0.00    +0.294 HD
ENDBRANCH  22  25
ENDBRANCH  18  21
ENDBRANCH   1  18
TORSDOF 4
