REMARK  Name = ZINC06678744
REMARK  6 active torsions:
REMARK  status: ('A' for Active; 'I' for Inactive)
REMARK    1  A    between atoms: C_1  and  C_2
REMARK    2  A    between atoms: C_11  and  C_31
REMARK    3  A    between atoms: C_14  and  C_16
REMARK    4  A    between atoms: C_19  and  O_22
REMARK    5  A    between atoms: O_22  and  C_23
REMARK    6  A    between atoms: C_23  and  C_24
REMARK                            x       y       z     vdW  Elec       q    Type
REMARK                         _______ _______ _______ _____ _____    ______ ____
ROOT
ATOM      1  C   UNL     1      -0.079   0.851   0.218  0.00  0.00    +0.068 C 
ATOM      2  C   UNL     1      -0.848   1.341   1.418  0.00  0.00    +0.066 A 
ATOM      3  C   UNL     1      -2.182   1.802   1.408  0.00  0.00    +0.032 A 
ATOM      4  C   UNL     1      -2.508   2.148   2.672  0.00  0.00    +0.125 A 
ATOM      5  N   UNL     1      -1.405   1.916   3.450  0.00  0.00    -0.263 N 
ATOM      6  H   UNL     1      -1.338   2.079   4.434  0.00  0.00    +0.190 HD
ATOM      7  N   UNL     1      -0.391   1.414   2.635  0.00  0.00    -0.177 NA
ATOM      8  N   UNL     1      -3.664   2.656   3.215  0.00  0.00    -0.270 N 
ATOM      9  C   UNL     1      -4.849   2.929   2.758  0.00  0.00    +0.231 C 
ATOM     10  O   UNL     1      -5.652   3.276   3.598  0.00  0.00    -0.274 OA
ATOM     11  C   UNL     1      -5.375   2.885   1.377  0.00  0.00    +0.130 C 
ATOM     12  S   UNL     1      -4.740   1.496   0.429  0.00  0.00    -0.135 S 
ATOM     13  C   UNL     1      -2.999   1.837   0.155  0.00  0.00    +0.112 C 
ATOM     14  C   UNL     1      -6.901   2.787   1.433  0.00  0.00    +0.029 C 
ATOM     15  H   UNL     1      -3.575   2.857   4.160  0.00  0.00    +0.156 HD
ENDROOT
BRANCH  13  16
ATOM     16  C   UNL     1      -2.452   0.818  -0.811  0.00  0.00    -0.030 A 
ATOM     17  C   UNL     1      -2.449  -0.523  -0.471  0.00  0.00    +0.008 A 
ATOM     18  C   UNL     1      -1.954  -1.460  -1.357  0.00  0.00    +0.046 A 
ATOM     19  C   UNL     1      -1.449  -1.054  -2.583  0.00  0.00    +0.121 A 
ATOM     20  C   UNL     1      -1.448   0.292  -2.920  0.00  0.00    +0.046 A 
ATOM     21  C   UNL     1      -1.950   1.224  -2.033  0.00  0.00    +0.008 A 
BRANCH  19  22
ATOM     22  O   UNL     1      -0.956  -1.974  -3.454  0.00  0.00    -0.487 OA
BRANCH  22  23
ATOM     23  C   UNL     1      -0.989  -3.341  -3.041  0.00  0.00    +0.264 C 
BRANCH  23  24
ATOM     24  C   UNL     1      -0.406  -4.208  -4.127  0.00  0.00    -0.010 A 
ATOM     25  C   UNL     1      -1.226  -4.731  -5.109  0.00  0.00    +0.008 A 
ATOM     26  C   UNL     1      -0.691  -5.522  -6.109  0.00  0.00    +0.020 A 
ATOM     27  C   UNL     1       0.664  -5.799  -6.120  0.00  0.00    +0.041 A 
ATOM     28  C   UNL     1       1.484  -5.280  -5.134  0.00  0.00    +0.020 A 
ATOM     29  C   UNL     1       0.949  -4.485  -4.138  0.00  0.00    +0.008 A 
ATOM     30 CL   UNL     1       1.336  -6.797  -7.371  0.00  0.00    -0.084 Cl
ENDBRANCH  23  24
ENDBRANCH  22  23
ENDBRANCH  19  22
ENDBRANCH  13  16
TORSDOF 4
