REMARK  Name = ZINC40370750
REMARK  7 active torsions:
REMARK  status: ('A' for Active; 'I' for Inactive)
REMARK    1  A    between atoms: C_1  and  C_2
REMARK    2  A    between atoms: C_2  and  C_3
REMARK    3  A    between atoms: C_3  and  C_4
REMARK    4  A    between atoms: C_4  and  C_6
REMARK    5  A    between atoms: C_4  and  N_10
REMARK    6  A    between atoms: N_7  and  O_8
REMARK    7  A    between atoms: C_11  and  C_13
REMARK                            x       y       z     vdW  Elec       q    Type
REMARK                         _______ _______ _______ _____ _____    ______ ____
ROOT
ATOM      1  N   UNL     1      -0.810  -2.550   1.248  0.00  0.00    -0.302 N 
ATOM      2  C   UNL     1      -0.227  -3.765   1.284  0.00  0.00    +0.246 C 
ATOM      3  O   UNL     1      -0.200  -4.456   0.284  0.00  0.00    -0.270 OA
ATOM      4  H   UNL     1      -0.832  -1.999   2.046  0.00  0.00    +0.150 HD
ENDROOT
BRANCH   2   5
ATOM      5  C   UNL     1       0.381  -4.256   2.538  0.00  0.00    +0.056 A 
ATOM      6  C   UNL     1       0.347  -3.467   3.689  0.00  0.00    +0.029 A 
ATOM      7  C   UNL     1       0.916  -3.932   4.857  0.00  0.00    +0.019 A 
ATOM      8  C   UNL     1       1.520  -5.178   4.889  0.00  0.00    +0.017 A 
ATOM      9  C   UNL     1       1.558  -5.964   3.753  0.00  0.00    +0.022 A 
ATOM     10  C   UNL     1       0.986  -5.514   2.579  0.00  0.00    +0.053 A 
ATOM     11 CL   UNL     1       1.028  -6.506   1.155  0.00  0.00    -0.083 Cl
ATOM     12 BR   UNL     1       0.871  -2.865   6.418  0.00  0.00    -0.050 Br
ENDBRANCH   2   5
BRANCH   1  13
ATOM     13  C   UNL     1      -1.413  -2.063   0.004  0.00  0.00    +0.140 C 
BRANCH  13  14
ATOM     14  C   UNL     1      -2.822  -2.584  -0.109  0.00  0.00    +0.152 C 
ATOM     15  N   UNL     1      -3.134  -3.404  -1.058  0.00  0.00    -0.075 NA
ATOM     16  N   UNL     1      -3.778  -2.187   0.799  0.00  0.00    -0.342 N 
ATOM     17  H   UNL     1      -3.544  -1.572   1.512  0.00  0.00    +0.144 HD
ATOM     18  H   UNL     1      -4.685  -2.522   0.727  0.00  0.00    +0.144 HD
BRANCH  15  19
ATOM     19  O   UNL     1      -4.458  -3.893  -1.164  0.00  0.00    -0.408 OA
ATOM     20  H   UNL     1      -4.595  -4.500  -1.904  0.00  0.00    +0.328 HD
ENDBRANCH  15  19
ENDBRANCH  13  14
BRANCH  13  21
ATOM     21  C   UNL     1      -1.433  -0.534   0.013  0.00  0.00    +0.030 C 
BRANCH  21  23
ATOM     22  C   UNL     1      -0.019   1.526   0.010  0.00  0.00    +0.004 C 
ATOM     23  C   UNL     1       0.002  -0.004   0.002  0.00  0.00    -0.001 C 
ENDBRANCH  21  23
ENDBRANCH  13  21
ENDBRANCH   1  13
TORSDOF 6
