REMARK  Name = ZINC34728016
REMARK  6 active torsions:
REMARK  status: ('A' for Active; 'I' for Inactive)
REMARK    1  A    between atoms: C_4  and  C_7
REMARK    2  A    between atoms: C_7  and  C_8
REMARK    3  A    between atoms: C_8  and  N_9
REMARK    4  A    between atoms: N_21  and  C_24
REMARK    5  A    between atoms: C_24  and  C_25
REMARK    6  A    between atoms: N_27  and  C_28
REMARK                            x       y       z     vdW  Elec       q    Type
REMARK                         _______ _______ _______ _____ _____    ______ ____
ROOT
ATOM      1  N   UNL     1       5.439  -1.658   1.372  0.00  0.00    -0.287 N 
ATOM      2  C   UNL     1       5.447  -3.029   1.367  0.00  0.00    +0.097 A 
ATOM      3  C   UNL     1       6.644  -3.741   1.360  0.00  0.00    +0.074 A 
ATOM      4  C   UNL     1       6.512  -5.198   1.355  0.00  0.00    -0.023 A 
ATOM      5  C   UNL     1       5.242  -5.651   1.359  0.00  0.00    -0.004 A 
ATOM      6  S   UNL     1       4.245  -4.190   1.368  0.00  0.00    -0.075 S 
ATOM      7  C   UNL     1       4.796  -7.081   1.355  0.00  0.00    +0.043 C 
ATOM      8  C   UNL     1       5.995  -7.958   0.968  0.00  0.00    +0.005 C 
ATOM      9  C   UNL     1       7.209  -7.535   1.800  0.00  0.00    +0.005 C 
ATOM     10  C   UNL     1       7.694  -6.156   1.349  0.00  0.00    +0.037 C 
ATOM     11  C   UNL     1       7.880  -2.929   1.357  0.00  0.00    +0.266 A 
ATOM     12  O   UNL     1       8.972  -3.467   1.350  0.00  0.00    -0.267 OA
ATOM     13  N   UNL     1       7.783  -1.587   1.363  0.00  0.00    -0.251 N 
ATOM     14  C   UNL     1       6.593  -0.965   1.364  0.00  0.00    +0.333 A 
ATOM     15  O   UNL     1       6.557   0.251   1.364  0.00  0.00    -0.246 OA
ENDROOT
BRANCH   1  16
ATOM     16  C   UNL     1       4.162  -0.940   1.380  0.00  0.00    +0.132 C 
BRANCH  16  17
ATOM     17  C   UNL     1       3.708  -0.691  -0.060  0.00  0.00    +0.057 C 
BRANCH  17  21
ATOM     18  C   UNL     1      -0.015   1.403  -0.039  0.00  0.00    +0.000 A 
ATOM     19  C   UNL     1       1.174   2.108  -0.045  0.00  0.00    +0.000 A 
ATOM     20  C   UNL     1       2.379   1.430  -0.052  0.00  0.00    +0.004 A 
ATOM     21  C   UNL     1       2.395   0.048  -0.051  0.00  0.00    -0.046 A 
ATOM     22  C   UNL     1       1.205  -0.657  -0.044  0.00  0.00    +0.004 A 
ATOM     23  C   UNL     1       0.000   0.021  -0.039  0.00  0.00    +0.000 A 
ENDBRANCH  17  21
ENDBRANCH  16  17
ENDBRANCH   1  16
BRANCH  13  24
ATOM     24  C   UNL     1       9.008  -0.784   1.362  0.00  0.00    +0.226 C 
BRANCH  24  25
ATOM     25  C   UNL     1       9.423  -0.502  -0.059  0.00  0.00    +0.237 C 
ATOM     26  O   UNL     1       8.761  -0.931  -0.981  0.00  0.00    -0.274 OA
ATOM     27  N   UNL     1      10.530   0.225  -0.307  0.00  0.00    -0.283 N 
ATOM     28  H   UNL     1      11.023   0.623   0.427  0.00  0.00    +0.155 HD
BRANCH  27  29
ATOM     29  C   UNL     1      10.967   0.406  -1.621  0.00  0.00    +0.041 A 
ATOM     30  C   UNL     1      10.055   0.521  -2.647  0.00  0.00    +0.024 A 
ATOM     31  C   UNL     1      10.480   0.701  -3.960  0.00  0.00    +0.002 A 
ATOM     32  C   UNL     1      11.805   0.771  -4.267  0.00  0.00    +0.008 A 
ATOM     33  C   UNL     1      12.768   0.659  -3.249  0.00  0.00    -0.016 A 
ATOM     34  C   UNL     1      12.347   0.479  -1.908  0.00  0.00    +0.003 A 
ATOM     35  C   UNL     1      13.309   0.373  -0.892  0.00  0.00    +0.010 A 
ATOM     36  C   UNL     1      14.632   0.447  -1.206  0.00  0.00    +0.001 A 
ATOM     37  C   UNL     1      15.047   0.629  -2.524  0.00  0.00    +0.001 A 
ATOM     38  C   UNL     1      14.142   0.726  -3.536  0.00  0.00    +0.008 A 
ENDBRANCH  27  29
ENDBRANCH  24  25
ENDBRANCH  13  24
TORSDOF 6
