REMARK  Name = ZINC14530030
REMARK  6 active torsions:
REMARK  status: ('A' for Active; 'I' for Inactive)
REMARK    1  A    between atoms: C_1  and  C_2
REMARK    2  A    between atoms: C_2  and  C_4
REMARK    3  A    between atoms: C_2  and  N_13
REMARK    4  A    between atoms: C_14  and  C_16
REMARK    5  A    between atoms: N_21  and  S_23
REMARK    6  A    between atoms: S_23  and  C_26
REMARK                            x       y       z     vdW  Elec       q    Type
REMARK                         _______ _______ _______ _____ _____    ______ ____
ROOT
ATOM      1  C   UNL     1       2.149   1.573   1.256  0.00  0.00    +0.091 C 
ATOM      2  C   UNL     1       1.419   2.053  -0.001  0.00  0.00    +0.015 C 
ATOM      3  C   UNL     1      -0.019   1.528   0.010  0.00  0.00    +0.018 C 
ATOM      4  C   UNL     1       0.002  -0.004   0.002  0.00  0.00    +0.109 C 
ATOM      5  N   UNL     1       0.824  -0.472   1.126  0.00  0.00    -0.176 NA
ATOM      6  C   UNL     1       2.194   0.042   1.262  0.00  0.00    +0.122 C 
ENDROOT
BRANCH   1   8
ATOM      7  N   UNL     1       3.760   3.450   1.256  0.00  0.00    -0.305 N 
ATOM      8  C   UNL     1       3.554   2.118   1.260  0.00  0.00    +0.218 C 
ATOM      9  O   UNL     1       4.499   1.358   1.267  0.00  0.00    -0.275 OA
ATOM     10  H   UNL     1       3.004   4.058   1.251  0.00  0.00    +0.149 HD
BRANCH   7  12
ATOM     11  C   UNL     1       5.641   4.052   2.700  0.00  0.00    +0.036 C 
ATOM     12  C   UNL     1       5.126   3.980   1.261  0.00  0.00    +0.136 C 
BRANCH  12  13
ATOM     13  C   UNL     1       5.131   5.360   0.655  0.00  0.00    +0.126 A 
ATOM     14  C   UNL     1       6.076   5.832  -0.169  0.00  0.00    +0.055 A 
ATOM     15  C   UNL     1       5.677   7.203  -0.507  0.00  0.00    +0.020 A 
ATOM     16  C   UNL     1       6.221   8.210  -1.303  0.00  0.00    +0.011 A 
ATOM     17  C   UNL     1       5.580   9.412  -1.409  0.00  0.00    +0.001 A 
ATOM     18  C   UNL     1       4.391   9.637  -0.729  0.00  0.00    +0.004 A 
ATOM     19  C   UNL     1       3.838   8.654   0.063  0.00  0.00    +0.047 A 
ATOM     20  C   UNL     1       4.473   7.424   0.184  0.00  0.00    +0.135 A 
ATOM     21  O   UNL     1       4.186   6.294   0.860  0.00  0.00    -0.458 OA
ENDBRANCH  12  13
ENDBRANCH   7  12
ENDBRANCH   1   8
BRANCH   5  22
ATOM     22  S   UNL     1       0.219  -1.559   2.219  0.00  0.00    +0.061 S 
ATOM     23  O   UNL     1       0.963  -1.387   3.417  0.00  0.00    -0.153 OA
ATOM     24  O   UNL     1      -1.196  -1.433   2.176  0.00  0.00    -0.153 OA
BRANCH  22  25
ATOM     25  C   UNL     1       0.600  -3.170   1.617  0.00  0.00    +0.106 A 
ATOM     26  C   UNL     1      -0.292  -3.827   0.789  0.00  0.00    +0.029 A 
ATOM     27  C   UNL     1       0.008  -5.089   0.312  0.00  0.00    +0.017 A 
ATOM     28  C   UNL     1       1.196  -5.700   0.673  0.00  0.00    +0.018 A 
ATOM     29  C   UNL     1       2.085  -5.045   1.506  0.00  0.00    +0.017 A 
ATOM     30  C   UNL     1       1.787  -3.780   1.977  0.00  0.00    +0.029 A 
ATOM     31 BR   UNL     1       1.604  -7.429   0.026  0.00  0.00    -0.050 Br
ENDBRANCH  22  25
ENDBRANCH   5  22
TORSDOF 5
