REMARK  Name = ZINC10108649
REMARK  12 active torsions:
REMARK  status: ('A' for Active; 'I' for Inactive)
REMARK    1  A    between atoms: C_1  and  C_2
REMARK    2  A    between atoms: C_5  and  O_36
REMARK    3  A    between atoms: C_6  and  N_8
REMARK    4  A    between atoms: C_9  and  C_35
REMARK    5  A    between atoms: N_18  and  C_23
REMARK    6  A    between atoms: N_21  and  C_22
REMARK    7  A    between atoms: C_23  and  C_24
REMARK    8  A    between atoms: C_24  and  C_26
REMARK    9  A    between atoms: C_24  and  C_27
REMARK   10  A    between atoms: C_27  and  N_72
REMARK   11  A    between atoms: C_31  and  C_34
REMARK   12  A    between atoms: O_36  and  C_37
REMARK                            x       y       z     vdW  Elec       q    Type
REMARK                         _______ _______ _______ _____ _____    ______ ____
ROOT
ATOM      1  N   UNL     1       9.069   0.974   3.215  0.00  0.00    -0.279 N 
ATOM      2  C   UNL     1       8.884  -0.173   2.464  0.00  0.00    +0.041 A 
ATOM      3  C   UNL     1       7.581  -0.432   2.418  0.00  0.00    +0.116 A 
ATOM      4  N   UNL     1       6.916   0.544   3.139  0.00  0.00    -0.277 N 
ATOM      5  C   UNL     1       7.835   1.408   3.628  0.00  0.00    +0.223 A 
ATOM      6  N   UNL     1       7.221   2.353   4.324  0.00  0.00    -0.193 NA
ATOM      7  C   UNL     1       5.907   2.144   4.312  0.00  0.00    +0.170 A 
ATOM      8  C   UNL     1       5.673   0.992   3.562  0.00  0.00    +0.157 A 
ATOM      9  C   UNL     1       4.354   0.539   3.395  0.00  0.00    +0.283 A 
ATOM     10  O   UNL     1       4.127  -0.468   2.747  0.00  0.00    -0.265 OA
ATOM     11  N   UNL     1       3.342   1.232   3.954  0.00  0.00    -0.259 N 
ATOM     12  C   UNL     1       3.576   2.342   4.676  0.00  0.00    +0.333 A 
ATOM     13  O   UNL     1       2.638   2.938   5.169  0.00  0.00    -0.246 OA
ATOM     14  N   UNL     1       4.824   2.810   4.867  0.00  0.00    -0.279 N 
ATOM     15  C   UNL     1       5.038   4.022   5.660  0.00  0.00    +0.155 C 
ATOM     16  C   UNL     1       9.972  -0.986   1.810  0.00  0.00    +0.065 C 
ENDROOT
BRANCH   1  22
ATOM     17  C   UNL     1      12.986   1.424   6.155  0.00  0.00    +0.044 C 
ATOM     18  C   UNL     1      12.218   1.821   4.921  0.00  0.00    -0.048 A 
ATOM     19  C   UNL     1      12.728   2.787   4.072  0.00  0.00    +0.007 A 
ATOM     20  C   UNL     1      12.028   3.155   2.938  0.00  0.00    +0.048 A 
ATOM     21  C   UNL     1      10.815   2.552   2.646  0.00  0.00    +0.144 A 
ATOM     22  C   UNL     1      10.299   1.583   3.503  0.00  0.00    +0.091 A 
ATOM     23  C   UNL     1      11.007   1.219   4.639  0.00  0.00    +0.033 A 
BRANCH  21  24
ATOM     24  O   UNL     1      10.129   2.909   1.528  0.00  0.00    -0.493 OA
ATOM     25  C   UNL     1      10.720   3.909   0.696  0.00  0.00    +0.277 C 
ENDBRANCH  21  24
ENDBRANCH   1  22
BRANCH  11  26
ATOM     26  C   UNL     1       1.964   0.766   3.776  0.00  0.00    +0.131 C 
BRANCH  26  27
ATOM     27  C   UNL     1       1.367   1.405   2.521  0.00  0.00    -0.011 C 
ATOM     28  C   UNL     1       2.124   0.910   1.287  0.00  0.00    +0.007 C 
BRANCH  27  29
ATOM     29  C   UNL     1      -0.108   1.017   2.404  0.00  0.00    -0.074 C 
BRANCH  29  36
ATOM     30  C   UNL     1      -0.734   3.156   1.457  0.00  0.00    -0.079 C 
ATOM     31  C   UNL     1      -1.224   3.845   0.182  0.00  0.00    -0.018 C 
ATOM     32  C   UNL     1      -2.625   3.332  -0.163  0.00  0.00    -0.001 C 
ATOM     33  C   UNL     1      -2.576   1.810  -0.327  0.00  0.00    -0.031 C 
ATOM     34  C   UNL     1      -2.047   1.180   0.963  0.00  0.00    -0.076 C 
ATOM     35  C   UNL     1      -3.983   1.282  -0.614  0.00  0.00    +0.005 C 
ATOM     36  N   UNL     1      -0.687   1.696   1.226  0.00  0.00    +0.380 N 
ATOM     37  H   UNL     1      -0.095   1.507   0.408  0.00  0.00    -0.082 HD
ENDBRANCH  29  36
ENDBRANCH  27  29
ENDBRANCH  26  27
ENDBRANCH  11  26
TORSDOF 6
