REMARK  Name = ZINC37276449
REMARK  5 active torsions:
REMARK  status: ('A' for Active; 'I' for Inactive)
REMARK    1  A    between atoms: C_1  and  C_2
REMARK    2  A    between atoms: C_2  and  N_9
REMARK    3  A    between atoms: N_9  and  C_10
REMARK    4  A    between atoms: C_10  and  C_12
REMARK    5  A    between atoms: C_10  and  C_17
REMARK                            x       y       z     vdW  Elec       q    Type
REMARK                         _______ _______ _______ _____ _____    ______ ____
ROOT
ATOM      1  C   UNL     1       0.030  -0.064  -2.418  0.00  0.00    +0.158 C 
ENDROOT
BRANCH   1   2
ATOM      2  C   UNL     1       0.310  -1.074  -3.501  0.00  0.00    +0.016 A 
ATOM      3  C   UNL     1      -0.532  -1.580  -4.434  0.00  0.00    +0.015 A 
ATOM      4  C   UNL     1      -0.051  -2.508  -5.340  0.00  0.00    +0.028 A 
ATOM      5  C   UNL     1       1.251  -2.883  -5.267  0.00  0.00    +0.078 A 
ATOM      6  S   UNL     1       1.840  -1.908  -3.892  0.00  0.00    -0.080 S 
ATOM      7 CL   UNL     1       2.120  -4.014  -6.257  0.00  0.00    -0.076 Cl
ENDBRANCH   1   2
BRANCH   1   8
ATOM      8  C   UNL     1       0.513   1.293  -2.861  0.00  0.00    +0.127 A 
ATOM      9  C   UNL     1      -0.257   2.278  -3.357  0.00  0.00    +0.046 A 
ATOM     10  C   UNL     1       0.601   3.366  -3.638  0.00  0.00    +0.041 A 
ATOM     11  C   UNL     1       1.843   2.982  -3.296  0.00  0.00    +0.195 A 
ATOM     12  O   UNL     1       1.783   1.727  -2.820  0.00  0.00    -0.466 OA
ENDBRANCH   1   8
BRANCH   1  13
ATOM     13  N   UNL     1       0.733  -0.457  -1.189  0.00  0.00    -0.296 NA
ATOM     14  H   UNL     1       1.519   0.150  -1.012  0.00  0.00    +0.123 HD
BRANCH  13  16
ATOM     15  C   UNL     1      -0.839   0.900   0.086  0.00  0.00    +0.029 C 
ATOM     16  C   UNL     1      -0.185  -0.478  -0.042  0.00  0.00    +0.038 C 
ATOM     17  C   UNL     1      -1.275  -1.514  -0.311  0.00  0.00    +0.046 C 
ATOM     18  C   UNL     1      -0.844  -2.904   0.234  0.00  0.00    +0.168 C 
ATOM     19  S   UNL     1      -0.033  -2.379   1.808  0.00  0.00    -0.029 S 
ATOM     20  O   UNL     1      -1.030  -2.155   2.795  0.00  0.00    -0.174 OA
ATOM     21  O   UNL     1       1.051  -3.254   2.090  0.00  0.00    -0.174 OA
ATOM     22  C   UNL     1       0.628  -0.759   1.236  0.00  0.00    +0.187 C 
ENDBRANCH  13  16
ENDBRANCH   1  13
TORSDOF 4
