REMARK  Name = ZINC13110902
REMARK  8 active torsions:
REMARK  status: ('A' for Active; 'I' for Inactive)
REMARK    1  A    between atoms: C_1  and  N_2
REMARK    2  A    between atoms: C_3  and  C_5
REMARK    3  A    between atoms: C_9  and  N_10
REMARK    4  A    between atoms: N_10  and  C_11
REMARK    5  A    between atoms: C_11  and  C_13
REMARK    6  A    between atoms: C_11  and  N_22
REMARK    7  A    between atoms: C_13  and  C_15
REMARK    8  A    between atoms: C_23  and  C_25
REMARK                            x       y       z     vdW  Elec       q    Type
REMARK                         _______ _______ _______ _____ _____    ______ ____
ROOT
ATOM      1  C   UNL     1       3.585  -3.575   0.960  0.00  0.00    +0.232 C 
ENDROOT
BRANCH   1   2
ATOM      2  N   UNL     1       4.610  -3.728  -0.076  0.00  0.00    -0.284 N 
ATOM      3  C   UNL     1       4.790  -4.921  -0.674  0.00  0.00    +0.281 C 
ATOM      4  O   UNL     1       4.101  -5.872  -0.355  0.00  0.00    -0.267 OA
ATOM      5  H   UNL     1       5.159  -2.970  -0.330  0.00  0.00    +0.151 HD
BRANCH   3   6
ATOM      6  C   UNL     1       5.816  -5.074  -1.711  0.00  0.00    +0.189 A 
ATOM      7  C   UNL     1       6.097  -6.220  -2.398  0.00  0.00    +0.054 A 
ATOM      8  C   UNL     1       7.141  -5.913  -3.285  0.00  0.00    +0.042 A 
ATOM      9  C   UNL     1       7.446  -4.609  -3.103  0.00  0.00    +0.196 A 
ATOM     10  O   UNL     1       6.642  -4.106  -2.158  0.00  0.00    -0.458 OA
ENDBRANCH   3   6
ENDBRANCH   1   2
BRANCH   1  11
ATOM     11  N   UNL     1       2.439  -2.846   0.410  0.00  0.00    -0.314 N 
ATOM     12  H   UNL     1       2.498  -1.889   0.265  0.00  0.00    +0.149 HD
BRANCH  11  17
ATOM     13  C   UNL     1       0.101  -3.003  -0.427  0.00  0.00    +0.068 A 
ATOM     14  C   UNL     1      -0.986  -3.937  -0.673  0.00  0.00    -0.023 A 
ATOM     15  C   UNL     1      -0.702  -5.214  -0.344  0.00  0.00    -0.005 A 
ATOM     16  S   UNL     1       0.957  -5.163   0.268  0.00  0.00    -0.078 S 
ATOM     17  C   UNL     1       1.276  -3.523   0.097  0.00  0.00    +0.080 A 
ATOM     18  C   UNL     1      -1.607  -6.400  -0.476  0.00  0.00    +0.043 C 
ATOM     19  C   UNL     1      -3.040  -5.891  -0.689  0.00  0.00    +0.005 C 
ATOM     20  C   UNL     1      -3.027  -4.813  -1.776  0.00  0.00    +0.005 C 
ATOM     21  C   UNL     1      -2.340  -3.550  -1.248  0.00  0.00    +0.037 C 
BRANCH  13  24
ATOM     22  C   UNL     1      -0.635   0.696  -0.083  0.00  0.00    +0.128 C 
ATOM     23  N   UNL     1      -0.498  -0.731   0.216  0.00  0.00    -0.314 N 
ATOM     24  C   UNL     1      -0.036  -1.576  -0.727  0.00  0.00    +0.246 C 
ATOM     25  O   UNL     1       0.269  -1.153  -1.827  0.00  0.00    -0.270 OA
ATOM     26  H   UNL     1      -0.741  -1.068   1.093  0.00  0.00    +0.149 HD
ENDBRANCH  13  24
ENDBRANCH  11  17
ENDBRANCH   1  11
BRANCH   1  27
ATOM     27  C   UNL     1       4.157  -2.806   2.123  0.00  0.00    +0.201 C 
ATOM     28  O   UNL     1       3.535  -1.884   2.606  0.00  0.00    -0.288 OA
BRANCH  27  29
ATOM     29  C   UNL     1       5.471  -3.174   2.673  0.00  0.00    +0.021 A 
ATOM     30  C   UNL     1       6.063  -2.387   3.666  0.00  0.00    +0.013 A 
ATOM     31  C   UNL     1       7.294  -2.738   4.177  0.00  0.00    +0.021 A 
ATOM     32  C   UNL     1       7.945  -3.868   3.709  0.00  0.00    +0.041 A 
ATOM     33  C   UNL     1       7.365  -4.653   2.726  0.00  0.00    +0.021 A 
ATOM     34  C   UNL     1       6.132  -4.317   2.210  0.00  0.00    +0.013 A 
ATOM     35 CL   UNL     1       9.496  -4.303   4.358  0.00  0.00    -0.084 Cl
ENDBRANCH  27  29
ENDBRANCH   1  27
TORSDOF 7
