REMARK  Name = ZINC59369525
REMARK  8 active torsions:
REMARK  status: ('A' for Active; 'I' for Inactive)
REMARK    1  A    between atoms: C_1  and  C_2
REMARK    2  A    between atoms: N_4  and  C_29
REMARK    3  A    between atoms: C_6  and  C_7
REMARK    4  A    between atoms: N_8  and  N_9
REMARK    5  A    between atoms: N_12  and  N_13
REMARK    6  A    between atoms: C_14  and  C_15
REMARK    7  A    between atoms: N_17  and  C_21
REMARK    8  A    between atoms: C_19  and  C_20
REMARK                            x       y       z     vdW  Elec       q    Type
REMARK                         _______ _______ _______ _____ _____    ______ ____
ROOT
ATOM      1  N   UNL     1       1.323  -2.076   4.022  0.00  0.00    -0.246 N 
ATOM      2  C   UNL     1       1.488  -3.019   5.010  0.00  0.00    +0.231 C 
ATOM      3  N   UNL     1       1.540  -2.651   6.261  0.00  0.00    -0.266 NA
ATOM      4  N   UNL     1       1.597  -4.350   4.679  0.00  0.00    -0.246 N 
ATOM      5  H   UNL     1       1.212  -2.354   3.099  0.00  0.00    +0.192 HD
ATOM      6  H   UNL     1       1.655  -3.316   6.957  0.00  0.00    +0.190 HD
ATOM      7  H   UNL     1       1.632  -4.617   3.747  0.00  0.00    +0.192 HD
ENDROOT
BRANCH   1   9
ATOM      8  C   UNL     1       1.253   0.178   3.408  0.00  0.00    +0.145 C 
ATOM      9  N   UNL     1       1.318  -0.713   4.348  0.00  0.00    -0.179 NA
BRANCH   8  15
ATOM     10  C   UNL     1       3.136   0.894   0.959  0.00  0.00    +0.068 C 
ATOM     11  C   UNL     1       1.874   0.072   0.909  0.00  0.00    +0.070 A 
ATOM     12  N   UNL     1       1.361  -0.480  -0.158  0.00  0.00    -0.170 NA
ATOM     13  N   UNL     1       0.191  -1.158   0.201  0.00  0.00    -0.221 N 
ATOM     14  C   UNL     1      -0.001  -1.003   1.529  0.00  0.00    +0.142 A 
ATOM     15  C   UNL     1       1.044  -0.239   2.008  0.00  0.00    +0.054 A 
ATOM     16 CL   UNL     1      -1.313  -1.652   2.462  0.00  0.00    -0.061 Cl
BRANCH  13  17
ATOM     17  C   UNL     1      -0.642  -1.875  -0.670  0.00  0.00    +0.067 A 
ATOM     18  C   UNL     1      -1.182  -3.091  -0.272  0.00  0.00    +0.028 A 
ATOM     19  C   UNL     1      -2.002  -3.795  -1.132  0.00  0.00    +0.002 A 
ATOM     20  C   UNL     1      -2.285  -3.291  -2.388  0.00  0.00    +0.000 A 
ATOM     21  C   UNL     1      -1.748  -2.080  -2.787  0.00  0.00    +0.002 A 
ATOM     22  C   UNL     1      -0.932  -1.369  -1.930  0.00  0.00    +0.028 A 
ENDBRANCH  13  17
ENDBRANCH   8  15
ENDBRANCH   1   9
BRANCH   4  23
ATOM     23  N   UNL     1       1.657  -5.320   5.689  0.00  0.00    -0.179 NA
ATOM     24  C   UNL     1       1.862  -6.564   5.382  0.00  0.00    +0.145 C 
BRANCH  24  25
ATOM     25  C   UNL     1       2.167  -6.939   3.987  0.00  0.00    +0.054 A 
ATOM     26  C   UNL     1       3.202  -6.452   3.217  0.00  0.00    +0.142 A 
ATOM     27  N   UNL     1       3.122  -7.053   2.009  0.00  0.00    -0.221 N 
ATOM     28  N   UNL     1       2.028  -7.925   2.023  0.00  0.00    -0.170 NA
ATOM     29  C   UNL     1       1.456  -7.868   3.196  0.00  0.00    +0.070 A 
ATOM     30  C   UNL     1       0.247  -8.656   3.629  0.00  0.00    +0.068 C 
ATOM     31 CL   UNL     1       4.388  -5.282   3.707  0.00  0.00    -0.061 Cl
BRANCH  27  32
ATOM     32  C   UNL     1       3.988  -6.840   0.928  0.00  0.00    +0.067 A 
ATOM     33  C   UNL     1       4.456  -5.562   0.653  0.00  0.00    +0.028 A 
ATOM     34  C   UNL     1       5.309  -5.355  -0.413  0.00  0.00    +0.002 A 
ATOM     35  C   UNL     1       5.697  -6.419  -1.207  0.00  0.00    +0.000 A 
ATOM     36  C   UNL     1       5.232  -7.693  -0.936  0.00  0.00    +0.002 A 
ATOM     37  C   UNL     1       4.383  -7.907   0.133  0.00  0.00    +0.028 A 
ENDBRANCH  27  32
ENDBRANCH  24  25
ENDBRANCH   4  23
TORSDOF 6
