REMARK  Name = ZINC36532570
REMARK  16 active torsions:
REMARK  status: ('A' for Active; 'I' for Inactive)
REMARK    1  A    between atoms: C_1  and  C_2
REMARK    2  A    between atoms: C_2  and  C_41
REMARK    3  A    between atoms: C_8  and  C_40
REMARK    4  A    between atoms: C_10  and  O_39
REMARK    5  A    between atoms: C_12  and  C_28
REMARK    6  A    between atoms: C_14  and  C_27
REMARK    7  A    between atoms: C_18  and  C_26
REMARK    8  A    between atoms: C_22  and  O_25
REMARK    9  A    between atoms: C_28  and  C_29
REMARK   10  A    between atoms: C_28  and  C_30
REMARK   11  A    between atoms: C_28  and  O_38
REMARK   12  A    between atoms: C_30  and  C_32
REMARK   13  A    between atoms: C_33  and  C_34
REMARK   14  A    between atoms: C_34  and  C_35
REMARK   15  A    between atoms: C_34  and  C_36
REMARK   16  A    between atoms: C_34  and  O_37
REMARK                            x       y       z     vdW  Elec       q    Type
REMARK                         _______ _______ _______ _____ _____    ______ ____
ROOT
ATOM      1  C   UNL     1      -0.072   1.118  -0.044  0.00  0.00    +0.024 C 
ATOM      2  C   UNL     1      -0.136  -0.411  -0.100  0.00  0.00    +0.052 C 
ATOM      3  C   UNL     1      -1.562  -0.931  -0.020  0.00  0.00    -0.052 C 
ATOM      4  C   UNL     1      -2.590  -0.145  -0.093  0.00  0.00    -0.026 C 
ATOM      5  C   UNL     1      -4.017  -0.628   0.036  0.00  0.00    +0.032 C 
ATOM      6  C   UNL     1      -4.011  -1.967   0.777  0.00  0.00    +0.013 C 
ATOM      7  C   UNL     1      -5.374  -2.471   1.118  0.00  0.00    -0.019 C 
ATOM      8  C   UNL     1      -6.371  -2.542  -0.049  0.00  0.00    +0.039 C 
ATOM      9  C   UNL     1      -7.541  -3.366   0.546  0.00  0.00    +0.122 C 
ATOM     10  C   UNL     1      -6.924  -4.244   1.652  0.00  0.00    +0.063 C 
ATOM     11  C   UNL     1      -5.417  -3.897   1.709  0.00  0.00    -0.011 C 
ATOM     12  C   UNL     1      -4.645  -4.859   0.807  0.00  0.00    +0.082 C 
ATOM     13  C   UNL     1      -3.246  -4.325   0.577  0.00  0.00    +0.141 C 
ATOM     14  O   UNL     1      -2.287  -5.025   0.810  0.00  0.00    -0.297 OA
ATOM     15  C   UNL     1      -3.099  -2.929   0.031  0.00  0.00    +0.040 C 
ATOM     16  C   UNL     1      -1.674  -2.428   0.144  0.00  0.00    +0.055 C 
ATOM     17  C   UNL     1      -0.985  -2.818   1.413  0.00  0.00    +0.031 C 
ATOM     18  C   UNL     1       0.081  -2.130   1.832  0.00  0.00    +0.157 C 
ATOM     19  C   UNL     1       0.603  -0.972   1.103  0.00  0.00    +0.206 C 
ATOM     20  O   UNL     1       1.643  -0.450   1.463  0.00  0.00    -0.288 OA
ATOM     21  C   UNL     1      -3.444  -2.963  -1.464  0.00  0.00    +0.020 C 
ATOM     22  C   UNL     1      -4.883  -3.920   3.147  0.00  0.00    +0.012 C 
ATOM     23  C   UNL     1      -5.971  -1.533   2.184  0.00  0.00    +0.012 C 
ATOM     24  C   UNL     1       0.536  -0.895  -1.390  0.00  0.00    +0.024 C 
ENDROOT
BRANCH  18  25
ATOM     25  O   UNL     1       0.700  -2.525   2.977  0.00  0.00    -0.504 OA
ATOM     26  H   UNL     1       1.462  -1.982   3.219  0.00  0.00    +0.292 HD
ENDBRANCH  18  25
BRANCH  10  27
ATOM     27  C   UNL     1      -7.166  -5.722   1.358  0.00  0.00    +0.130 C 
ATOM     28  C   UNL     1      -6.553  -6.571   2.473  0.00  0.00    +0.050 C 
BRANCH  27  29
ATOM     29  C   UNL     1      -8.649  -5.983   1.284  0.00  0.00    +0.187 C 
ATOM     30  O   UNL     1      -9.423  -5.254   1.869  0.00  0.00    -0.290 OA
BRANCH  29  31
ATOM     31  C   UNL     1      -9.154  -7.115   0.508  0.00  0.00    +0.048 C 
ATOM     32  C   UNL     1     -10.467  -7.346   0.443  0.00  0.00    +0.010 C 
BRANCH  32  33
ATOM     33  C   UNL     1     -10.988  -8.513  -0.356  0.00  0.00    +0.079 C 
ATOM     34  C   UNL     1     -11.761  -9.458   0.566  0.00  0.00    +0.045 C 
ATOM     35  C   UNL     1     -11.918  -8.001  -1.458  0.00  0.00    +0.045 C 
BRANCH  33  36
ATOM     36  O   UNL     1      -9.891  -9.214  -0.945  0.00  0.00    -0.385 OA
ATOM     37  H   UNL     1     -10.153  -9.979  -1.476  0.00  0.00    +0.211 HD
ENDBRANCH  33  36
ENDBRANCH  32  33
ENDBRANCH  29  31
ENDBRANCH  27  29
BRANCH  27  38
ATOM     38  O   UNL     1      -6.560  -6.065   0.110  0.00  0.00    -0.381 OA
ATOM     39  H   UNL     1      -6.989  -5.665  -0.659  0.00  0.00    +0.211 HD
ENDBRANCH  27  38
ENDBRANCH  10  27
BRANCH   9  40
ATOM     40  O   UNL     1      -8.119  -4.191  -0.467  0.00  0.00    -0.391 OA
ATOM     41  H   UNL     1      -8.495  -3.698  -1.209  0.00  0.00    +0.210 HD
ENDBRANCH   9  40
TORSDOF 8
