REMARK  Name = ZINC62674402
REMARK  12 active torsions:
REMARK  status: ('A' for Active; 'I' for Inactive)
REMARK    1  A    between atoms: C_1  and  C_2
REMARK    2  A    between atoms: N_6  and  C_8
REMARK    3  A    between atoms: C_8  and  C_9
REMARK    4  A    between atoms: C_8  and  C_10
REMARK    5  A    between atoms: C_10  and  N_11
REMARK    6  A    between atoms: C_12  and  C_14
REMARK    7  A    between atoms: N_16  and  C_17
REMARK    8  A    between atoms: C_22  and  O_23
REMARK    9  A    between atoms: O_23  and  C_24
REMARK   10  A    between atoms: C_24  and  C_25
REMARK   11  A    between atoms: C_25  and  C_26
REMARK   12  A    between atoms: C_25  and  C_27
REMARK                            x       y       z     vdW  Elec       q    Type
REMARK                         _______ _______ _______ _____ _____    ______ ____
ROOT
ATOM      1  N   UNL     1       0.066  -4.416   2.312  0.00  0.00    -0.309 N 
ATOM      2  C   UNL     1      -0.254  -5.715   2.469  0.00  0.00    +0.299 C 
ATOM      3  O   UNL     1       0.616  -6.533   2.686  0.00  0.00    -0.265 OA
ATOM      4  H   UNL     1      -0.630  -3.763   2.138  0.00  0.00    +0.149 HD
ENDROOT
BRANCH   2   5
ATOM      5  C   UNL     1      -1.680  -6.150   2.376  0.00  0.00    +0.303 C 
ATOM      6  O   UNL     1      -2.551  -5.333   2.159  0.00  0.00    -0.265 OA
ATOM      7  N   UNL     1      -2.000  -7.450   2.533  0.00  0.00    -0.275 N 
ATOM      8  H   UNL     1      -1.299  -8.113   2.635  0.00  0.00    +0.155 HD
BRANCH   7   9
ATOM      9  C   UNL     1      -3.342  -7.843   2.549  0.00  0.00    +0.076 A 
ATOM     10  C   UNL     1      -4.272  -7.175   1.764  0.00  0.00    +0.027 A 
ATOM     11  C   UNL     1      -5.598  -7.565   1.782  0.00  0.00    +0.002 A 
ATOM     12  C   UNL     1      -6.001  -8.621   2.579  0.00  0.00    +0.004 A 
ATOM     13  C   UNL     1      -5.080  -9.291   3.363  0.00  0.00    +0.047 A 
ATOM     14  C   UNL     1      -3.748  -8.910   3.348  0.00  0.00    +0.142 A 
BRANCH  14  15
ATOM     15  O   UNL     1      -2.841  -9.572   4.114  0.00  0.00    -0.490 OA
BRANCH  15  16
ATOM     16  C   UNL     1      -3.330 -10.655   4.907  0.00  0.00    +0.232 C 
BRANCH  16  17
ATOM     17  C   UNL     1      -2.172 -11.273   5.695  0.00  0.00    +0.020 C 
ATOM     18  C   UNL     1      -1.633 -10.249   6.696  0.00  0.00    +0.010 C 
ATOM     19  C   UNL     1      -2.670 -12.509   6.447  0.00  0.00    +0.010 C 
ENDBRANCH  16  17
ENDBRANCH  15  16
ENDBRANCH  14  15
ENDBRANCH   7   9
ENDBRANCH   2   5
BRANCH   1  20
ATOM     20  C   UNL     1       1.464  -3.989   2.403  0.00  0.00    +0.089 C 
BRANCH  20  21
ATOM     21  C   UNL     1       1.540  -2.464   2.305  0.00  0.00    -0.054 C 
ATOM     22  C   UNL     1       3.006  -2.025   2.316  0.00  0.00    -0.012 C 
BRANCH  21  28
ATOM     23  C   UNL     1       1.792  -2.647  -2.581  0.00  0.00    +0.005 C 
ATOM     24  C   UNL     1       0.980  -2.130  -1.391  0.00  0.00    -0.031 C 
ATOM     25  C   UNL     1       0.872  -0.604  -1.470  0.00  0.00    -0.001 C 
ATOM     26  C   UNL     1       0.126  -0.091  -0.235  0.00  0.00    -0.018 C 
ATOM     27  C   UNL     1       0.858  -0.555   1.026  0.00  0.00    -0.078 C 
ATOM     28  N   UNL     1       0.906  -2.022   1.056  0.00  0.00    +0.383 N 
ATOM     29  C   UNL     1       1.681  -2.519  -0.088  0.00  0.00    -0.075 C 
ATOM     30  H   UNL     1      -0.033  -2.389   1.009  0.00  0.00    -0.081 HD
ENDBRANCH  21  28
ENDBRANCH  20  21
ENDBRANCH   1  20
TORSDOF 8
