REMARK  Name = ZINC60243654
REMARK  5 active torsions:
REMARK  status: ('A' for Active; 'I' for Inactive)
REMARK    1  A    between atoms: C_3  and  C_8
REMARK    2  A    between atoms: C_11  and  C_13
REMARK    3  A    between atoms: N_15  and  N_16
REMARK    4  A    between atoms: C_17  and  C_19
REMARK    5  A    between atoms: C_19  and  C_20
REMARK                            x       y       z     vdW  Elec       q    Type
REMARK                         _______ _______ _______ _____ _____    ______ ____
ROOT
ATOM      1  C   UNL     1       5.410   3.154  -1.689  0.00  0.00    +0.233 C 
ATOM      2  O   UNL     1       5.288   4.229  -1.141  0.00  0.00    -0.274 OA
ATOM      3  N   UNL     1       6.256   3.020  -2.730  0.00  0.00    -0.234 N 
ATOM      4  H   UNL     1       6.354   2.160  -3.168  0.00  0.00    +0.173 HD
ENDROOT
BRANCH   3   5
ATOM      5  N   UNL     1       6.995   4.123  -3.178  0.00  0.00    -0.234 N 
ATOM      6  C   UNL     1       7.841   3.989  -4.218  0.00  0.00    +0.233 C 
ATOM      7  O   UNL     1       7.964   2.914  -4.766  0.00  0.00    -0.274 OA
ATOM      8  H   UNL     1       6.897   4.983  -2.740  0.00  0.00    +0.173 HD
BRANCH   6   9
ATOM      9  C   UNL     1       8.636   5.176  -4.700  0.00  0.00    +0.132 C 
BRANCH   9  10
ATOM     10  C   UNL     1       9.498   4.763  -5.865  0.00  0.00    -0.038 A 
ATOM     11  C   UNL     1      10.776   4.283  -5.642  0.00  0.00    +0.007 A 
ATOM     12  C   UNL     1      11.568   3.904  -6.710  0.00  0.00    +0.038 A 
ATOM     13  C   UNL     1      11.081   4.004  -8.002  0.00  0.00    +0.123 A 
ATOM     14  C   UNL     1       9.802   4.484  -8.224  0.00  0.00    +0.038 A 
ATOM     15  C   UNL     1       9.010   4.858  -7.155  0.00  0.00    +0.007 A 
ATOM     16  F   UNL     1      11.855   3.634  -9.046  0.00  0.00    -0.205 F 
ENDBRANCH   9  10
ENDBRANCH   6   9
ENDBRANCH   3   5
BRANCH   1  19
ATOM     17  C   UNL     1       3.672   2.183  -0.022  0.00  0.00    +0.032 C 
ATOM     18  C   UNL     1       4.968   1.392   0.167  0.00  0.00    +0.022 C 
ATOM     19  C   UNL     1       4.615   1.967  -1.207  0.00  0.00    +0.084 C 
BRANCH  17  22
ATOM     20  C   UNL     1      -0.017   1.378   0.010  0.00  0.00    +0.001 A 
ATOM     21  C   UNL     1       1.171   2.086   0.002  0.00  0.00    +0.004 A 
ATOM     22  C   UNL     1       2.378   1.411  -0.013  0.00  0.00    -0.042 A 
ATOM     23  C   UNL     1       2.397   0.029  -0.022  0.00  0.00    +0.019 A 
ATOM     24  C   UNL     1       1.210  -0.679  -0.014  0.00  0.00    +0.018 A 
ATOM     25  C   UNL     1       0.002  -0.004   0.002  0.00  0.00    +0.015 A 
ATOM     26 BR   UNL     1       1.236  -2.570  -0.025  0.00  0.00    -0.050 Br
ENDBRANCH  17  22
ENDBRANCH   1  19
TORSDOF 5
