REMARK  Name = ZINC04168845
REMARK  6 active torsions:
REMARK  status: ('A' for Active; 'I' for Inactive)
REMARK    1  A    between atoms: C_1  and  C_2
REMARK    2  A    between atoms: C_4  and  C_8
REMARK    3  A    between atoms: C_5  and  C_7
REMARK    4  A    between atoms: C_15  and  N_28
REMARK    5  A    between atoms: C_16  and  C_26
REMARK    6  A    between atoms: C_17  and  C_19
REMARK                            x       y       z     vdW  Elec       q    Type
REMARK                         _______ _______ _______ _____ _____    ______ ____
ROOT
ATOM      1  C   UNL     1      -2.144  -3.459  -0.157  0.00  0.00    +0.101 A 
ATOM      2  C   UNL     1      -3.445  -2.988   0.042  0.00  0.00    +0.054 A 
ATOM      3  C   UNL     1      -4.286  -4.063   0.051  0.00  0.00    +0.223 A 
ATOM      4  N   UNL     1      -3.539  -5.170  -0.137  0.00  0.00    -0.246 N 
ATOM      5  H   UNL     1      -3.870  -6.082  -0.177  0.00  0.00    +0.192 HD
ATOM      6  N   UNL     1      -2.200  -4.772  -0.270  0.00  0.00    -0.171 NA
ATOM      7  O   UNL     1      -5.626  -3.943   0.228  0.00  0.00    -0.423 OA
ATOM      8  C   UNL     1      -6.094  -2.758   0.670  0.00  0.00    +0.200 C 
ATOM      9  C   UNL     1      -5.361  -1.623   0.696  0.00  0.00    +0.098 C 
ATOM     10  C   UNL     1      -3.930  -1.573   0.222  0.00  0.00    +0.102 C 
ENDROOT
BRANCH   1  14
ATOM     11  C   UNL     1       0.956   0.205   1.506  0.00  0.00    +0.051 C 
ATOM     12  C   UNL     1       0.466  -0.906   0.612  0.00  0.00    -0.012 A 
ATOM     13  C   UNL     1      -0.664  -1.643   0.716  0.00  0.00    +0.021 A 
ATOM     14  C   UNL     1      -0.917  -2.627  -0.234  0.00  0.00    +0.013 A 
ATOM     15  C   UNL     1      -0.010  -2.811  -1.240  0.00  0.00    -0.004 A 
ATOM     16  S   UNL     1       1.223  -1.579  -0.857  0.00  0.00    -0.098 S 
ATOM     17  C   UNL     1      -0.045  -3.796  -2.380  0.00  0.00    +0.052 C 
ENDBRANCH   1  14
BRANCH  10  18
ATOM     18  C   UNL     1      -3.855  -0.838  -1.091  0.00  0.00    -0.034 A 
ATOM     19  C   UNL     1      -4.519  -1.333  -2.199  0.00  0.00    +0.005 A 
ATOM     20  C   UNL     1      -4.451  -0.659  -3.403  0.00  0.00    +0.015 A 
ATOM     21  C   UNL     1      -3.718   0.510  -3.501  0.00  0.00    +0.018 A 
ATOM     22  C   UNL     1      -3.053   1.004  -2.393  0.00  0.00    +0.015 A 
ATOM     23  C   UNL     1      -3.127   0.333  -1.187  0.00  0.00    +0.005 A 
ATOM     24 BR   UNL     1      -3.623   1.432  -5.150  0.00  0.00    -0.050 Br
ENDBRANCH  10  18
BRANCH   8  25
ATOM     25  N   UNL     1      -7.390  -2.702   1.119  0.00  0.00    -0.328 N 
ATOM     26  H   UNL     1      -7.941  -3.500   1.113  0.00  0.00    +0.145 HD
ATOM     27  H   UNL     1      -7.755  -1.864   1.444  0.00  0.00    +0.145 HD
ENDBRANCH   8  25
BRANCH   9  28
ATOM     28  C   UNL     1      -5.966  -0.423   1.191  0.00  0.00    +0.101 C 
ATOM     29  N   UNL     1      -6.446   0.529   1.584  0.00  0.00    -0.191 NA
ENDBRANCH   9  28
TORSDOF 4
