REMARK  Name = ZINC50893223
REMARK  7 active torsions:
REMARK  status: ('A' for Active; 'I' for Inactive)
REMARK    1  A    between atoms: C_1  and  C_2
REMARK    2  A    between atoms: C_2  and  C_3
REMARK    3  A    between atoms: C_3  and  C_4
REMARK    4  A    between atoms: N_7  and  C_10
REMARK    5  A    between atoms: C_10  and  C_12
REMARK    6  A    between atoms: C_10  and  C_14
REMARK    7  A    between atoms: C_12  and  N_13
REMARK                            x       y       z     vdW  Elec       q    Type
REMARK                         _______ _______ _______ _____ _____    ______ ____
ROOT
ATOM      1  C   UNL     1      -2.297  -6.014   1.323  0.00  0.00    -0.019 C 
ENDROOT
BRANCH   1   5
ATOM      2  C   UNL     1      -1.417  -2.157  -0.262  0.00  0.00    -0.014 C 
ATOM      3  C   UNL     1      -0.793  -2.584   1.069  0.00  0.00    -0.015 C 
ATOM      4  C   UNL     1      -0.848  -4.109   1.186  0.00  0.00    -0.078 C 
ATOM      5  N   UNL     1      -2.244  -4.558   1.132  0.00  0.00    +0.385 N 
ATOM      6  C   UNL     1      -2.827  -4.215  -0.170  0.00  0.00    -0.078 C 
ATOM      7  C   UNL     1      -2.849  -2.694  -0.339  0.00  0.00    -0.015 C 
ATOM      8  H   UNL     1      -2.770  -4.106   1.865  0.00  0.00    -0.081 HD
BRANCH   2   9
ATOM      9  C   UNL     1      -1.438  -0.630  -0.351  0.00  0.00    +0.003 C 
BRANCH   9  11
ATOM     10  C   UNL     1      -0.024   1.425  -0.488  0.00  0.00    +0.004 C 
ATOM     11  C   UNL     1      -0.003  -0.102  -0.399  0.00  0.00    -0.003 C 
ENDBRANCH   9  11
ENDBRANCH   2   9
ENDBRANCH   1   5
BRANCH   1  12
ATOM     12  C   UNL     1      -1.611  -6.376   2.615  0.00  0.00    +0.092 A 
ATOM     13  C   UNL     1      -0.806  -7.437   2.807  0.00  0.00    +0.059 A 
ATOM     14  C   UNL     1      -0.385  -7.392   4.156  0.00  0.00    +0.070 A 
ATOM     15  C   UNL     1      -0.958  -6.306   4.708  0.00  0.00    +0.184 A 
ATOM     16  O   UNL     1      -1.696  -5.692   3.768  0.00  0.00    -0.454 OA
ATOM     17 BR   UNL     1      -0.754  -5.737   6.500  0.00  0.00    -0.007 Br
ATOM     18 BR   UNL     1       0.763  -8.623   5.020  0.00  0.00    -0.046 Br
ENDBRANCH   1  12
BRANCH   1  19
ATOM     19  C   UNL     1      -3.756  -6.469   1.375  0.00  0.00    -0.094 C 
BRANCH  19  20
ATOM     20  N   UNL     1      -3.810  -7.934   1.472  0.00  0.00    +0.377 N 
ATOM     21  H   UNL     1      -4.769  -8.240   1.413  0.00  0.00    -0.090 HD
ATOM     22  H   UNL     1      -3.279  -8.340   0.716  0.00  0.00    -0.090 HD
ATOM     23  H   UNL     1      -3.417  -8.226   2.354  0.00  0.00    -0.090 HD
ENDBRANCH  19  20
ENDBRANCH   1  19
TORSDOF 6
