REMARK  Name = ZINC63908281
REMARK  9 active torsions:
REMARK  status: ('A' for Active; 'I' for Inactive)
REMARK    1  A    between atoms: C_1  and  C_2
REMARK    2  A    between atoms: C_5  and  C_21
REMARK    3  A    between atoms: C_6  and  C_20
REMARK    4  A    between atoms: N_7  and  C_8
REMARK    5  A    between atoms: C_8  and  C_9
REMARK    6  A    between atoms: C_21  and  C_23
REMARK    7  A    between atoms: C_23  and  S_24
REMARK    8  A    between atoms: S_24  and  C_25
REMARK    9  A    between atoms: C_28  and  C_30
REMARK                            x       y       z     vdW  Elec       q    Type
REMARK                         _______ _______ _______ _____ _____    ______ ____
ROOT
ATOM      1  C   UNL     1       2.729  -1.879  -1.634  0.00  0.00    +0.171 C 
ATOM      2  O   UNL     1       3.716  -2.441  -1.201  0.00  0.00    -0.291 OA
ENDROOT
BRANCH   1   6
ATOM      3  C   UNL     1       0.030   1.526   0.329  0.00  0.00    +0.028 C 
ATOM      4  C   UNL     1       0.023   0.001   0.199  0.00  0.00    +0.075 C 
ATOM      5  C   UNL     1       0.632  -0.427  -1.150  0.00  0.00    +0.062 C 
ATOM      6  C   UNL     1       1.835  -1.256  -0.753  0.00  0.00    +0.014 C 
ATOM      7  C   UNL     1       1.898  -1.293   0.594  0.00  0.00    +0.010 C 
ATOM      8  N   UNL     1       0.904  -0.605   1.206  0.00  0.00    -0.326 N 
ATOM      9  C   UNL     1       2.973  -2.033   1.348  0.00  0.00    +0.061 C 
BRANCH   8  10
ATOM     10  C   UNL     1       0.732  -0.480   2.656  0.00  0.00    +0.153 C 
BRANCH  10  11
ATOM     11  C   UNL     1      -0.148  -1.623   3.165  0.00  0.00    +0.228 C 
ATOM     12  C   UNL     1      -0.423  -1.437   4.664  0.00  0.00    +0.275 C 
ATOM     13  O   UNL     1      -1.236  -2.528   5.110  0.00  0.00    -0.485 OA
ATOM     14  C   UNL     1      -0.859  -3.774   4.712  0.00  0.00    +0.162 A 
ATOM     15  C   UNL     1      -1.359  -4.882   5.379  0.00  0.00    +0.049 A 
ATOM     16  C   UNL     1      -0.988  -6.154   4.984  0.00  0.00    +0.004 A 
ATOM     17  C   UNL     1      -0.118  -6.325   3.923  0.00  0.00    +0.004 A 
ATOM     18  C   UNL     1       0.385  -5.224   3.255  0.00  0.00    +0.049 A 
ATOM     19  C   UNL     1       0.018  -3.946   3.647  0.00  0.00    +0.163 A 
ATOM     20  O   UNL     1       0.528  -2.872   2.984  0.00  0.00    -0.480 OA
ENDBRANCH  10  11
ENDBRANCH   8  10
ENDBRANCH   1   6
BRANCH   1  21
ATOM     21  C   UNL     1       2.467  -1.853  -3.118  0.00  0.00    +0.158 C 
BRANCH  21  22
ATOM     22  S   UNL     1       3.794  -2.737  -3.982  0.00  0.00    -0.058 S 
BRANCH  22  23
ATOM     23  C   UNL     1       3.349  -2.618  -5.683  0.00  0.00    +0.278 A 
ATOM     24  N   UNL     1       2.281  -2.005  -6.171  0.00  0.00    -0.101 NA
ATOM     25  N   UNL     1       2.273  -2.117  -7.452  0.00  0.00    -0.107 NA
ATOM     26  C   UNL     1       3.336  -2.807  -7.836  0.00  0.00    +0.248 A 
ATOM     27  O   UNL     1       4.034  -3.128  -6.721  0.00  0.00    -0.411 OA
BRANCH  26  28
ATOM     28  C   UNL     1       3.679  -3.138  -9.155  0.00  0.00    +0.044 C 
ATOM     29  C   UNL     1       2.980  -2.807 -10.317  0.00  0.00    +0.008 A 
ATOM     30  C   UNL     1       1.788  -2.085 -10.540  0.00  0.00    +0.010 A 
ATOM     31  C   UNL     1       1.332  -1.913 -11.807  0.00  0.00    +0.001 A 
ATOM     32  C   UNL     1       2.014  -2.436 -12.908  0.00  0.00    +0.002 A 
ATOM     33  C   UNL     1       3.164  -3.140 -12.768  0.00  0.00    +0.026 A 
ATOM     34  C   UNL     1       3.704  -3.360 -11.474  0.00  0.00    +0.043 A 
ATOM     35  N   UNL     1       4.787  -3.999 -11.077  0.00  0.00    -0.380 N 
ATOM     36  C   UNL     1       4.886  -3.924  -9.617  0.00  0.00    +0.154 C 
ATOM     37  H   UNL     1       5.420  -4.446 -11.661  0.00  0.00    +0.160 HD
ENDBRANCH  26  28
ENDBRANCH  22  23
ENDBRANCH  21  22
ENDBRANCH   1  21
TORSDOF 7
