REMARK  Name = ZINC23384923
REMARK  9 active torsions:
REMARK  status: ('A' for Active; 'I' for Inactive)
REMARK    1  A    between atoms: C_1  and  C_2
REMARK    2  A    between atoms: C_2  and  C_25
REMARK    3  A    between atoms: N_5  and  C_9
REMARK    4  A    between atoms: C_9  and  N_10
REMARK    5  A    between atoms: C_13  and  C_16
REMARK    6  A    between atoms: C_28  and  C_31
REMARK    7  A    between atoms: C_31  and  C_32
REMARK    8  A    between atoms: C_31  and  C_33
REMARK    9  A    between atoms: C_31  and  C_34
REMARK                            x       y       z     vdW  Elec       q    Type
REMARK                         _______ _______ _______ _____ _____    ______ ____
ROOT
ATOM      1  C   UNL     1       3.022   0.765  -1.281  0.00  0.00    +0.047 C 
ATOM      2  C   UNL     1       2.164   0.734  -0.015  0.00  0.00    +0.135 C 
ATOM      3  C   UNL     1       1.261  -0.484  -0.013  0.00  0.00    +0.249 C 
ATOM      4  O   UNL     1       1.601  -1.648  -0.023  0.00  0.00    -0.272 OA
ATOM      5  N   UNL     1       0.002  -0.004   0.002  0.00  0.00    -0.241 N 
ATOM      6  C   UNL     1      -0.016   1.334   0.009  0.00  0.00    +0.308 C 
ATOM      7  O   UNL     1      -1.035   1.996   0.018  0.00  0.00    -0.252 OA
ATOM      8  N   UNL     1       1.220   1.865   0.000  0.00  0.00    -0.281 N 
ATOM      9  H   UNL     1       1.599   2.897   0.002  0.00  0.00    +0.152 HD
ENDROOT
BRANCH   2  10
ATOM     10  C   UNL     1       3.033   0.752   1.217  0.00  0.00    -0.015 A 
ATOM     11  C   UNL     1       3.411  -0.436   1.813  0.00  0.00    +0.006 A 
ATOM     12  C   UNL     1       4.212  -0.420   2.939  0.00  0.00    +0.004 A 
ATOM     13  C   UNL     1       4.626   0.785   3.476  0.00  0.00    -0.042 A 
ATOM     14  C   UNL     1       4.243   1.973   2.883  0.00  0.00    +0.004 A 
ATOM     15  C   UNL     1       3.446   1.957   1.753  0.00  0.00    +0.006 A 
BRANCH  13  16
ATOM     16  C   UNL     1       5.494   0.803   4.708  0.00  0.00    -0.013 C 
ATOM     17  C   UNL     1       4.776   1.560   5.827  0.00  0.00    +0.015 C 
ATOM     18  C   UNL     1       5.769  -0.633   5.159  0.00  0.00    +0.015 C 
ATOM     19  C   UNL     1       6.818   1.500   4.388  0.00  0.00    +0.015 C 
ENDBRANCH  13  16
ENDBRANCH   2  10
BRANCH   5  20
ATOM     20  C   UNL     1      -1.199  -0.844   0.010  0.00  0.00    +0.043 C 
BRANCH  20  21
ATOM     21  N   UNL     1      -1.614  -1.117  -1.373  0.00  0.00    +0.391 N 
ATOM     22  C   UNL     1      -0.454  -1.152  -2.273  0.00  0.00    -0.076 C 
ATOM     23  C   UNL     1      -0.934  -1.293  -3.719  0.00  0.00    -0.006 C 
ATOM     24  C   UNL     1      -1.750  -2.582  -3.858  0.00  0.00    +0.072 C 
ATOM     25  C   UNL     1      -2.924  -2.541  -2.875  0.00  0.00    -0.006 C 
ATOM     26  C   UNL     1      -2.386  -2.363  -1.453  0.00  0.00    -0.076 C 
ATOM     27  H   UNL     1      -2.268  -0.295  -1.700  0.00  0.00    -0.079 HD
BRANCH  24  28
ATOM     28  C   UNL     1      -2.276  -2.696  -5.265  0.00  0.00    +0.200 A 
ATOM     29  N   UNL     1      -3.062  -1.834  -5.837  0.00  0.00    -0.213 NA
ATOM     30  C   UNL     1      -3.329  -2.256  -7.103  0.00  0.00    +0.110 A 
ATOM     31  C   UNL     1      -4.094  -1.742  -8.151  0.00  0.00    +0.031 A 
ATOM     32  C   UNL     1      -4.171  -2.430  -9.341  0.00  0.00    +0.002 A 
ATOM     33  C   UNL     1      -3.493  -3.629  -9.504  0.00  0.00    +0.004 A 
ATOM     34  C   UNL     1      -2.733  -4.148  -8.477  0.00  0.00    +0.048 A 
ATOM     35  C   UNL     1      -2.645  -3.469  -7.271  0.00  0.00    +0.155 A 
ATOM     36  O   UNL     1      -2.003  -3.706  -6.106  0.00  0.00    -0.439 OA
ENDBRANCH  24  28
ENDBRANCH  20  21
ENDBRANCH   5  20
TORSDOF 5
