REMARK  Name = ZINC39937722
REMARK  7 active torsions:
REMARK  status: ('A' for Active; 'I' for Inactive)
REMARK    1  A    between atoms: C_1  and  C_2
REMARK    2  A    between atoms: C_5  and  C_8
REMARK    3  A    between atoms: C_8  and  C_34
REMARK    4  A    between atoms: N_11  and  C_15
REMARK    5  A    between atoms: C_15  and  C_16
REMARK    6  A    between atoms: C_16  and  C_18
REMARK    7  A    between atoms: C_26  and  C_28
REMARK                            x       y       z     vdW  Elec       q    Type
REMARK                         _______ _______ _______ _____ _____    ______ ____
ROOT
ATOM      1  C   UNL     1       2.495  -7.598   1.643  0.00  0.00    +0.180 C 
ATOM      2  O   UNL     1       1.420  -7.994   1.241  0.00  0.00    -0.291 OA
ENDROOT
BRANCH   1   3
ATOM      3  C   UNL     1       3.337  -8.462   2.375  0.00  0.00    +0.032 C 
ATOM      4  C   UNL     1       4.581  -8.169   2.905  0.00  0.00    +0.007 A 
ATOM      5  C   UNL     1       5.377  -6.999   2.899  0.00  0.00    +0.010 A 
ATOM      6  C   UNL     1       6.583  -6.993   3.510  0.00  0.00    +0.001 A 
ATOM      7  C   UNL     1       7.100  -8.120   4.169  0.00  0.00    +0.002 A 
ATOM      8  C   UNL     1       6.420  -9.286   4.232  0.00  0.00    +0.026 A 
ATOM      9  C   UNL     1       5.097  -9.378   3.592  0.00  0.00    +0.044 A 
ATOM     10  N   UNL     1       4.242 -10.355   3.500  0.00  0.00    -0.373 N 
ATOM     11  C   UNL     1       3.066  -9.903   2.750  0.00  0.00    +0.144 C 
ATOM     12  H   UNL     1       4.362 -11.243   3.873  0.00  0.00    +0.161 HD
BRANCH  11  13
ATOM     13  C   UNL     1       1.832  -9.991   3.611  0.00  0.00    -0.021 A 
ATOM     14  C   UNL     1       1.907  -9.694   4.958  0.00  0.00    +0.006 A 
ATOM     15  C   UNL     1       0.775  -9.774   5.748  0.00  0.00    +0.000 A 
ATOM     16  C   UNL     1      -0.432 -10.153   5.189  0.00  0.00    +0.000 A 
ATOM     17  C   UNL     1      -0.507 -10.449   3.841  0.00  0.00    +0.000 A 
ATOM     18  C   UNL     1       0.624 -10.364   3.051  0.00  0.00    +0.006 A 
ENDBRANCH  11  13
ENDBRANCH   1   3
BRANCH   1  19
ATOM     19  C   UNL     1       2.931  -6.184   1.360  0.00  0.00    +0.197 C 
BRANCH  19  23
ATOM     20  C   UNL     1       0.059  -4.275  -0.021  0.00  0.00    +0.135 C 
ATOM     21  C   UNL     1       0.874  -4.805   1.142  0.00  0.00    +0.251 C 
ATOM     22  O   UNL     1       0.656  -4.640   2.324  0.00  0.00    -0.272 OA
ATOM     23  N   UNL     1       1.890  -5.497   0.591  0.00  0.00    -0.216 N 
ATOM     24  C   UNL     1       1.832  -5.479  -0.746  0.00  0.00    +0.310 C 
ATOM     25  O   UNL     1       2.639  -6.033  -1.465  0.00  0.00    -0.252 OA
ATOM     26  N   UNL     1       0.779  -4.778  -1.205  0.00  0.00    -0.281 N 
ATOM     27  C   UNL     1      -1.366  -4.831   0.018  0.00  0.00    +0.047 C 
ATOM     28  H   UNL     1       0.540  -4.632  -2.133  0.00  0.00    +0.152 HD
BRANCH  20  33
ATOM     29  C   UNL     1      -0.018   1.503   0.010  0.00  0.00    +0.044 C 
ATOM     30  C   UNL     1       0.002  -0.004   0.002  0.00  0.00    -0.050 A 
ATOM     31  C   UNL     1       0.006  -0.689  -1.199  0.00  0.00    +0.004 A 
ATOM     32  C   UNL     1       0.025  -2.071  -1.206  0.00  0.00    +0.006 A 
ATOM     33  C   UNL     1       0.040  -2.768  -0.013  0.00  0.00    -0.015 A 
ATOM     34  C   UNL     1       0.037  -2.084   1.188  0.00  0.00    +0.006 A 
ATOM     35  C   UNL     1       0.023  -0.702   1.195  0.00  0.00    +0.004 A 
ENDBRANCH  20  33
ENDBRANCH  19  23
ENDBRANCH   1  19
TORSDOF 5
