REMARK  Name = ZINC39531575
REMARK  7 active torsions:
REMARK  status: ('A' for Active; 'I' for Inactive)
REMARK    1  A    between atoms: C_1  and  C_2
REMARK    2  A    between atoms: C_5  and  C_8
REMARK    3  A    between atoms: C_8  and  C_10
REMARK    4  A    between atoms: C_8  and  N_13
REMARK    5  A    between atoms: C_10  and  N_11
REMARK    6  A    between atoms: C_17  and  C_20
REMARK    7  A    between atoms: C_25  and  O_26
REMARK                            x       y       z     vdW  Elec       q    Type
REMARK                         _______ _______ _______ _____ _____    ______ ____
ROOT
ATOM      1  N   UNL     1       0.871  -4.807   1.081  0.00  0.00    -0.297 NA
ATOM      2  C   UNL     1       2.249  -4.299   1.014  0.00  0.00    +0.066 C 
ATOM      3  C   UNL     1       3.043  -4.827   2.210  0.00  0.00    -0.066 C 
ATOM      4  N   UNL     1       3.044  -6.296   2.188  0.00  0.00    +0.385 N 
ATOM      5  C   UNL     1       1.663  -6.789   2.280  0.00  0.00    -0.023 C 
ATOM      6  C   UNL     1       0.857  -6.277   1.085  0.00  0.00    +0.074 C 
ATOM      7  H   UNL     1       3.459  -6.619   1.327  0.00  0.00    -0.085 HD
ATOM      8  H   UNL     1       3.578  -6.644   2.970  0.00  0.00    -0.085 HD
ENDROOT
BRANCH   5   9
ATOM      9  C   UNL     1       1.667  -8.296   2.276  0.00  0.00    -0.019 A 
ATOM     10  C   UNL     1       2.764  -8.983   1.794  0.00  0.00    +0.005 A 
ATOM     11  C   UNL     1       2.768 -10.365   1.788  0.00  0.00    +0.000 A 
ATOM     12  C   UNL     1       1.674 -11.064   2.265  0.00  0.00    +0.004 A 
ATOM     13  C   UNL     1       0.575 -10.382   2.749  0.00  0.00    +0.045 A 
ATOM     14  C   UNL     1       0.571  -8.994   2.760  0.00  0.00    +0.118 A 
BRANCH  14  15
ATOM     15  O   UNL     1      -0.508  -8.320   3.240  0.00  0.00    -0.507 OA
ATOM     16  H   UNL     1      -1.178  -8.123   2.571  0.00  0.00    +0.292 HD
ENDBRANCH  14  15
ENDBRANCH   5   9
BRANCH   1  17
ATOM     17  C   UNL     1       0.059  -4.275  -0.021  0.00  0.00    +0.101 C 
BRANCH  17  22
ATOM     18  C   UNL     1      -5.358  -3.435   1.804  0.00  0.00    +0.044 C 
ATOM     19  C   UNL     1      -3.946  -3.654   1.328  0.00  0.00    -0.050 A 
ATOM     20  C   UNL     1      -3.314  -2.687   0.569  0.00  0.00    +0.003 A 
ATOM     21  C   UNL     1      -2.018  -2.888   0.132  0.00  0.00    +0.005 A 
ATOM     22  C   UNL     1      -1.353  -4.056   0.455  0.00  0.00    -0.029 A 
ATOM     23  C   UNL     1      -1.984  -5.022   1.216  0.00  0.00    +0.005 A 
ATOM     24  C   UNL     1      -3.279  -4.820   1.656  0.00  0.00    +0.003 A 
ENDBRANCH  17  22
BRANCH  17  25
ATOM     25  C   UNL     1       0.057  -5.274  -1.181  0.00  0.00    +0.115 C 
BRANCH  25  26
ATOM     26  N   UNL     1       1.439  -5.535  -1.605  0.00  0.00    -0.259 NA
ATOM     27  I   UNL     1       1.490  -6.870  -3.160  0.00  0.00    +0.018 I 
ATOM     28  H   UNL     1       1.910  -4.676  -1.850  0.00  0.00    +0.134 HD
ENDBRANCH  25  26
ENDBRANCH  17  25
ENDBRANCH   1  17
TORSDOF 6
