REMARK  Name = ZINC32640233
REMARK  9 active torsions:
REMARK  status: ('A' for Active; 'I' for Inactive)
REMARK    1  A    between atoms: C_1  and  C_2
REMARK    2  A    between atoms: C_5  and  C_33
REMARK    3  A    between atoms: C_6  and  N_8
REMARK    4  A    between atoms: C_9  and  C_11
REMARK    5  A    between atoms: C_11  and  S_12
REMARK    6  A    between atoms: S_12  and  C_13
REMARK    7  A    between atoms: N_24  and  C_25
REMARK    8  A    between atoms: C_28  and  C_32
REMARK    9  A    between atoms: C_29  and  C_31
REMARK                            x       y       z     vdW  Elec       q    Type
REMARK                         _______ _______ _______ _____ _____    ______ ____
ROOT
ATOM      1  C   UNL     1      -8.585   2.851  -0.289  0.00  0.00    +0.157 C 
ATOM      2  N   UNL     1      -9.055   3.255   0.848  0.00  0.00    -0.256 NA
ATOM      3  C   UNL     1     -10.487   3.564   0.718  0.00  0.00    +0.151 C 
ATOM      4  C   UNL     1     -11.284   2.691   1.711  0.00  0.00    +0.194 C 
ATOM      5  S   UNL     1     -11.723   1.244   0.654  0.00  0.00    -0.027 S 
ATOM      6  O   UNL     1     -10.620   0.349   0.601  0.00  0.00    -0.174 OA
ATOM      7  O   UNL     1     -13.007   0.761   1.027  0.00  0.00    -0.174 OA
ATOM      8  C   UNL     1     -11.852   2.151  -0.947  0.00  0.00    +0.191 C 
ATOM      9  C   UNL     1     -10.804   3.267  -0.752  0.00  0.00    +0.128 C 
ATOM     10  N   UNL     1      -9.511   2.820  -1.299  0.00  0.00    -0.273 N 
ENDROOT
BRANCH  10  11
ATOM     11  C   UNL     1      -9.271   2.429  -2.620  0.00  0.00    +0.036 A 
ATOM     12  C   UNL     1      -8.909   1.118  -2.903  0.00  0.00    +0.024 A 
ATOM     13  C   UNL     1      -8.678   0.733  -4.209  0.00  0.00    +0.005 A 
ATOM     14  C   UNL     1      -8.796   1.654  -5.234  0.00  0.00    -0.047 A 
ATOM     15  C   UNL     1      -9.151   2.961  -4.955  0.00  0.00    -0.046 A 
ATOM     16  C   UNL     1      -9.389   3.351  -3.652  0.00  0.00    +0.027 A 
ATOM     17  C   UNL     1      -9.278   3.962  -6.075  0.00  0.00    +0.044 C 
ATOM     18  C   UNL     1      -8.537   1.233  -6.657  0.00  0.00    +0.044 C 
ENDBRANCH  10  11
BRANCH   1  19
ATOM     19  S   UNL     1      -6.901   2.389  -0.519  0.00  0.00    -0.081 S 
BRANCH  19  20
ATOM     20  C   UNL     1      -6.267   2.665   1.154  0.00  0.00    +0.173 C 
BRANCH  20  22
ATOM     21  N   UNL     1      -4.112   2.455   2.350  0.00  0.00    -0.285 N 
ATOM     22  C   UNL     1      -4.800   2.325   1.198  0.00  0.00    +0.227 C 
ATOM     23  O   UNL     1      -4.238   1.934   0.197  0.00  0.00    -0.275 OA
ATOM     24  H   UNL     1      -4.639   2.722   3.278  0.00  0.00    +0.155 HD
BRANCH  21  30
ATOM     25  C   UNL     1       0.185   2.404  -0.038  0.00  0.00    +0.044 C 
ATOM     26  C   UNL     1      -0.621   2.220   1.222  0.00  0.00    -0.049 A 
ATOM     27  C   UNL     1       0.009   1.849   2.396  0.00  0.00    +0.004 A 
ATOM     28  C   UNL     1      -0.726   1.678   3.555  0.00  0.00    +0.005 A 
ATOM     29  C   UNL     1      -2.093   1.879   3.543  0.00  0.00    -0.029 A 
ATOM     30  C   UNL     1      -2.728   2.252   2.365  0.00  0.00    +0.037 A 
ATOM     31  C   UNL     1      -1.986   2.426   1.205  0.00  0.00    +0.027 A 
ATOM     32  C   UNL     1      -2.894   1.694   4.806  0.00  0.00    +0.045 C 
ENDBRANCH  21  30
ENDBRANCH  20  22
ENDBRANCH  19  20
ENDBRANCH   1  19
TORSDOF 5
