REMARK  Name = ZINC34835696
REMARK  12 active torsions:
REMARK  status: ('A' for Active; 'I' for Inactive)
REMARK    1  A    between atoms: C_1  and  C_2
REMARK    2  A    between atoms: C_3  and  C_23
REMARK    3  A    between atoms: C_4  and  N_14
REMARK    4  A    between atoms: N_5  and  C_7
REMARK    5  A    between atoms: N_17  and  C_20
REMARK    6  A    between atoms: C_20  and  C_21
REMARK    7  A    between atoms: C_20  and  C_22
REMARK    8  A    between atoms: C_23  and  N_24
REMARK    9  A    between atoms: N_24  and  C_25
REMARK   10  A    between atoms: C_25  and  C_26
REMARK   11  A    between atoms: C_25  and  C_27
REMARK   12  A    between atoms: C_28  and  C_30
REMARK                            x       y       z     vdW  Elec       q    Type
REMARK                         _______ _______ _______ _____ _____    ______ ____
ROOT
ATOM      1  C   UNL     1       0.079   2.052  -0.086  0.00  0.00    +0.068 C 
ATOM      2  C   UNL     1      -0.221   0.662   0.413  0.00  0.00    +0.067 A 
ATOM      3  C   UNL     1      -0.166  -0.509  -0.348  0.00  0.00    +0.032 A 
ATOM      4  C   UNL     1      -0.504  -1.550   0.461  0.00  0.00    +0.130 A 
ATOM      5  N   UNL     1      -0.762  -1.039   1.696  0.00  0.00    -0.218 N 
ATOM      6  N   UNL     1      -0.570   0.347   1.634  0.00  0.00    -0.170 NA
ENDROOT
BRANCH   5   7
ATOM      7  C   UNL     1      -1.145  -1.770   2.829  0.00  0.00    +0.070 A 
ATOM      8  C   UNL     1      -2.108  -2.765   2.721  0.00  0.00    +0.028 A 
ATOM      9  C   UNL     1      -2.485  -3.485   3.838  0.00  0.00    +0.005 A 
ATOM     10  C   UNL     1      -1.905  -3.216   5.064  0.00  0.00    +0.038 A 
ATOM     11  C   UNL     1      -0.945  -2.225   5.176  0.00  0.00    +0.125 A 
ATOM     12  C   UNL     1      -0.559  -1.505   4.059  0.00  0.00    +0.066 A 
ATOM     13  F   UNL     1      -0.379  -1.964   6.375  0.00  0.00    -0.205 F 
ENDBRANCH   5   7
BRANCH   4  14
ATOM     14  N   UNL     1      -0.573  -2.891   0.094  0.00  0.00    -0.318 N 
ATOM     15  C   UNL     1       0.022  -3.938   0.938  0.00  0.00    +0.088 C 
ATOM     16  C   UNL     1      -1.028  -5.031   1.168  0.00  0.00    -0.059 C 
ATOM     17  N   UNL     1      -1.528  -5.508  -0.127  0.00  0.00    +0.383 N 
ATOM     18  C   UNL     1      -2.233  -4.423  -0.821  0.00  0.00    -0.059 C 
ATOM     19  C   UNL     1      -1.248  -3.301  -1.147  0.00  0.00    +0.088 C 
ATOM     20  H   UNL     1      -0.752  -5.819  -0.692  0.00  0.00    -0.081 HD
BRANCH  17  21
ATOM     21  C   UNL     1      -2.452  -6.629   0.090  0.00  0.00    -0.075 C 
ATOM     22  C   UNL     1      -2.974  -7.128  -1.259  0.00  0.00    -0.014 C 
ATOM     23  C   UNL     1      -1.716  -7.765   0.803  0.00  0.00    -0.014 C 
ENDBRANCH  17  21
ENDBRANCH   4  14
BRANCH   3  24
ATOM     24  C   UNL     1       0.201  -0.602  -1.807  0.00  0.00    +0.148 C 
BRANCH  24  25
ATOM     25  N   UNL     1       1.651  -0.453  -1.956  0.00  0.00    -0.290 N 
ATOM     26  C   UNL     1       2.180   0.756  -2.228  0.00  0.00    +0.254 C 
ATOM     27  O   UNL     1       1.472   1.746  -2.217  0.00  0.00    -0.269 OA
BRANCH  26  28
ATOM     28  C   UNL     1       3.608   0.879  -2.535  0.00  0.00    +0.074 A 
ATOM     29  C   UNL     1       4.383   2.023  -2.641  0.00  0.00    +0.021 A 
ATOM     30  C   UNL     1       5.708   1.821  -2.945  0.00  0.00    +0.008 A 
ATOM     31  C   UNL     1       6.159   0.553  -3.116  0.00  0.00    +0.046 A 
ATOM     32  S   UNL     1       4.801  -0.404  -2.863  0.00  0.00    -0.092 S 
ENDBRANCH  26  28
BRANCH  25  33
ATOM     33  C   UNL     1       2.525  -1.620  -1.811  0.00  0.00    +0.071 C 
ATOM     34  C   UNL     1       2.200  -2.341  -0.501  0.00  0.00    +0.028 C 
ATOM     35  C   UNL     1       2.303  -2.573  -2.987  0.00  0.00    +0.028 C 
ENDBRANCH  25  33
ENDBRANCH  24  25
ENDBRANCH   3  24
TORSDOF 7
