REMARK  Name = ZINC47502007
REMARK  8 active torsions:
REMARK  status: ('A' for Active; 'I' for Inactive)
REMARK    1  A    between atoms: C_1  and  C_2
REMARK    2  A    between atoms: C_4  and  C_15
REMARK    3  A    between atoms: C_6  and  C_12
REMARK    4  A    between atoms: N_9  and  C_11
REMARK    5  A    between atoms: C_12  and  C_13
REMARK    6  A    between atoms: C_12  and  C_14
REMARK    7  A    between atoms: N_17  and  C_18
REMARK    8  A    between atoms: C_20  and  C_26
REMARK                            x       y       z     vdW  Elec       q    Type
REMARK                         _______ _______ _______ _____ _____    ______ ____
ROOT
ATOM      1  C   UNL     1      -0.304   0.828  -3.027  0.00  0.00    +0.249 C 
ATOM      2  O   UNL     1       0.324   1.712  -2.478  0.00  0.00    -0.270 OA
ATOM      3  N   UNL     1      -1.065   1.110  -4.103  0.00  0.00    -0.277 N 
ATOM      4  H   UNL     1      -1.624   0.422  -4.496  0.00  0.00    +0.155 HD
ENDROOT
BRANCH   1   8
ATOM      5  C   UNL     1      -0.475   1.488   0.033  0.00  0.00    +0.068 C 
ATOM      6  C   UNL     1      -0.375  -0.016   0.022  0.00  0.00    +0.070 A 
ATOM      7  C   UNL     1      -0.273  -0.826  -1.129  0.00  0.00    +0.054 A 
ATOM      8  C   UNL     1      -0.233  -0.557  -2.515  0.00  0.00    +0.051 A 
ATOM      9  C   UNL     1      -0.124  -1.641  -3.385  0.00  0.00    +0.037 A 
ATOM     10  C   UNL     1      -0.061  -2.925  -2.865  0.00  0.00    +0.047 A 
ATOM     11  N   UNL     1      -0.100  -3.149  -1.571  0.00  0.00    -0.232 NA
ATOM     12  C   UNL     1      -0.202  -2.163  -0.691  0.00  0.00    +0.159 A 
ATOM     13  N   UNL     1      -0.262  -2.124   0.678  0.00  0.00    -0.249 N 
ATOM     14  N   UNL     1      -0.362  -0.785   1.073  0.00  0.00    -0.174 NA
ATOM     15  C   UNL     1      -0.222  -3.283   1.573  0.00  0.00    +0.174 C 
BRANCH  10  16
ATOM     16  C   UNL     1       0.056  -4.094  -3.809  0.00  0.00    +0.032 C 
ATOM     17  C   UNL     1      -1.338  -4.506  -4.287  0.00  0.00    +0.014 C 
ATOM     18  C   UNL     1       0.910  -3.693  -5.014  0.00  0.00    +0.014 C 
ENDBRANCH  10  16
ENDBRANCH   1   8
BRANCH   3  19
ATOM     19  C   UNL     1      -1.048   2.398  -4.654  0.00  0.00    +0.099 A 
ATOM     20  C   UNL     1      -0.678   2.589  -5.957  0.00  0.00    +0.042 A 
ATOM     21  C   UNL     1      -0.670   3.888  -6.483  0.00  0.00    +0.073 A 
ATOM     22  C   UNL     1      -1.026   4.936  -5.705  0.00  0.00    +0.098 A 
ATOM     23  N   UNL     1      -1.394   4.748  -4.410  0.00  0.00    -0.327 N 
ATOM     24  H   UNL     1      -1.645   5.512  -3.868  0.00  0.00    +0.168 HD
ATOM     25  C   UNL     1      -1.419   3.514  -3.873  0.00  0.00    +0.270 A 
ATOM     26  O   UNL     1      -1.758   3.360  -2.710  0.00  0.00    -0.266 OA
BRANCH  21  27
ATOM     27  C   UNL     1      -0.265   4.118  -7.916  0.00  0.00    +0.419 C 
ATOM     28  F   UNL     1      -0.336   5.485  -8.208  0.00  0.00    -0.166 F 
ATOM     29  F   UNL     1       1.045   3.668  -8.109  0.00  0.00    -0.166 F 
ATOM     30  F   UNL     1      -1.129   3.415  -8.764  0.00  0.00    -0.166 F 
ENDBRANCH  21  27
ENDBRANCH   3  19
TORSDOF 4
