REMARK  Name = ZINC09972843
REMARK  15 active torsions:
REMARK  status: ('A' for Active; 'I' for Inactive)
REMARK    1  A    between atoms: C_1  and  C_2
REMARK    2  A    between atoms: C_2  and  O_3
REMARK    3  A    between atoms: O_3  and  C_4
REMARK    4  A    between atoms: C_4  and  C_6
REMARK    5  A    between atoms: C_6  and  C_8
REMARK    6  A    between atoms: C_6  and  N_9
REMARK    7  A    between atoms: C_13  and  C_14
REMARK    8  A    between atoms: C_17  and  O_22
REMARK    9  A    between atoms: C_18  and  O_20
REMARK   10  A    between atoms: O_20  and  C_21
REMARK   11  A    between atoms: O_22  and  C_23
REMARK   12  A    between atoms: C_23  and  C_24
REMARK   13  A    between atoms: C_27  and  C_29
REMARK   14  A    between atoms: C_29  and  O_31
REMARK   15  A    between atoms: O_31  and  C_32
REMARK                            x       y       z     vdW  Elec       q    Type
REMARK                         _______ _______ _______ _____ _____    ______ ____
ROOT
ATOM      1  C   UNL     1       4.265   8.141  -1.731  0.00  0.00    -0.020 A 
ATOM      2  C   UNL     1       3.776   7.901  -0.441  0.00  0.00    +0.012 A 
ATOM      3  C   UNL     1       3.240   6.672  -0.126  0.00  0.00    +0.050 A 
ATOM      4  C   UNL     1       3.182   5.669  -1.085  0.00  0.00    +0.163 A 
ATOM      5  C   UNL     1       3.672   5.898  -2.370  0.00  0.00    +0.162 A 
ATOM      6  C   UNL     1       4.207   7.129  -2.696  0.00  0.00    +0.057 A 
ENDROOT
BRANCH   1  11
ATOM      7  N   UNL     1       5.082  12.636  -0.237  0.00  0.00    -0.215 N 
ATOM      8  C   UNL     1       5.365  11.817  -1.236  0.00  0.00    +0.261 C 
ATOM      9  O   UNL     1       6.108  12.146  -2.142  0.00  0.00    -0.269 OA
ATOM     10  C   UNL     1       4.733  10.483  -1.196  0.00  0.00    +0.080 C 
ATOM     11  C   UNL     1       4.837   9.450  -2.070  0.00  0.00    +0.028 C 
ATOM     12  S   UNL     1       3.788  10.605   0.317  0.00  0.00    -0.026 S 
ATOM     13  C   UNL     1       4.259  12.268   0.765  0.00  0.00    +0.287 C 
ATOM     14  O   UNL     1       3.915  12.915   1.737  0.00  0.00    -0.262 OA
BRANCH   7  15
ATOM     15  C   UNL     1       5.678  13.975  -0.219  0.00  0.00    +0.190 C 
ATOM     16  C   UNL     1       6.522  14.140   1.047  0.00  0.00    +0.040 C 
BRANCH  15  17
ATOM     17  C   UNL     1       4.585  15.012  -0.233  0.00  0.00    +0.328 C 
ATOM     18  O   UNL     1       3.427  14.668  -0.256  0.00  0.00    -0.249 OA
BRANCH  17  19
ATOM     19  O   UNL     1       4.898  16.317  -0.220  0.00  0.00    -0.464 OA
BRANCH  19  21
ATOM     20  C   UNL     1       4.342  18.688  -0.217  0.00  0.00    +0.048 C 
ATOM     21  C   UNL     1       3.794  17.260  -0.235  0.00  0.00    +0.229 C 
ENDBRANCH  19  21
ENDBRANCH  17  19
ENDBRANCH  15  17
ENDBRANCH   7  15
ENDBRANCH   1  11
BRANCH   5  22
ATOM     22  O   UNL     1       3.619   4.911  -3.303  0.00  0.00    -0.491 OA
ATOM     23  C   UNL     1       4.139   5.214  -4.599  0.00  0.00    +0.277 C 
ENDBRANCH   5  22
BRANCH   4  24
ATOM     24  O   UNL     1       2.652   4.459  -0.768  0.00  0.00    -0.481 OA
BRANCH  24  25
ATOM     25  C   UNL     1       2.174   4.290   0.568  0.00  0.00    +0.303 C 
BRANCH  25  26
ATOM     26  C   UNL     1       1.625   2.896   0.733  0.00  0.00    +0.143 A 
ATOM     27  C   UNL     1       2.332   1.814   1.130  0.00  0.00    +0.049 A 
ATOM     28  C   UNL     1       1.446   0.727   1.149  0.00  0.00    +0.057 A 
ATOM     29  C   UNL     1       0.229   1.204   0.753  0.00  0.00    +0.212 A 
ATOM     30  O   UNL     1       0.358   2.526   0.511  0.00  0.00    -0.450 OA
BRANCH  29  31
ATOM     31  C   UNL     1      -1.002   0.421   0.618  0.00  0.00    +0.375 C 
ATOM     32  O   UNL     1      -0.995  -0.769   0.870  0.00  0.00    -0.241 OA
BRANCH  31  33
ATOM     33  O   UNL     1      -2.142   1.019   0.216  0.00  0.00    -0.462 OA
ATOM     34  C   UNL     1      -3.322   0.181   0.104  0.00  0.00    +0.280 C 
ENDBRANCH  31  33
ENDBRANCH  29  31
ENDBRANCH  25  26
ENDBRANCH  24  25
ENDBRANCH   4  24
TORSDOF 11
