REMARK  Name = ZINC10218218
REMARK  12 active torsions:
REMARK  status: ('A' for Active; 'I' for Inactive)
REMARK    1  A    between atoms: C_1  and  C_2
REMARK    2  A    between atoms: C_5  and  S_8
REMARK    3  A    between atoms: S_8  and  C_11
REMARK    4  A    between atoms: C_11  and  C_12
REMARK    5  A    between atoms: C_12  and  C_13
REMARK    6  A    between atoms: C_13  and  C_14
REMARK    7  A    between atoms: N_16  and  C_17
REMARK    8  A    between atoms: C_17  and  C_18
REMARK    9  A    between atoms: C_18  and  N_59
REMARK   10  A    between atoms: C_19  and  N_59
REMARK   11  A    between atoms: C_20  and  N_59
REMARK   12  A    between atoms: C_26  and  N_30
REMARK                            x       y       z     vdW  Elec       q    Type
REMARK                         _______ _______ _______ _____ _____    ______ ____
ROOT
ATOM      1  C   UNL     1      -0.919   1.915  -5.101  0.00  0.00    +0.221 C 
ATOM      2  O   UNL     1       0.140   1.331  -5.189  0.00  0.00    -0.275 OA
ATOM      3  N   UNL     1      -1.582   2.281  -6.215  0.00  0.00    -0.252 N 
ATOM      4  C   UNL     1      -1.053   1.989  -7.463  0.00  0.00    +0.168 A 
ATOM      5  N   UNL     1      -1.545   2.261  -8.649  0.00  0.00    -0.224 NA
ATOM      6  C   UNL     1      -0.916   1.914  -9.792  0.00  0.00    +0.080 A 
ATOM      7  C   UNL     1      -1.333   2.146 -11.124  0.00  0.00    +0.031 A 
ATOM      8  C   UNL     1      -0.569   1.724 -12.180  0.00  0.00    +0.035 A 
ATOM      9  C   UNL     1       0.633   1.060 -11.986  0.00  0.00    +0.127 A 
ATOM     10  C   UNL     1       1.072   0.817 -10.697  0.00  0.00    +0.050 A 
ATOM     11  C   UNL     1       0.314   1.235  -9.633  0.00  0.00    +0.043 A 
ATOM     12  S   UNL     1       0.475   1.154  -7.865  0.00  0.00    -0.052 S 
ENDROOT
BRANCH   9  13
ATOM     13  N   UNL     1       1.438   0.617 -13.146  0.00  0.00    +0.056 N 
ATOM     14  O   UNL     1       2.493   0.034 -12.969  0.00  0.00    -0.126 OA
ATOM     15  O   UNL     1       1.046   0.834 -14.279  0.00  0.00    -0.126 OA
ENDBRANCH   9  13
BRANCH   1  16
ATOM     16  C   UNL     1      -1.493   2.232  -3.744  0.00  0.00    +0.098 C 
BRANCH  16  17
ATOM     17  C   UNL     1      -0.551   1.712  -2.657  0.00  0.00    +0.032 C 
BRANCH  17  18
ATOM     18  C   UNL     1      -1.135   2.034  -1.279  0.00  0.00    +0.172 C 
BRANCH  18  19
ATOM     19  S   UNL     1      -0.017   1.417   0.010  0.00  0.00    -0.003 S 
ATOM     20  O   UNL     1       0.002  -0.004   0.002  0.00  0.00    -0.169 OA
ATOM     21  O   UNL     1       1.195   2.158   0.002  0.00  0.00    -0.169 OA
BRANCH  19  26
ATOM     22  C   UNL     1      -2.690   2.891   5.215  0.00  0.00    +0.044 C 
ATOM     23  C   UNL     1      -2.022   2.523   3.915  0.00  0.00    -0.050 A 
ATOM     24  C   UNL     1      -2.295   1.306   3.318  0.00  0.00    +0.005 A 
ATOM     25  C   UNL     1      -1.683   0.968   2.126  0.00  0.00    +0.027 A 
ATOM     26  C   UNL     1      -0.798   1.847   1.530  0.00  0.00    +0.088 A 
ATOM     27  C   UNL     1      -0.521   3.062   2.129  0.00  0.00    +0.027 A 
ATOM     28  C   UNL     1      -1.137   3.402   3.319  0.00  0.00    +0.005 A 
ENDBRANCH  19  26
ENDBRANCH  18  19
ENDBRANCH  17  18
ENDBRANCH  16  17
ENDBRANCH   1  16
BRANCH   3  29
ATOM     29  C   UNL     1      -2.861   2.987  -6.109  0.00  0.00    +0.097 C 
BRANCH  29  30
ATOM     30  C   UNL     1      -2.609   4.496  -6.071  0.00  0.00    -0.060 C 
BRANCH  30  33
ATOM     31  C   UNL     1      -3.684   6.631  -5.688  0.00  0.00    -0.097 C 
ATOM     32  C   UNL     1      -4.700   5.014  -7.176  0.00  0.00    -0.097 C 
ATOM     33  N   UNL     1      -3.906   5.192  -5.942  0.00  0.00    +0.377 N 
ATOM     34  H   UNL     1      -4.423   4.790  -5.151  0.00  0.00    -0.083 HD
ENDBRANCH  30  33
ENDBRANCH  29  30
ENDBRANCH   3  29
TORSDOF 9
