REMARK  Name = ZINC39838875
REMARK  10 active torsions:
REMARK  status: ('A' for Active; 'I' for Inactive)
REMARK    1  A    between atoms: C_1  and  C_2
REMARK    2  A    between atoms: C_2  and  C_3
REMARK    3  A    between atoms: C_3  and  O_4
REMARK    4  A    between atoms: O_4  and  C_5
REMARK    5  A    between atoms: C_8  and  C_14
REMARK    6  A    between atoms: C_10  and  O_11
REMARK    7  A    between atoms: O_11  and  C_12
REMARK    8  A    between atoms: C_12  and  C_13
REMARK    9  A    between atoms: C_21  and  C_38
REMARK   10  A    between atoms: C_22  and  C_37
REMARK                            x       y       z     vdW  Elec       q    Type
REMARK                         _______ _______ _______ _____ _____    ______ ____
ROOT
ATOM      1  C   UNL     1       3.243  -4.423  -5.653  0.00  0.00    +0.151 C 
ATOM      2  C   UNL     1       4.726  -4.403  -5.479  0.00  0.00    +0.072 A 
ATOM      3  C   UNL     1       5.585  -4.975  -4.437  0.00  0.00    +0.199 A 
ATOM      4  O   UNL     1       5.178  -5.746  -3.586  0.00  0.00    -0.287 OA
ATOM      5  C   UNL     1       6.998  -4.525  -4.518  0.00  0.00    +0.065 A 
ATOM      6  C   UNL     1       7.893  -4.818  -3.490  0.00  0.00    +0.019 A 
ATOM      7  C   UNL     1       9.189  -4.393  -3.577  0.00  0.00    -0.047 A 
ATOM      8  C   UNL     1       9.614  -3.671  -4.683  0.00  0.00    -0.044 A 
ATOM      9  C   UNL     1       8.745  -3.374  -5.709  0.00  0.00    +0.050 A 
ATOM     10  C   UNL     1       7.418  -3.799  -5.645  0.00  0.00    +0.140 A 
ATOM     11  O   UNL     1       6.584  -3.504  -6.668  0.00  0.00    -0.450 OA
ATOM     12  C   UNL     1       5.258  -3.702  -6.524  0.00  0.00    +0.199 A 
ATOM     13  C   UNL     1       4.154  -3.250  -7.388  0.00  0.00    +0.288 C 
ATOM     14  O   UNL     1       4.287  -2.596  -8.403  0.00  0.00    -0.266 OA
ATOM     15  N   UNL     1       2.971  -3.668  -6.888  0.00  0.00    -0.238 N 
ATOM     16  C   UNL     1       1.716  -3.428  -7.441  0.00  0.00    +0.129 A 
ATOM     17  C   UNL     1       0.574  -3.827  -6.755  0.00  0.00    +0.045 A 
ATOM     18  C   UNL     1      -0.668  -3.582  -7.315  0.00  0.00    +0.025 A 
ATOM     19  C   UNL     1      -0.724  -2.943  -8.547  0.00  0.00    +0.059 A 
ATOM     20  C   UNL     1       0.452  -2.574  -9.172  0.00  0.00    +0.132 A 
ATOM     21  N   UNL     1       1.621  -2.817  -8.611  0.00  0.00    -0.238 NA
ATOM     22 CL   UNL     1      -2.256  -2.612  -9.295  0.00  0.00    -0.082 Cl
ATOM     23  C   UNL     1      11.046  -3.206  -4.763  0.00  0.00    +0.044 C 
ATOM     24  C   UNL     1      10.159  -4.708  -2.467  0.00  0.00    +0.044 C 
ENDROOT
BRANCH   1  28
ATOM     25  C   UNL     1       1.342  -2.530  -2.323  0.00  0.00    +0.162 A 
ATOM     26  C   UNL     1       1.908  -1.763  -3.329  0.00  0.00    +0.050 A 
ATOM     27  C   UNL     1       2.522  -2.378  -4.404  0.00  0.00    +0.009 A 
ATOM     28  C   UNL     1       2.573  -3.758  -4.479  0.00  0.00    -0.018 A 
ATOM     29  C   UNL     1       2.009  -4.529  -3.479  0.00  0.00    +0.055 A 
ATOM     30  C   UNL     1       1.397  -3.918  -2.396  0.00  0.00    +0.162 A 
BRANCH  25  31
ATOM     31  O   UNL     1       0.738  -1.926  -1.265  0.00  0.00    -0.488 OA
BRANCH  31  32
ATOM     32  C   UNL     1       0.718  -0.497  -1.257  0.00  0.00    +0.229 C 
BRANCH  32  34
ATOM     33  C   UNL     1      -0.019   1.526   0.010  0.00  0.00    +0.007 C 
ATOM     34  C   UNL     1       0.002  -0.004   0.002  0.00  0.00    +0.038 C 
ENDBRANCH  32  34
ENDBRANCH  31  32
ENDBRANCH  25  31
BRANCH  30  35
ATOM     35  O   UNL     1       0.847  -4.675  -1.408  0.00  0.00    -0.489 OA
BRANCH  35  36
ATOM     36  C   UNL     1       0.942  -6.094  -1.549  0.00  0.00    +0.226 C 
ATOM     37  C   UNL     1       0.273  -6.771  -0.352  0.00  0.00    +0.048 C 
ENDBRANCH  35  36
ENDBRANCH  30  35
ENDBRANCH   1  28
TORSDOF 6
