REMARK  Name = ZINC25758475
REMARK  8 active torsions:
REMARK  status: ('A' for Active; 'I' for Inactive)
REMARK    1  A    between atoms: C_4  and  C_29
REMARK    2  A    between atoms: C_11  and  O_12
REMARK    3  A    between atoms: O_12  and  C_13
REMARK    4  A    between atoms: C_15  and  O_28
REMARK    5  A    between atoms: C_17  and  O_27
REMARK    6  A    between atoms: C_19  and  O_26
REMARK    7  A    between atoms: C_21  and  C_24
REMARK    8  A    between atoms: C_24  and  O_25
REMARK                            x       y       z     vdW  Elec       q    Type
REMARK                         _______ _______ _______ _____ _____    ______ ____
ROOT
ATOM      1  O   UNL     1      -0.075   1.064   2.425  0.00  0.00    -0.461 OA
ENDROOT
BRANCH   1  12
ATOM      2  C   UNL     1      -1.580   2.402   3.692  0.00  0.00    +0.046 A 
ATOM      3  C   UNL     1      -2.048   2.839   4.897  0.00  0.00    +0.016 A 
ATOM      4  C   UNL     1      -1.458   2.380   6.080  0.00  0.00    +0.029 A 
ATOM      5  C   UNL     1      -1.935   2.835   7.387  0.00  0.00    +0.072 A 
ATOM      6  C   UNL     1      -1.322   2.352   8.498  0.00  0.00    +0.105 A 
ATOM      7  C   UNL     1      -0.256   1.438   8.370  0.00  0.00    +0.338 A 
ATOM      8  O   UNL     1       0.286   1.014   9.375  0.00  0.00    -0.245 OA
ATOM      9  O   UNL     1       0.177   1.024   7.169  0.00  0.00    -0.422 OA
ATOM     10  C   UNL     1      -0.389   1.466   6.025  0.00  0.00    +0.143 A 
ATOM     11  C   UNL     1       0.070   1.028   4.792  0.00  0.00    +0.092 A 
ATOM     12  C   UNL     1      -0.526   1.493   3.631  0.00  0.00    +0.128 A 
BRANCH   5  13
ATOM     13  C   UNL     1      -3.077   3.813   7.496  0.00  0.00    +0.418 C 
ATOM     14  F   UNL     1      -3.333   4.082   8.845  0.00  0.00    -0.166 F 
ATOM     15  F   UNL     1      -2.737   5.001   6.840  0.00  0.00    -0.166 F 
ATOM     16  F   UNL     1      -4.219   3.264   6.904  0.00  0.00    -0.166 F 
ENDBRANCH   5  13
ENDBRANCH   1  12
BRANCH   1  17
ATOM     17  C   UNL     1      -0.732   1.581   1.266  0.00  0.00    +0.339 C 
ATOM     18  C   UNL     1      -0.013   1.086   0.008  0.00  0.00    +0.214 C 
ATOM     19  C   UNL     1      -0.756   1.595  -1.231  0.00  0.00    +0.180 C 
ATOM     20  C   UNL     1      -2.211   1.120  -1.170  0.00  0.00    +0.177 C 
ATOM     21  C   UNL     1      -2.847   1.614   0.132  0.00  0.00    +0.179 C 
ATOM     22  O   UNL     1      -2.089   1.131   1.243  0.00  0.00    -0.331 OA
BRANCH  20  23
ATOM     23  O   UNL     1      -2.250  -0.308  -1.209  0.00  0.00    -0.386 OA
ATOM     24  H   UNL     1      -3.216  -0.833  -1.175  0.00  0.00    +0.210 HD
ENDBRANCH  20  23
BRANCH  19  25
ATOM     25  O   UNL     1      -0.133   1.077  -2.408  0.00  0.00    -0.386 OA
ATOM     26  H   UNL     1      -0.531   1.336  -3.400  0.00  0.00    +0.210 HD
ENDBRANCH  19  25
BRANCH  18  27
ATOM     27  O   UNL     1       1.327   1.582  -0.002  0.00  0.00    -0.383 OA
ATOM     28  H   UNL     1       2.001   1.328  -0.834  0.00  0.00    +0.210 HD
ENDBRANCH  18  27
BRANCH  21  29
ATOM     29  C   UNL     1      -4.282   1.094   0.228  0.00  0.00    +0.190 C 
BRANCH  29  30
ATOM     30  O   UNL     1      -4.914   1.648   1.384  0.00  0.00    -0.392 OA
ATOM     31  H   UNL     1      -5.956   1.387   1.620  0.00  0.00    +0.210 HD
ENDBRANCH  29  30
ENDBRANCH  21  29
ENDBRANCH   1  17
TORSDOF 8
