REMARK  Name = ZINC43403520
REMARK  8 active torsions:
REMARK  status: ('A' for Active; 'I' for Inactive)
REMARK    1  A    between atoms: C_1  and  C_2
REMARK    2  A    between atoms: C_2  and  C_3
REMARK    3  A    between atoms: C_2  and  C_4
REMARK    4  A    between atoms: C_2  and  N_18
REMARK    5  A    between atoms: C_6  and  C_9
REMARK    6  A    between atoms: C_9  and  N_10
REMARK    7  A    between atoms: N_10  and  C_11
REMARK    8  A    between atoms: N_10  and  C_12
REMARK                            x       y       z     vdW  Elec       q    Type
REMARK                         _______ _______ _______ _____ _____    ______ ____
ROOT
ATOM      1  C   UNL     1      -1.412  -0.526   0.013  0.00  0.00    +0.160 A 
ATOM      2  N   UNL     1      -1.960  -1.305  -0.926  0.00  0.00    -0.199 NA
ATOM      3  C   UNL     1      -3.197  -1.577  -0.615  0.00  0.00    +0.211 A 
ATOM      4  O   UNL     1      -3.481  -0.973   0.546  0.00  0.00    -0.340 OA
ATOM      5  N   UNL     1      -2.296  -0.296   0.940  0.00  0.00    -0.063 NA
ENDROOT
BRANCH   1   7
ATOM      6  C   UNL     1      -0.019   1.526   0.010  0.00  0.00    -0.003 C 
ATOM      7  C   UNL     1       0.002  -0.004   0.002  0.00  0.00    -0.012 C 
ATOM      8  C   UNL     1       0.742  -0.511   1.242  0.00  0.00    -0.003 C 
BRANCH   7   9
ATOM      9  N   UNL     1       0.690  -0.478  -1.207  0.00  0.00    +0.386 N 
ATOM     10  H   UNL     1       1.636  -0.129  -1.214  0.00  0.00    -0.089 HD
ATOM     11  H   UNL     1       0.703  -1.487  -1.212  0.00  0.00    -0.089 HD
ATOM     12  H   UNL     1       0.202  -0.144  -2.024  0.00  0.00    -0.089 HD
ENDBRANCH   7   9
ENDBRANCH   1   7
BRANCH   3  13
ATOM     13  C   UNL     1      -4.145  -2.425  -1.424  0.00  0.00    +0.022 C 
BRANCH  13  14
ATOM     14  N   UNL     1      -4.032  -3.826  -0.998  0.00  0.00    +0.386 N 
ATOM     15  C   UNL     1      -4.487  -3.954   0.393  0.00  0.00    -0.095 C 
ATOM     16  H   UNL     1      -3.070  -4.122  -1.066  0.00  0.00    -0.081 HD
BRANCH  14  17
ATOM     17  C   UNL     1      -4.866  -4.670  -1.865  0.00  0.00    -0.058 C 
ATOM     18  C   UNL     1      -4.403  -4.518  -3.323  0.00  0.00    -0.004 C 
ATOM     19  C   UNL     1      -5.078  -5.639  -4.165  0.00  0.00    +0.067 C 
ATOM     20  S   UNL     1      -4.938  -7.063  -3.004  0.00  0.00    -0.162 S 
ATOM     21  C   UNL     1      -4.736  -6.148  -1.423  0.00  0.00    +0.054 C 
ENDBRANCH  14  17
ENDBRANCH  13  14
ENDBRANCH   3  13
TORSDOF 5
