REMARK  Name = ZINC13498527
REMARK  10 active torsions:
REMARK  status: ('A' for Active; 'I' for Inactive)
REMARK    1  A    between atoms: C_1  and  C_2
REMARK    2  A    between atoms: C_7  and  C_14
REMARK    3  A    between atoms: C_14  and  N_72
REMARK    4  A    between atoms: C_15  and  N_72
REMARK    5  A    between atoms: C_20  and  C_22
REMARK    6  A    between atoms: C_20  and  C_33
REMARK    7  A    between atoms: C_20  and  N_72
REMARK    8  A    between atoms: N_26  and  C_27
REMARK    9  A    between atoms: C_33  and  C_34
REMARK   10  A    between atoms: C_33  and  C_35
REMARK                            x       y       z     vdW  Elec       q    Type
REMARK                         _______ _______ _______ _____ _____    ______ ____
ROOT
ATOM      1  N   UNL     1      -2.857   0.802  -1.161  0.00  0.00    +0.391 N 
ATOM      2  H   UNL     1      -2.752   1.592  -1.808  0.00  0.00    -0.080 HD
ENDROOT
BRANCH   1   3
ATOM      3  C   UNL     1      -1.783  -0.180  -1.423  0.00  0.00    -0.067 C 
ATOM      4  C   UNL     1      -2.001  -1.472  -0.609  0.00  0.00    -0.015 C 
ATOM      5  C   UNL     1      -0.572  -1.908  -0.200  0.00  0.00    -0.002 C 
ATOM      6  C   UNL     1       0.127  -0.559   0.098  0.00  0.00    -0.002 C 
ATOM      7  C   UNL     1      -0.430   0.401  -0.974  0.00  0.00    -0.015 C 
ENDBRANCH   1   3
BRANCH   1   8
ATOM      8  C   UNL     1      -2.757   1.301   0.227  0.00  0.00    -0.036 C 
BRANCH   8  15
ATOM      9  C   UNL     1      -3.683  -4.522   5.598  0.00  0.00    +0.044 C 
ATOM     10  C   UNL     1      -3.281  -3.434   4.636  0.00  0.00    -0.048 A 
ATOM     11  C   UNL     1      -1.944  -3.078   4.522  0.00  0.00    +0.004 A 
ATOM     12  C   UNL     1      -1.558  -2.094   3.656  0.00  0.00    +0.010 A 
ATOM     13  C   UNL     1      -2.519  -1.440   2.878  0.00  0.00    -0.001 A 
ATOM     14  C   UNL     1      -2.140  -0.381   1.940  0.00  0.00    +0.017 A 
ATOM     15  C   UNL     1      -3.114   0.213   1.207  0.00  0.00    +0.001 A 
ATOM     16  C   UNL     1      -4.460  -0.180   1.362  0.00  0.00    +0.251 A 
ATOM     17  O   UNL     1      -5.320   0.372   0.697  0.00  0.00    -0.268 OA
ATOM     18  N   UNL     1      -4.818  -1.150   2.221  0.00  0.00    -0.322 N 
ATOM     19  H   UNL     1      -5.752  -1.398   2.301  0.00  0.00    +0.169 HD
ATOM     20  C   UNL     1      -3.875  -1.798   2.991  0.00  0.00    +0.049 A 
ATOM     21  C   UNL     1      -4.244  -2.803   3.880  0.00  0.00    +0.029 A 
ENDBRANCH   8  15
ENDBRANCH   1   8
BRANCH   1  22
ATOM     22  C   UNL     1      -4.178   0.176  -1.379  0.00  0.00    +0.006 C 
BRANCH  22  23
ATOM     23  C   UNL     1      -4.078  -0.824  -2.502  0.00  0.00    +0.139 A 
ATOM     24  N   UNL     1      -3.424  -0.674  -3.627  0.00  0.00    -0.115 NA
ATOM     25  N   UNL     1      -3.578  -1.747  -4.324  0.00  0.00    -0.023 NA
ATOM     26  N   UNL     1      -4.321  -2.574  -3.675  0.00  0.00    -0.044 NA
ATOM     27  N   UNL     1      -4.650  -2.042  -2.547  0.00  0.00    -0.228 N 
BRANCH  27  28
ATOM     28  C   UNL     1      -5.487  -2.649  -1.510  0.00  0.00    +0.111 C 
ATOM     29  C   UNL     1      -4.838  -3.947  -1.025  0.00  0.00    +0.027 C 
ATOM     30  C   UNL     1      -5.713  -4.581   0.058  0.00  0.00    +0.002 C 
ATOM     31  C   UNL     1      -7.097  -4.887  -0.518  0.00  0.00    +0.000 C 
ATOM     32  C   UNL     1      -7.746  -3.589  -1.002  0.00  0.00    +0.002 C 
ATOM     33  C   UNL     1      -6.871  -2.955  -2.086  0.00  0.00    +0.027 C 
ENDBRANCH  27  28
ENDBRANCH  22  23
BRANCH  22  34
ATOM     34  C   UNL     1      -5.180   1.269  -1.756  0.00  0.00    -0.024 C 
ATOM     35  C   UNL     1      -6.599   0.699  -1.706  0.00  0.00    +0.006 C 
ATOM     36  C   UNL     1      -5.062   2.431  -0.767  0.00  0.00    +0.006 C 
ENDBRANCH  22  34
ENDBRANCH   1  22
TORSDOF 7
