REMARK  Name = ZINC10346762
REMARK  7 active torsions:
REMARK  status: ('A' for Active; 'I' for Inactive)
REMARK    1  A    between atoms: C_1  and  C_2
REMARK    2  A    between atoms: C_2  and  C_4
REMARK    3  A    between atoms: C_2  and  S_17
REMARK    4  A    between atoms: N_6  and  C_7
REMARK    5  A    between atoms: S_17  and  C_18
REMARK    6  A    between atoms: C_21  and  C_29
REMARK    7  A    between atoms: N_22  and  C_23
REMARK                            x       y       z     vdW  Elec       q    Type
REMARK                         _______ _______ _______ _____ _____    ______ ____
ROOT
ATOM      1  S   UNL     1      -0.027   3.818  -2.505  0.00  0.00    -0.073 S 
ENDROOT
BRANCH   1   2
ATOM      2  C   UNL     1       0.687   4.316  -0.973  0.00  0.00    +0.197 A 
ATOM      3  N   UNL     1       0.863   5.551  -0.559  0.00  0.00    -0.122 NA
ATOM      4  N   UNL     1       1.416   5.556   0.600  0.00  0.00    -0.125 NA
ATOM      5  C   UNL     1       1.625   4.322   1.005  0.00  0.00    +0.205 A 
ATOM      6  N   UNL     1       1.161   3.487   0.009  0.00  0.00    -0.268 N 
BRANCH   6   7
ATOM      7  C   UNL     1       1.177   2.086   0.002  0.00  0.00    +0.051 A 
ATOM      8  C   UNL     1      -0.017   1.377   0.010  0.00  0.00    +0.026 A 
ATOM      9  C   UNL     1       0.002  -0.004   0.002  0.00  0.00    +0.002 A 
ATOM     10  C   UNL     1       1.208  -0.680  -0.014  0.00  0.00    +0.000 A 
ATOM     11  C   UNL     1       2.398   0.023  -0.021  0.00  0.00    +0.002 A 
ATOM     12  C   UNL     1       2.386   1.404  -0.013  0.00  0.00    +0.026 A 
ENDBRANCH   6   7
BRANCH   5  13
ATOM     13  C   UNL     1       2.238   3.911   2.277  0.00  0.00    +0.172 A 
ATOM     14  C   UNL     1       2.951   4.712   3.118  0.00  0.00    +0.053 A 
ATOM     15  C   UNL     1       3.344   3.909   4.206  0.00  0.00    +0.042 A 
ATOM     16  C   UNL     1       2.865   2.670   3.977  0.00  0.00    +0.196 A 
ATOM     17  O   UNL     1       2.198   2.674   2.811  0.00  0.00    -0.460 OA
ENDBRANCH   5  13
ENDBRANCH   1   2
BRANCH   1  19
ATOM     18  C   UNL     1       0.922   6.183  -3.489  0.00  0.00    +0.029 C 
ATOM     19  C   UNL     1      -0.388   5.439  -3.224  0.00  0.00    +0.137 C 
BRANCH  19  20
ATOM     20  C   UNL     1      -1.134   5.258  -4.522  0.00  0.00    +0.227 C 
ATOM     21  O   UNL     1      -1.085   4.196  -5.106  0.00  0.00    -0.275 OA
ATOM     22  N   UNL     1      -1.854   6.276  -5.033  0.00  0.00    -0.309 N 
ATOM     23  H   UNL     1      -1.893   7.125  -4.566  0.00  0.00    +0.149 HD
BRANCH  22  24
ATOM     24  C   UNL     1      -2.579   6.099  -6.294  0.00  0.00    +0.035 C 
ATOM     25  C   UNL     1      -3.595   4.966  -6.144  0.00  0.00    +0.029 C 
ATOM     26  C   UNL     1      -4.352   4.782  -7.461  0.00  0.00    -0.008 C 
ATOM     27  C   UNL     1      -5.082   6.079  -7.815  0.00  0.00    +0.007 C 
ATOM     28  C   UNL     1      -4.066   7.212  -7.965  0.00  0.00    -0.008 C 
ATOM     29  C   UNL     1      -3.309   7.396  -6.648  0.00  0.00    +0.029 C 
ATOM     30  C   UNL     1      -3.075   6.865  -9.078  0.00  0.00    +0.007 C 
ATOM     31  C   UNL     1      -2.345   5.568  -8.724  0.00  0.00    -0.008 C 
ATOM     32  C   UNL     1      -3.361   4.435  -8.574  0.00  0.00    +0.007 C 
ATOM     33  C   UNL     1      -1.588   5.752  -7.407  0.00  0.00    +0.029 C 
ENDBRANCH  22  24
ENDBRANCH  19  20
ENDBRANCH   1  19
TORSDOF 6
