REMARK  Name = ZINC38611678
REMARK  7 active torsions:
REMARK  status: ('A' for Active; 'I' for Inactive)
REMARK    1  A    between atoms: C_1  and  O_2
REMARK    2  A    between atoms: O_2  and  C_3
REMARK    3  A    between atoms: C_8  and  C_9
REMARK    4  A    between atoms: C_12  and  C_19
REMARK    5  A    between atoms: N_14  and  S_15
REMARK    6  A    between atoms: S_15  and  C_18
REMARK    7  A    between atoms: C_21  and  C_32
REMARK                            x       y       z     vdW  Elec       q    Type
REMARK                         _______ _______ _______ _____ _____    ______ ____
ROOT
ATOM      1  C   UNL     1       2.075  -5.278  -1.998  0.00  0.00    +0.152 C 
ATOM      2  C   UNL     1       1.822  -6.773  -2.016  0.00  0.00    -0.014 C 
ATOM      3  C   UNL     1       2.930  -7.606  -1.839  0.00  0.00    +0.002 A 
ATOM      4  C   UNL     1       2.785  -9.009  -1.842  0.00  0.00    +0.030 A 
ATOM      5  C   UNL     1       3.881  -9.798  -1.668  0.00  0.00    +0.042 A 
ATOM      6  C   UNL     1       5.148  -9.246  -1.485  0.00  0.00    +0.022 A 
ATOM      7  C   UNL     1       5.351  -7.899  -1.473  0.00  0.00    +0.025 A 
ATOM      8  C   UNL     1       4.263  -7.024  -1.647  0.00  0.00    +0.041 A 
ATOM      9  N   UNL     1       4.464  -5.702  -1.635  0.00  0.00    -0.284 N 
ATOM     10  C   UNL     1       3.500  -4.818  -1.791  0.00  0.00    +0.230 C 
ATOM     11  O   UNL     1       3.757  -3.629  -1.769  0.00  0.00    -0.274 OA
ATOM     12 CL   UNL     1       3.697 -11.524  -1.673  0.00  0.00    -0.084 Cl
ATOM     13  H   UNL     1       5.369  -5.377  -1.505  0.00  0.00    +0.155 HD
ENDROOT
BRANCH   2  14
ATOM     14  C   UNL     1       0.520  -7.303  -2.203  0.00  0.00    -0.020 A 
ATOM     15  C   UNL     1      -0.086  -8.064  -1.190  0.00  0.00    +0.008 A 
ATOM     16  C   UNL     1      -1.351  -8.573  -1.381  0.00  0.00    +0.001 A 
ATOM     17  C   UNL     1      -2.025  -8.337  -2.568  0.00  0.00    +0.000 A 
ATOM     18  C   UNL     1      -1.437  -7.588  -3.574  0.00  0.00    +0.001 A 
ATOM     19  C   UNL     1      -0.175  -7.064  -3.400  0.00  0.00    +0.008 A 
ENDBRANCH   2  14
BRANCH   1  22
ATOM     20  C   UNL     1       0.100  -3.142   0.559  0.00  0.00    +0.157 C 
ATOM     21  C   UNL     1       1.037  -3.199  -0.664  0.00  0.00    +0.084 C 
ATOM     22  C   UNL     1       1.231  -4.679  -0.902  0.00  0.00    +0.057 C 
ATOM     23  N   UNL     1       0.576  -5.342  -0.040  0.00  0.00    -0.171 NA
ATOM     24  N   UNL     1      -0.134  -4.561   0.876  0.00  0.00    -0.120 N 
BRANCH  20  30
ATOM     25  C   UNL     1       0.694  -1.064   1.830  0.00  0.00    +0.125 A 
ATOM     26  C   UNL     1       1.310  -0.424   2.896  0.00  0.00    +0.046 A 
ATOM     27  C   UNL     1       2.005  -1.162   3.834  0.00  0.00    +0.004 A 
ATOM     28  C   UNL     1       2.087  -2.537   3.712  0.00  0.00    +0.001 A 
ATOM     29  C   UNL     1       1.474  -3.176   2.651  0.00  0.00    +0.009 A 
ATOM     30  C   UNL     1       0.773  -2.444   1.712  0.00  0.00    +0.018 A 
BRANCH  25  32
ATOM     31  C   UNL     1      -0.031   1.076   1.090  0.00  0.00    +0.277 C 
ATOM     32  O   UNL     1       0.009  -0.340   0.905  0.00  0.00    -0.495 OA
ENDBRANCH  25  32
ENDBRANCH  20  30
BRANCH  24  33
ATOM     33  S   UNL     1      -1.077  -5.132   2.111  0.00  0.00    +0.057 S 
ATOM     34  O   UNL     1      -0.470  -6.358   2.494  0.00  0.00    -0.154 OA
ATOM     35  O   UNL     1      -1.166  -4.050   3.028  0.00  0.00    -0.154 OA
ATOM     36  C   UNL     1      -2.696  -5.445   1.355  0.00  0.00    +0.220 C 
ENDBRANCH  24  33
ENDBRANCH   1  22
TORSDOF 5
