REMARK  Name = ZINC13499058
REMARK  12 active torsions:
REMARK  status: ('A' for Active; 'I' for Inactive)
REMARK    1  A    between atoms: C_1  and  C_2
REMARK    2  A    between atoms: C_4  and  C_37
REMARK    3  A    between atoms: C_7  and  C_14
REMARK    4  A    between atoms: C_14  and  N_72
REMARK    5  A    between atoms: C_15  and  N_72
REMARK    6  A    between atoms: C_20  and  C_22
REMARK    7  A    between atoms: C_20  and  C_34
REMARK    8  A    between atoms: C_20  and  N_72
REMARK    9  A    between atoms: N_26  and  C_27
REMARK   10  A    between atoms: C_27  and  C_28
REMARK   11  A    between atoms: C_34  and  C_35
REMARK   12  A    between atoms: C_34  and  C_36
REMARK                            x       y       z     vdW  Elec       q    Type
REMARK                         _______ _______ _______ _____ _____    ______ ____
ROOT
ATOM      1  N   UNL     1       1.892   6.429  -3.359  0.00  0.00    +0.391 N 
ATOM      2  H   UNL     1       2.456   6.612  -4.197  0.00  0.00    -0.080 HD
ENDROOT
BRANCH   1   3
ATOM      3  C   UNL     1       1.044   5.243  -3.600  0.00  0.00    -0.067 C 
ATOM      4  C   UNL     1       1.922   3.975  -3.636  0.00  0.00    -0.015 C 
ATOM      5  C   UNL     1       1.292   3.109  -4.756  0.00  0.00    -0.002 C 
ATOM      6  C   UNL     1       0.886   4.162  -5.816  0.00  0.00    -0.002 C 
ATOM      7  C   UNL     1       0.386   5.362  -4.986  0.00  0.00    -0.015 C 
ENDBRANCH   1   3
BRANCH   1   8
ATOM      8  C   UNL     1       1.045   7.608  -3.083  0.00  0.00    -0.036 C 
BRANCH   8  15
ATOM      9  C   UNL     1      -3.130   9.532  -9.601  0.00  0.00    +0.044 C 
ATOM     10  C   UNL     1      -2.536   9.059  -8.300  0.00  0.00    -0.048 A 
ATOM     11  C   UNL     1      -3.309   8.311  -7.423  0.00  0.00    +0.007 A 
ATOM     12  C   UNL     1      -2.790   7.873  -6.238  0.00  0.00    -0.041 A 
ATOM     13  C   UNL     1      -1.467   8.182  -5.904  0.00  0.00    +0.002 A 
ATOM     14  C   UNL     1      -0.877   7.725  -4.645  0.00  0.00    +0.017 A 
ATOM     15  C   UNL     1       0.409   8.059  -4.373  0.00  0.00    +0.001 A 
ATOM     16  C   UNL     1       1.155   8.822  -5.296  0.00  0.00    +0.251 A 
ATOM     17  O   UNL     1       2.311   9.107  -5.034  0.00  0.00    -0.268 OA
ATOM     18  N   UNL     1       0.624   9.242  -6.458  0.00  0.00    -0.322 N 
ATOM     19  H   UNL     1       1.165   9.765  -7.070  0.00  0.00    +0.169 HD
ATOM     20  C   UNL     1      -0.679   8.940  -6.791  0.00  0.00    +0.050 A 
ATOM     21  C   UNL     1      -1.230   9.375  -7.992  0.00  0.00    +0.029 A 
ATOM     22  C   UNL     1      -3.638   7.061  -5.293  0.00  0.00    +0.044 C 
ENDBRANCH   8  15
ENDBRANCH   1   8
BRANCH   1  23
ATOM     23  C   UNL     1       2.797   6.179  -2.217  0.00  0.00    +0.006 C 
BRANCH  23  24
ATOM     24  C   UNL     1       3.950   7.146  -2.294  0.00  0.00    +0.139 A 
ATOM     25  N   UNL     1       3.915   8.370  -2.761  0.00  0.00    -0.115 NA
ATOM     26  N   UNL     1       5.098   8.870  -2.656  0.00  0.00    -0.023 NA
ATOM     27  N   UNL     1       5.885   7.999  -2.129  0.00  0.00    -0.044 NA
ATOM     28  N   UNL     1       5.216   6.920  -1.897  0.00  0.00    -0.226 N 
BRANCH  28  29
ATOM     29  C   UNL     1       5.736   5.684  -1.306  0.00  0.00    +0.182 C 
BRANCH  29  30
ATOM     30  C   UNL     1       6.234   4.775  -2.400  0.00  0.00    -0.026 A 
ATOM     31  C   UNL     1       7.549   4.855  -2.819  0.00  0.00    +0.005 A 
ATOM     32  C   UNL     1       8.006   4.021  -3.822  0.00  0.00    +0.000 A 
ATOM     33  C   UNL     1       7.147   3.111  -4.410  0.00  0.00    +0.000 A 
ATOM     34  C   UNL     1       5.834   3.029  -3.987  0.00  0.00    +0.000 A 
ATOM     35  C   UNL     1       5.377   3.862  -2.984  0.00  0.00    +0.005 A 
ENDBRANCH  29  30
ENDBRANCH  28  29
ENDBRANCH  23  24
BRANCH  23  36
ATOM     36  C   UNL     1       2.055   6.376  -0.893  0.00  0.00    -0.024 C 
ATOM     37  C   UNL     1       0.969   5.306  -0.753  0.00  0.00    +0.006 C 
ATOM     38  C   UNL     1       3.043   6.254   0.269  0.00  0.00    +0.006 C 
ENDBRANCH  23  36
ENDBRANCH   1  23
TORSDOF 8
