REMARK  Name = ZINC12372119
REMARK  16 active torsions:
REMARK  status: ('A' for Active; 'I' for Inactive)
REMARK    1  A    between atoms: C_1  and  C_2
REMARK    2  A    between atoms: C_3  and  C_31
REMARK    3  A    between atoms: C_4  and  O_30
REMARK    4  A    between atoms: C_5  and  C_7
REMARK    5  A    between atoms: C_7  and  C_8
REMARK    6  A    between atoms: C_7  and  C_19
REMARK    7  A    between atoms: C_9  and  O_18
REMARK    8  A    between atoms: C_10  and  C_14
REMARK    9  A    between atoms: C_11  and  C_13
REMARK   10  A    between atoms: C_14  and  O_16
REMARK   11  A    between atoms: O_16  and  C_17
REMARK   12  A    between atoms: C_19  and  C_21
REMARK   13  A    between atoms: C_24  and  O_28
REMARK   14  A    between atoms: O_28  and  C_29
REMARK   15  A    between atoms: C_31  and  O_33
REMARK   16  A    between atoms: O_33  and  C_34
REMARK                            x       y       z     vdW  Elec       q    Type
REMARK                         _______ _______ _______ _____ _____    ______ ____
ROOT
ATOM      1  C   UNL     1      -1.235  -2.265   0.001  0.00  0.00    +0.141 C 
ENDROOT
BRANCH   1   6
ATOM      2  C   UNL     1      -6.510  -3.653   1.424  0.00  0.00    +0.052 C 
ATOM      3  C   UNL     1      -5.025  -3.442   1.276  0.00  0.00    +0.005 A 
ATOM      4  C   UNL     1      -4.006  -3.936   2.068  0.00  0.00    +0.110 A 
ATOM      5  C   UNL     1      -2.657  -3.577   1.698  0.00  0.00    +0.142 A 
ATOM      6  C   UNL     1      -2.509  -2.790   0.611  0.00  0.00    +0.048 A 
ATOM      7  S   UNL     1      -4.186  -2.518   0.076  0.00  0.00    -0.093 S 
BRANCH   5   8
ATOM      8  O   UNL     1      -1.584  -4.012   2.413  0.00  0.00    -0.505 OA
ATOM      9  H   UNL     1      -1.325  -3.420   3.133  0.00  0.00    +0.292 HD
ENDBRANCH   5   8
BRANCH   4  10
ATOM     10  C   UNL     1      -4.282  -4.788   3.232  0.00  0.00    +0.343 C 
ATOM     11  O   UNL     1      -4.457  -4.285   4.325  0.00  0.00    -0.245 OA
BRANCH  10  12
ATOM     12  O   UNL     1      -4.342  -6.127   3.089  0.00  0.00    -0.464 OA
ATOM     13  C   UNL     1      -4.619  -6.905   4.283  0.00  0.00    +0.280 C 
ENDBRANCH  10  12
ENDBRANCH   4  10
ENDBRANCH   1   6
BRANCH   1  14
ATOM     14  C   UNL     1      -1.116  -2.757  -1.418  0.00  0.00    +0.048 A 
ATOM     15  C   UNL     1      -0.143  -3.518  -1.964  0.00  0.00    +0.142 A 
ATOM     16  C   UNL     1      -0.278  -3.849  -3.363  0.00  0.00    +0.110 A 
ATOM     17  C   UNL     1      -1.391  -3.359  -4.018  0.00  0.00    +0.005 A 
ATOM     18  S   UNL     1      -2.230  -2.485  -2.781  0.00  0.00    -0.093 S 
ATOM     19  C   UNL     1      -1.784  -3.545  -5.461  0.00  0.00    +0.052 C 
BRANCH  16  20
ATOM     20  C   UNL     1       0.723  -4.670  -4.057  0.00  0.00    +0.343 C 
ATOM     21  O   UNL     1       0.602  -5.880  -4.087  0.00  0.00    -0.245 OA
BRANCH  20  22
ATOM     22  O   UNL     1       1.775  -4.083  -4.662  0.00  0.00    -0.464 OA
ATOM     23  C   UNL     1       2.724  -4.956  -5.329  0.00  0.00    +0.280 C 
ENDBRANCH  20  22
ENDBRANCH  16  20
BRANCH  15  24
ATOM     24  O   UNL     1       0.917  -3.953  -1.229  0.00  0.00    -0.505 OA
ATOM     25  H   UNL     1       0.774  -4.808  -0.800  0.00  0.00    +0.292 HD
ENDBRANCH  15  24
ENDBRANCH   1  14
BRANCH   1  26
ATOM     26  C   UNL     1      -1.258  -0.758   0.009  0.00  0.00    +0.176 C 
ATOM     27  O   UNL     1      -2.318  -0.168   0.022  0.00  0.00    -0.291 OA
BRANCH  26  28
ATOM     28  C   UNL     1       0.002  -0.004   0.002  0.00  0.00    +0.021 A 
ATOM     29  C   UNL     1       1.227  -0.683  -0.013  0.00  0.00    +0.015 A 
ATOM     30  C   UNL     1       2.405   0.027  -0.021  0.00  0.00    +0.049 A 
ATOM     31  C   UNL     1       2.383   1.417  -0.013  0.00  0.00    +0.155 A 
ATOM     32  C   UNL     1       1.169   2.098   0.002  0.00  0.00    +0.165 A 
ATOM     33  C   UNL     1      -0.017   1.396   0.010  0.00  0.00    +0.053 A 
ATOM     34  F   UNL     1       1.153   3.449   0.009  0.00  0.00    -0.202 F 
BRANCH  31  35
ATOM     35  O   UNL     1       3.549   2.112  -0.021  0.00  0.00    -0.492 OA
ATOM     36  C   UNL     1       4.758   1.351  -0.037  0.00  0.00    +0.277 C 
ENDBRANCH  31  35
ENDBRANCH  26  28
ENDBRANCH   1  26
TORSDOF 11
