REMARK  Name = ZINC39698740
REMARK  4 active torsions:
REMARK  status: ('A' for Active; 'I' for Inactive)
REMARK    1  A    between atoms: C_7  and  C_10
REMARK    2  A    between atoms: C_11  and  C_12
REMARK    3  A    between atoms: N_23  and  C_24
REMARK    4  A    between atoms: C_28  and  N_30
REMARK                            x       y       z     vdW  Elec       q    Type
REMARK                         _______ _______ _______ _____ _____    ______ ____
ROOT
ATOM      1  C   UNL     1       0.539  -5.321  -0.206  0.00  0.00    +0.190 C 
ATOM      2  N   UNL     1       0.649  -5.940   1.120  0.00  0.00    -0.322 N 
ATOM      3  C   UNL     1       1.467  -7.054   1.274  0.00  0.00    +0.041 A 
ATOM      4  C   UNL     1       2.088  -7.341   2.477  0.00  0.00    +0.024 A 
ATOM      5  C   UNL     1       2.884  -8.466   2.585  0.00  0.00    +0.002 A 
ATOM      6  C   UNL     1       3.064  -9.308   1.498  0.00  0.00    +0.001 A 
ATOM      7  C   UNL     1       2.456  -9.033   0.291  0.00  0.00    +0.015 A 
ATOM      8  C   UNL     1       1.654  -7.900   0.167  0.00  0.00    +0.058 A 
ATOM      9  C   UNL     1       1.003  -7.551  -1.107  0.00  0.00    +0.254 C 
ATOM     10  O   UNL     1       1.006  -8.338  -2.034  0.00  0.00    -0.270 OA
ATOM     11  N   UNL     1       0.406  -6.353  -1.235  0.00  0.00    -0.245 N 
ATOM     12  H   UNL     1       0.160  -5.578   1.876  0.00  0.00    +0.148 HD
ENDROOT
BRANCH  11  13
ATOM     13  C   UNL     1      -0.358  -6.090  -2.376  0.00  0.00    +0.041 A 
ATOM     14  C   UNL     1       0.256  -5.628  -3.533  0.00  0.00    +0.024 A 
ATOM     15  C   UNL     1      -0.501  -5.370  -4.659  0.00  0.00    +0.004 A 
ATOM     16  C   UNL     1      -1.869  -5.571  -4.635  0.00  0.00    +0.033 A 
ATOM     17  C   UNL     1      -2.483  -6.031  -3.485  0.00  0.00    +0.128 A 
ATOM     18  C   UNL     1      -1.731  -6.296  -2.357  0.00  0.00    +0.056 A 
BRANCH  17  19
ATOM     19  N   UNL     1      -3.948  -6.244  -3.464  0.00  0.00    +0.056 N 
ATOM     20  O   UNL     1      -4.606  -6.016  -4.452  0.00  0.00    -0.126 OA
ATOM     21  O   UNL     1      -4.486  -6.646  -2.459  0.00  0.00    -0.126 OA
ENDBRANCH  17  19
ENDBRANCH  11  13
BRANCH   1  23
ATOM     22  C   UNL     1       1.670  -3.184  -0.700  0.00  0.00    +0.005 C 
ATOM     23  C   UNL     1       1.775  -4.502  -0.478  0.00  0.00    +0.015 C 
BRANCH  22  30
ATOM     24  C   UNL     1       2.258   1.234  -1.540  0.00  0.00    +0.001 A 
ATOM     25  C   UNL     1       3.595   1.594  -1.741  0.00  0.00    +0.002 A 
ATOM     26  C   UNL     1       4.597   0.685  -1.684  0.00  0.00    +0.026 A 
ATOM     27  C   UNL     1       4.301  -0.677  -1.414  0.00  0.00    +0.043 A 
ATOM     28  N   UNL     1       5.078  -1.734  -1.308  0.00  0.00    -0.380 N 
ATOM     29  C   UNL     1       4.255  -2.911  -1.016  0.00  0.00    +0.149 C 
ATOM     30  C   UNL     1       2.826  -2.418  -0.955  0.00  0.00    -0.019 C 
ATOM     31  C   UNL     1       2.890  -1.052  -1.202  0.00  0.00    +0.003 A 
ATOM     32  C   UNL     1       1.899  -0.047  -1.277  0.00  0.00    +0.010 A 
ATOM     33  H   UNL     1       6.043  -1.734  -1.409  0.00  0.00    +0.160 HD
ENDBRANCH  22  30
ENDBRANCH   1  23
TORSDOF 4
