REMARK  Name = ZINC08663700
REMARK  5 active torsions:
REMARK  status: ('A' for Active; 'I' for Inactive)
REMARK    1  A    between atoms: C_1  and  C_2
REMARK    2  A    between atoms: C_10  and  C_11
REMARK    3  A    between atoms: C_13  and  O_19
REMARK    4  A    between atoms: C_14  and  O_18
REMARK    5  A    between atoms: O_19  and  C_20
REMARK                            x       y       z     vdW  Elec       q    Type
REMARK                         _______ _______ _______ _____ _____    ______ ____
ROOT
ATOM      1  C   UNL     1       0.086  -1.040   4.438  0.00  0.00    +0.109 C 
ATOM      2  C   UNL     1      -0.101   0.306   3.787  0.00  0.00    +0.215 C 
ATOM      3  O   UNL     1      -1.029   1.015   4.114  0.00  0.00    -0.276 OA
ATOM      4  N   UNL     1       0.763   0.723   2.840  0.00  0.00    -0.267 N 
ATOM      5  C   UNL     1       0.593   1.953   2.245  0.00  0.00    +0.158 C 
ATOM      6  N   UNL     1      -0.354   2.848   2.469  0.00  0.00    -0.154 NA
ATOM      7  C   UNL     1      -0.403   3.998   1.831  0.00  0.00    +0.276 C 
ATOM      8  O   UNL     1      -1.280   4.819   2.051  0.00  0.00    -0.267 OA
ATOM      9  C   UNL     1       0.660   4.239   0.829  0.00  0.00    +0.079 C 
ATOM     10  C   UNL     1       0.868   5.311   0.022  0.00  0.00    +0.028 C 
ATOM     11  S   UNL     1       1.593   2.721   0.980  0.00  0.00    -0.051 S 
ATOM     12  H   UNL     1       1.506   0.156   2.578  0.00  0.00    +0.157 HD
ENDROOT
BRANCH  10  13
ATOM     13  C   UNL     1      -0.140   6.375  -0.059  0.00  0.00    -0.019 A 
ATOM     14  C   UNL     1       0.259   7.715  -0.156  0.00  0.00    +0.057 A 
ATOM     15  C   UNL     1      -0.694   8.711  -0.232  0.00  0.00    +0.163 A 
ATOM     16  C   UNL     1      -2.049   8.384  -0.212  0.00  0.00    +0.172 A 
ATOM     17  C   UNL     1      -2.446   7.056  -0.116  0.00  0.00    +0.059 A 
ATOM     18  C   UNL     1      -1.502   6.054  -0.045  0.00  0.00    +0.026 A 
ATOM     19  I   UNL     1      -4.485   6.575  -0.086  0.00  0.00    -0.040 I 
BRANCH  16  20
ATOM     20  O   UNL     1      -2.984   9.366  -0.287  0.00  0.00    -0.503 OA
ATOM     21  H   UNL     1      -3.252   9.586  -1.189  0.00  0.00    +0.292 HD
ENDBRANCH  16  20
BRANCH  15  22
ATOM     22  O   UNL     1      -0.310  10.012  -0.326  0.00  0.00    -0.491 OA
ATOM     23  C   UNL     1       1.094  10.275  -0.341  0.00  0.00    +0.277 C 
ENDBRANCH  15  22
ENDBRANCH  10  13
TORSDOF 3
