REMARK  Name = ZINC62038922
REMARK  9 active torsions:
REMARK  status: ('A' for Active; 'I' for Inactive)
REMARK    1  A    between atoms: C_1  and  C_2
REMARK    2  A    between atoms: C_10  and  C_14
REMARK    3  A    between atoms: C_15  and  S_17
REMARK    4  A    between atoms: S_17  and  C_18
REMARK    5  A    between atoms: C_18  and  C_20
REMARK    6  A    between atoms: C_18  and  C_21
REMARK    7  A    between atoms: N_23  and  C_24
REMARK    8  A    between atoms: C_26  and  C_31
REMARK    9  A    between atoms: C_29  and  O_30
REMARK                            x       y       z     vdW  Elec       q    Type
REMARK                         _______ _______ _______ _____ _____    ______ ____
ROOT
ATOM      1  S   UNL     1       0.076  -2.793   2.769  0.00  0.00    -0.093 S 
ENDROOT
BRANCH   1  15
ATOM      2  C   UNL     1       0.033   1.519   0.022  0.00  0.00    +0.088 C 
ATOM      3  C   UNL     1       0.050   0.013   0.010  0.00  0.00    +0.128 A 
ATOM      4  N   UNL     1       0.061  -0.623  -1.146  0.00  0.00    -0.225 NA
ATOM      5  C   UNL     1       0.077  -1.941  -1.181  0.00  0.00    +0.113 A 
ATOM      6  C   UNL     1       0.083  -2.710   0.000  0.00  0.00    +0.043 A 
ATOM      7  C   UNL     1       0.102  -4.162  -0.184  0.00  0.00    -0.025 A 
ATOM      8  C   UNL     1       0.111  -4.617  -1.453  0.00  0.00    -0.004 A 
ATOM      9  S   UNL     1       0.095  -3.163  -2.467  0.00  0.00    -0.073 S 
ATOM     10  C   UNL     1       0.130  -6.046  -1.904  0.00  0.00    +0.046 C 
ATOM     11  C   UNL     1      -0.236  -6.937  -0.708  0.00  0.00    -0.009 C 
ATOM     12  C   UNL     1       0.593  -6.498   0.503  0.00  0.00    +0.008 C 
ATOM     13  C   UNL     1       0.112  -5.133   0.994  0.00  0.00    +0.037 C 
ATOM     14  C   UNL     1       0.073  -8.398  -1.043  0.00  0.00    +0.008 C 
ATOM     15  C   UNL     1       0.070  -1.966   1.213  0.00  0.00    +0.110 A 
ATOM     16  N   UNL     1       0.061  -0.642   1.157  0.00  0.00    -0.225 NA
ENDBRANCH   1  15
BRANCH   1  17
ATOM     17  C   UNL     1       0.056  -1.445   3.983  0.00  0.00    +0.136 C 
ATOM     18  C   UNL     1       1.354  -0.643   3.875  0.00  0.00    +0.029 C 
BRANCH  17  19
ATOM     19  C   UNL     1      -0.065  -2.021   5.370  0.00  0.00    +0.230 C 
ATOM     20  O   UNL     1       0.313  -3.152   5.593  0.00  0.00    -0.274 OA
ATOM     21  N   UNL     1      -0.593  -1.279   6.364  0.00  0.00    -0.282 N 
ATOM     22  H   UNL     1      -0.835  -0.354   6.202  0.00  0.00    +0.155 HD
BRANCH  21  23
ATOM     23  C   UNL     1      -0.792  -1.845   7.631  0.00  0.00    +0.076 A 
ATOM     24  C   UNL     1       0.100  -2.782   8.117  0.00  0.00    +0.038 A 
ATOM     25  C   UNL     1      -0.103  -3.344   9.383  0.00  0.00    +0.016 A 
ATOM     26  C   UNL     1      -1.208  -2.954  10.149  0.00  0.00    +0.015 A 
ATOM     27  C   UNL     1      -2.092  -2.019   9.658  0.00  0.00    +0.048 A 
ATOM     28  C   UNL     1      -1.888  -1.457   8.404  0.00  0.00    +0.138 A 
BRANCH  28  29
ATOM     29  O   UNL     1      -2.759  -0.532   7.927  0.00  0.00    -0.505 OA
ATOM     30  H   UNL     1      -3.496  -0.907   7.426  0.00  0.00    +0.292 HD
ENDBRANCH  28  29
BRANCH  25  31
ATOM     31  C   UNL     1       0.840  -4.342   9.905  0.00  0.00    +0.258 C 
ATOM     32  O   UNL     1       0.662  -4.828  11.002  0.00  0.00    -0.296 OA
ENDBRANCH  25  31
ENDBRANCH  21  23
ENDBRANCH  17  19
ENDBRANCH   1  17
TORSDOF 6
