REMARK  Name = ZINC01858222
REMARK  5 active torsions:
REMARK  status: ('A' for Active; 'I' for Inactive)
REMARK    1  A    between atoms: C_4  and  O_24
REMARK    2  A    between atoms: C_5  and  N_7
REMARK    3  A    between atoms: C_8  and  C_10
REMARK    4  A    between atoms: C_10  and  N_11
REMARK    5  A    between atoms: C_15  and  C_16
REMARK                            x       y       z     vdW  Elec       q    Type
REMARK                         _______ _______ _______ _____ _____    ______ ____
ROOT
ATOM      1  C   UNL     1       7.188   2.922  -0.052  0.00  0.00    +0.211 C 
ENDROOT
BRANCH   1   2
ATOM      2  N   UNL     1       5.736   3.122  -0.038  0.00  0.00    -0.246 N 
ATOM      3  C   UNL     1       4.934   2.072  -0.028  0.00  0.00    +0.259 C 
ATOM      4  O   UNL     1       5.383   0.940  -0.030  0.00  0.00    -0.269 OA
ATOM      5  C   UNL     1       3.525   2.304  -0.014  0.00  0.00    +0.078 C 
ATOM      6  C   UNL     1       2.498   1.407  -0.002  0.00  0.00    +0.035 C 
ATOM      7  S   UNL     1       3.475   4.091  -0.025  0.00  0.00    -0.061 S 
ATOM      8  C   UNL     1       5.238   4.378  -0.036  0.00  0.00    +0.121 C 
ATOM      9  S   UNL     1       6.082   5.868  -0.048  0.00  0.00    -0.027 S 
BRANCH   6  10
ATOM     10  C   UNL     1       1.160   1.865   0.011  0.00  0.00    +0.013 A 
ATOM     11  C   UNL     1      -0.018   1.127   0.024  0.00  0.00    +0.015 A 
ATOM     12  C   UNL     1      -1.195   1.833   0.029  0.00  0.00    +0.008 A 
ATOM     13  C   UNL     1      -1.154   3.191   0.031  0.00  0.00    +0.046 A 
ATOM     14  S   UNL     1       0.544   3.539   0.013  0.00  0.00    -0.097 S 
ENDBRANCH   6  10
ENDBRANCH   1   2
BRANCH   1  16
ATOM     15  N   UNL     1       8.981   2.668  -1.736  0.00  0.00    -0.281 N 
ATOM     16  C   UNL     1       7.671   2.850  -1.477  0.00  0.00    +0.235 C 
ATOM     17  O   UNL     1       6.881   2.955  -2.392  0.00  0.00    -0.274 OA
ATOM     18  H   UNL     1       9.621   2.649  -1.007  0.00  0.00    +0.155 HD
BRANCH  15  23
ATOM     19  C   UNL     1       9.226   3.036  -5.388  0.00  0.00    +0.002 A 
ATOM     20  C   UNL     1      10.283   2.191  -5.670  0.00  0.00    +0.004 A 
ATOM     21  C   UNL     1      10.913   1.502  -4.650  0.00  0.00    +0.047 A 
ATOM     22  C   UNL     1      10.485   1.657  -3.342  0.00  0.00    +0.138 A 
ATOM     23  C   UNL     1       9.419   2.508  -3.057  0.00  0.00    +0.075 A 
ATOM     24  C   UNL     1       8.788   3.191  -4.087  0.00  0.00    +0.027 A 
BRANCH  22  25
ATOM     25  O   UNL     1      11.103   0.980  -2.337  0.00  0.00    -0.505 OA
ATOM     26  H   UNL     1      10.718   0.113  -2.152  0.00  0.00    +0.292 HD
ENDBRANCH  22  25
ENDBRANCH  15  23
ENDBRANCH   1  16
TORSDOF 5
