REMARK  Name = ZINC53619551
REMARK  8 active torsions:
REMARK  status: ('A' for Active; 'I' for Inactive)
REMARK    1  A    between atoms: C_1  and  C_2
REMARK    2  A    between atoms: C_13  and  C_15
REMARK    3  A    between atoms: C_15  and  C_16
REMARK    4  A    between atoms: C_16  and  C_17
REMARK    5  A    between atoms: N_19  and  C_20
REMARK    6  A    between atoms: C_20  and  C_21
REMARK    7  A    between atoms: C_21  and  C_22
REMARK    8  A    between atoms: C_29  and  C_30
REMARK                            x       y       z     vdW  Elec       q    Type
REMARK                         _______ _______ _______ _____ _____    ______ ____
ROOT
ATOM      1  C   UNL     1      -0.019   1.526   0.010  0.00  0.00    +0.013 C 
ATOM      2  C   UNL     1       0.002  -0.004   0.002  0.00  0.00    +0.033 C 
ATOM      3  C   UNL     1       0.705  -0.489  -1.241  0.00  0.00    -0.001 A 
ATOM      4  C   UNL     1       0.471   0.176  -2.419  0.00  0.00    +0.019 A 
ATOM      5  C   UNL     1       1.091  -0.238  -3.592  0.00  0.00    +0.028 A 
ATOM      6  C   UNL     1       1.960  -1.341  -3.579  0.00  0.00    +0.139 A 
ATOM      7  C   UNL     1       2.190  -2.004  -2.382  0.00  0.00    +0.093 A 
ATOM      8  C   UNL     1       1.567  -1.577  -1.218  0.00  0.00    +0.139 A 
ATOM      9  O   UNL     1       1.838  -2.250  -0.065  0.00  0.00    -0.425 OA
ATOM     10  C   UNL     1       1.082  -1.968   1.014  0.00  0.00    +0.316 C 
ATOM     11  O   UNL     1       0.697  -2.836   1.761  0.00  0.00    -0.250 OA
ATOM     12  C   UNL     1       0.740  -0.510   1.245  0.00  0.00    +0.106 C 
ATOM     13  O   UNL     1       2.410  -1.518  -4.838  0.00  0.00    -0.462 OA
ATOM     14  C   UNL     1       1.893  -0.600  -5.671  0.00  0.00    +0.204 A 
ATOM     15  C   UNL     1       1.069   0.229  -4.990  0.00  0.00    +0.028 A 
ENDROOT
BRANCH  15  16
ATOM     16  C   UNL     1       0.302   1.374  -5.538  0.00  0.00    -0.014 A 
ATOM     17  C   UNL     1      -1.059   1.499  -5.263  0.00  0.00    +0.008 A 
ATOM     18  C   UNL     1      -1.768   2.567  -5.775  0.00  0.00    +0.001 A 
ATOM     19  C   UNL     1      -1.131   3.511  -6.559  0.00  0.00    +0.000 A 
ATOM     20  C   UNL     1       0.220   3.392  -6.835  0.00  0.00    +0.001 A 
ATOM     21  C   UNL     1       0.940   2.332  -6.324  0.00  0.00    +0.008 A 
ENDBRANCH  15  16
BRANCH  12  22
ATOM     22  C   UNL     1       2.021   0.299   1.454  0.00  0.00    +0.024 C 
BRANCH  22  23
ATOM     23  C   UNL     1       2.687  -0.127   2.764  0.00  0.00    +0.096 C 
BRANCH  23  24
ATOM     24  C   UNL     1       3.949   0.670   2.969  0.00  0.00    +0.213 C 
ATOM     25  O   UNL     1       4.284   1.497   2.148  0.00  0.00    -0.276 OA
ATOM     26  N   UNL     1       4.706   0.463   4.065  0.00  0.00    -0.315 N 
ATOM     27  H   UNL     1       4.438  -0.200   4.721  0.00  0.00    +0.149 HD
BRANCH  26  28
ATOM     28  C   UNL     1       5.933   1.237   4.264  0.00  0.00    +0.110 C 
BRANCH  28  29
ATOM     29  C   UNL     1       6.598   0.810   5.574  0.00  0.00    +0.073 C 
BRANCH  29  30
ATOM     30  C   UNL     1       7.861   1.607   5.779  0.00  0.00    +0.035 A 
ATOM     31  N   UNL     1       7.990   2.757   6.511  0.00  0.00    -0.350 N 
ATOM     32  C   UNL     1       9.284   3.138   6.432  0.00  0.00    +0.171 A 
ATOM     33  N   UNL     1       9.928   2.277   5.693  0.00  0.00    -0.352 N 
ATOM     34  C   UNL     1       9.080   1.322   5.283  0.00  0.00    +0.105 A 
ATOM     35  H   UNL     1       7.285   3.213   6.996  0.00  0.00    +0.166 HD
ATOM     36  H   UNL     1      10.873   2.318   5.478  0.00  0.00    +0.166 HD
ENDBRANCH  29  30
ENDBRANCH  28  29
ENDBRANCH  26  28
ENDBRANCH  23  24
ENDBRANCH  22  23
ENDBRANCH  12  22
TORSDOF 7
