REMARK  Name = ZINC61887977
REMARK  5 active torsions:
REMARK  status: ('A' for Active; 'I' for Inactive)
REMARK    1  A    between atoms: C_5  and  S_6
REMARK    2  A    between atoms: S_6  and  N_9
REMARK    3  A    between atoms: N_9  and  C_10
REMARK    4  A    between atoms: C_15  and  C_17
REMARK    5  A    between atoms: N_18  and  O_19
REMARK                            x       y       z     vdW  Elec       q    Type
REMARK                         _______ _______ _______ _____ _____    ______ ____
ROOT
ATOM      1  C   UNL     1      -1.012  -1.728  -2.442  0.00  0.00    +0.087 C 
ATOM      2  C   UNL     1      -0.336  -0.804  -3.477  0.00  0.00    +0.021 C 
ATOM      3  C   UNL     1       0.065  -1.756  -4.631  0.00  0.00    +0.002 C 
ATOM      4  C   UNL     1      -1.128  -2.741  -4.692  0.00  0.00    +0.013 C 
ATOM      5  C   UNL     1      -1.515  -2.960  -3.214  0.00  0.00    +0.074 C 
ENDROOT
BRANCH   5   6
ATOM      6  C   UNL     1      -3.012  -3.075  -3.083  0.00  0.00    +0.136 C 
ATOM      7  N   UNL     1      -3.524  -3.853  -2.188  0.00  0.00    -0.076 NA
ATOM      8  N   UNL     1      -3.834  -2.352  -3.918  0.00  0.00    -0.344 N 
ATOM      9  H   UNL     1      -3.449  -1.768  -4.591  0.00  0.00    +0.144 HD
ATOM     10  H   UNL     1      -4.797  -2.425  -3.834  0.00  0.00    +0.144 HD
BRANCH   7  11
ATOM     11  O   UNL     1      -2.684  -4.679  -1.403  0.00  0.00    -0.408 OA
ATOM     12  H   UNL     1      -3.150  -5.173  -0.715  0.00  0.00    +0.328 HD
ENDBRANCH   7  11
ENDBRANCH   5   6
BRANCH   1  13
ATOM     13  N   UNL     1      -2.138  -1.036  -1.812  0.00  0.00    -0.186 NA
ATOM     14  H   UNL     1      -2.879  -0.722  -2.354  0.00  0.00    +0.148 HD
BRANCH  13  15
ATOM     15  S   UNL     1      -2.147  -0.790  -0.174  0.00  0.00    +0.065 S 
ATOM     16  O   UNL     1      -1.835  -2.039   0.426  0.00  0.00    -0.153 OA
ATOM     17  O   UNL     1      -3.342  -0.080   0.123  0.00  0.00    -0.153 OA
BRANCH  15  22
ATOM     18  C   UNL     1      -0.800   1.650   0.249  0.00  0.00    +0.037 A 
ATOM     19  C   UNL     1       0.378   2.300   0.566  0.00  0.00    +0.025 A 
ATOM     20  C   UNL     1       1.489   1.563   0.815  0.00  0.00    +0.057 A 
ATOM     21  S   UNL     1       0.882  -0.103   0.603  0.00  0.00    -0.062 S 
ATOM     22  C   UNL     1      -0.810   0.296   0.197  0.00  0.00    +0.143 A 
ATOM     23 BR   UNL     1       3.229   2.147   1.269  0.00  0.00    -0.043 Br
ENDBRANCH  15  22
ENDBRANCH  13  15
ENDBRANCH   1  13
TORSDOF 5
