REMARK  Name = ZINC08198446
REMARK  7 active torsions:
REMARK  status: ('A' for Active; 'I' for Inactive)
REMARK    1  A    between atoms: C_1  and  C_2
REMARK    2  A    between atoms: C_2  and  C_3
REMARK    3  A    between atoms: C_11  and  C_12
REMARK    4  A    between atoms: C_12  and  C_13
REMARK    5  A    between atoms: N_15  and  N_16
REMARK    6  A    between atoms: C_17  and  C_19
REMARK    7  A    between atoms: C_23  and  N_25
REMARK                            x       y       z     vdW  Elec       q    Type
REMARK                         _______ _______ _______ _____ _____    ______ ____
ROOT
ATOM      1  C   UNL     1      -3.265   5.479  -1.353  0.00  0.00    +0.234 C 
ATOM      2  O   UNL     1      -2.913   4.778  -2.278  0.00  0.00    -0.274 OA
ATOM      3  N   UNL     1      -3.730   6.722  -1.588  0.00  0.00    -0.234 N 
ATOM      4  H   UNL     1      -4.011   7.282  -0.848  0.00  0.00    +0.173 HD
ENDROOT
BRANCH   3   5
ATOM      5  N   UNL     1      -3.806   7.205  -2.901  0.00  0.00    -0.230 N 
ATOM      6  C   UNL     1      -4.270   8.448  -3.135  0.00  0.00    +0.260 C 
ATOM      7  O   UNL     1      -4.623   9.150  -2.208  0.00  0.00    -0.269 OA
ATOM      8  H   UNL     1      -3.524   6.644  -3.641  0.00  0.00    +0.173 HD
BRANCH   6   9
ATOM      9  C   UNL     1      -4.350   8.958  -4.521  0.00  0.00    +0.040 A 
ATOM     10  C   UNL     1      -3.940   8.156  -5.588  0.00  0.00    +0.013 A 
ATOM     11  C   UNL     1      -4.022   8.636  -6.878  0.00  0.00    +0.003 A 
ATOM     12  C   UNL     1      -4.499   9.913  -7.116  0.00  0.00    +0.033 A 
ATOM     13  C   UNL     1      -4.902  10.715  -6.063  0.00  0.00    +0.127 A 
ATOM     14  C   UNL     1      -4.830  10.245  -4.768  0.00  0.00    +0.045 A 
BRANCH  13  15
ATOM     15  N   UNL     1      -5.411  12.079  -6.326  0.00  0.00    +0.056 N 
ATOM     16  O   UNL     1      -5.766  12.786  -5.400  0.00  0.00    -0.126 OA
ATOM     17  O   UNL     1      -5.475  12.496  -7.469  0.00  0.00    -0.126 OA
ENDBRANCH  13  15
ENDBRANCH   6   9
ENDBRANCH   3   5
BRANCH   1  18
ATOM     18  C   UNL     1      -3.184   4.959   0.059  0.00  0.00    +0.136 C 
BRANCH  18  27
ATOM     19  C   UNL     1       1.171   1.783   0.001  0.00  0.00    -0.044 A 
ATOM     20  C   UNL     1       1.166   3.171   0.007  0.00  0.00    +0.004 A 
ATOM     21  C   UNL     1      -0.015   3.859   0.023  0.00  0.00    +0.012 A 
ATOM     22  C   UNL     1      -1.222   3.161   0.031  0.00  0.00    +0.024 A 
ATOM     23  C   UNL     1      -1.224   1.756   0.017  0.00  0.00    +0.135 A 
ATOM     24  C   UNL     1      -0.013   1.076   0.008  0.00  0.00    +0.050 A 
ATOM     25  O   UNL     1      -2.512   1.357   0.035  0.00  0.00    -0.463 OA
ATOM     26  C   UNL     1      -3.341   2.416   0.048  0.00  0.00    +0.200 A 
ATOM     27  C   UNL     1      -2.636   3.555   0.047  0.00  0.00    +0.007 A 
BRANCH  19  29
ATOM     28  C   UNL     1       2.913   0.799  -1.464  0.00  0.00    +0.009 C 
ATOM     29  C   UNL     1       2.482   1.042  -0.016  0.00  0.00    +0.032 C 
ENDBRANCH  19  29
ENDBRANCH  18  27
ENDBRANCH   1  18
TORSDOF 6
