REMARK  Name = ZINC19084898
REMARK  8 active torsions:
REMARK  status: ('A' for Active; 'I' for Inactive)
REMARK    1  A    between atoms: C_1  and  C_2
REMARK    2  A    between atoms: C_2  and  C_3
REMARK    3  A    between atoms: C_2  and  C_4
REMARK    4  A    between atoms: C_2  and  C_9
REMARK    5  A    between atoms: C_4  and  N_58
REMARK    6  A    between atoms: C_9  and  N_60
REMARK    7  A    between atoms: C_17  and  C_19
REMARK    8  A    between atoms: C_17  and  O_26
REMARK                            x       y       z     vdW  Elec       q    Type
REMARK                         _______ _______ _______ _____ _____    ______ ____
ROOT
ATOM      1  C   UNL     1      -3.060   3.611  -0.055  0.00  0.00    -0.065 C 
ATOM      2  C   UNL     1      -2.492   2.977  -1.346  0.00  0.00    -0.017 C 
ATOM      3  C   UNL     1      -1.513   1.891  -0.855  0.00  0.00    -0.017 C 
ATOM      4  C   UNL     1      -1.575   1.967   0.688  0.00  0.00    -0.065 C 
ATOM      5  C   UNL     1      -2.704   1.037   1.160  0.00  0.00    +0.024 C 
ATOM      6  C   UNL     1      -3.954   1.308   0.317  0.00  0.00    +0.088 C 
ATOM      7  C   UNL     1      -4.299   2.803   0.361  0.00  0.00    +0.024 C 
ATOM      8  N   UNL     1      -2.029   3.338   0.941  0.00  0.00    +0.384 N 
ATOM      9  H   UNL     1      -2.425   3.411   1.886  0.00  0.00    -0.081 HD
ENDROOT
BRANCH   6  10
ATOM     10  C   UNL     1      -3.693   0.901  -1.111  0.00  0.00    -0.016 A 
ATOM     11  C   UNL     1      -4.333   1.560  -2.144  0.00  0.00    +0.009 A 
ATOM     12  C   UNL     1      -4.091   1.190  -3.454  0.00  0.00    +0.039 A 
ATOM     13  C   UNL     1      -3.216   0.154  -3.730  0.00  0.00    +0.123 A 
ATOM     14  C   UNL     1      -2.580  -0.508  -2.694  0.00  0.00    +0.039 A 
ATOM     15  C   UNL     1      -2.819  -0.134  -1.385  0.00  0.00    +0.009 A 
ATOM     16  F   UNL     1      -2.982  -0.211  -5.010  0.00  0.00    -0.205 F 
ENDBRANCH   6  10
BRANCH   6  17
ATOM     17  O   UNL     1      -5.050   0.552   0.834  0.00  0.00    -0.384 OA
ATOM     18  H   UNL     1      -5.877   0.674   0.348  0.00  0.00    +0.211 HD
ENDBRANCH   6  17
BRANCH   8  19
ATOM     19  C   UNL     1      -0.889   4.302   0.808  0.00  0.00    -0.074 C 
BRANCH  19  21
ATOM     20  C   UNL     1      -1.054   4.793   3.252  0.00  0.00    +0.007 C 
ATOM     21  C   UNL     1      -0.107   4.389   2.121  0.00  0.00    -0.064 C 
ATOM     22  C   UNL     1       0.513   3.027   2.437  0.00  0.00    +0.007 C 
BRANCH  21  23
ATOM     23  C   UNL     1       1.001   5.435   1.985  0.00  0.00    -0.074 C 
BRANCH  23  28
ATOM     24  C   UNL     1       1.847   4.878   4.199  0.00  0.00    -0.079 C 
ATOM     25  C   UNL     1       2.625   5.650   5.295  0.00  0.00    -0.020 C 
ATOM     26  C   UNL     1       3.288   6.800   4.503  0.00  0.00    -0.020 C 
ATOM     27  C   UNL     1       2.439   6.950   3.226  0.00  0.00    -0.079 C 
ATOM     28  N   UNL     1       1.362   5.965   3.334  0.00  0.00    +0.380 N 
ATOM     29  H   UNL     1       0.534   6.402   3.757  0.00  0.00    -0.082 HD
ENDBRANCH  23  28
ENDBRANCH  21  23
ENDBRANCH  19  21
ENDBRANCH   8  19
TORSDOF 6
