REMARK  Name = ZINC13062676
REMARK  10 active torsions:
REMARK  status: ('A' for Active; 'I' for Inactive)
REMARK    1  A    between atoms: C_1  and  C_2
REMARK    2  A    between atoms: C_2  and  C_4
REMARK    3  A    between atoms: C_2  and  N_12
REMARK    4  A    between atoms: C_13  and  C_15
REMARK    5  A    between atoms: C_15  and  C_17
REMARK    6  A    between atoms: C_15  and  O_18
REMARK    7  A    between atoms: O_18  and  C_19
REMARK    8  A    between atoms: C_19  and  C_21
REMARK    9  A    between atoms: C_30  and  N_33
REMARK   10  A    between atoms: C_34  and  C_36
REMARK                            x       y       z     vdW  Elec       q    Type
REMARK                         _______ _______ _______ _____ _____    ______ ____
ROOT
ATOM      1  O   UNL     1       4.274  -1.154  -1.930  0.00  0.00    -0.452 OA
ENDROOT
BRANCH   1   2
ATOM      2  C   UNL     1       2.880  -1.158  -2.243  0.00  0.00    +0.258 C 
ATOM      3  C   UNL     1       2.439  -2.582  -2.587  0.00  0.00    +0.062 C 
BRANCH   2   5
ATOM      4  N   UNL     1       0.764  -0.485  -1.153  0.00  0.00    -0.306 N 
ATOM      5  C   UNL     1       2.096  -0.663  -1.055  0.00  0.00    +0.254 C 
ATOM      6  O   UNL     1       2.664  -0.425  -0.010  0.00  0.00    -0.272 OA
ATOM      7  H   UNL     1       0.309  -0.676  -1.988  0.00  0.00    +0.149 HD
BRANCH   4   9
ATOM      8  C   UNL     1       0.009   1.526   0.016  0.00  0.00    +0.033 C 
ATOM      9  C   UNL     1       0.002  -0.004   0.002  0.00  0.00    +0.102 C 
BRANCH   9  10
ATOM     10  C   UNL     1      -1.418  -0.499  -0.091  0.00  0.00    -0.009 A 
ATOM     11  C   UNL     1      -1.976  -0.770  -1.327  0.00  0.00    +0.008 A 
ATOM     12  C   UNL     1      -3.278  -1.224  -1.414  0.00  0.00    +0.020 A 
ATOM     13  C   UNL     1      -4.025  -1.408  -0.263  0.00  0.00    +0.042 A 
ATOM     14  C   UNL     1      -3.468  -1.137   0.973  0.00  0.00    +0.040 A 
ATOM     15  C   UNL     1      -2.162  -0.687   1.060  0.00  0.00    +0.047 A 
ATOM     16 CL   UNL     1      -1.460  -0.353   2.612  0.00  0.00    -0.083 Cl
ATOM     17 CL   UNL     1      -5.661  -1.977  -0.372  0.00  0.00    -0.083 Cl
ENDBRANCH   9  10
ENDBRANCH   4   9
ENDBRANCH   2   5
ENDBRANCH   1   2
BRANCH   1  18
ATOM     18  C   UNL     1       5.127  -0.954  -2.947  0.00  0.00    +0.314 C 
ATOM     19  O   UNL     1       4.704  -0.788  -4.066  0.00  0.00    -0.250 OA
BRANCH  18  20
ATOM     20  C   UNL     1       6.612  -0.936  -2.692  0.00  0.00    +0.070 C 
ATOM     21  C   UNL     1       6.947   0.183  -1.704  0.00  0.00    +0.021 C 
ATOM     22  C   UNL     1       8.455   0.201  -1.446  0.00  0.00    -0.008 C 
ATOM     23  C   UNL     1       8.888  -1.145  -0.860  0.00  0.00    +0.007 C 
ATOM     24  C   UNL     1       8.553  -2.263  -1.848  0.00  0.00    -0.008 C 
ATOM     25  C   UNL     1       7.045  -2.281  -2.106  0.00  0.00    +0.021 C 
ATOM     26  C   UNL     1       9.293  -2.019  -3.165  0.00  0.00    +0.029 C 
ATOM     27  C   UNL     1       8.860  -0.674  -3.751  0.00  0.00    +0.036 C 
ATOM     28  C   UNL     1       9.195   0.445  -2.762  0.00  0.00    +0.029 C 
ATOM     29  C   UNL     1       7.352  -0.692  -4.009  0.00  0.00    +0.043 C 
BRANCH  27  30
ATOM     30  N   UNL     1       9.569  -0.440  -5.012  0.00  0.00    -0.310 N 
ATOM     31  C   UNL     1      10.915  -0.383  -5.028  0.00  0.00    +0.210 C 
ATOM     32  O   UNL     1      11.540  -0.526  -3.998  0.00  0.00    -0.276 OA
ATOM     33  C   UNL     1      11.644  -0.142  -6.324  0.00  0.00    +0.109 C 
ATOM     34  H   UNL     1       9.069  -0.325  -5.835  0.00  0.00    +0.149 HD
ENDBRANCH  27  30
ENDBRANCH  18  20
ENDBRANCH   1  18
TORSDOF 7
