REMARK  Name = ZINC58441385
REMARK  7 active torsions:
REMARK  status: ('A' for Active; 'I' for Inactive)
REMARK    1  A    between atoms: C_1  and  C_2
REMARK    2  A    between atoms: C_4  and  C_29
REMARK    3  A    between atoms: C_5  and  N_9
REMARK    4  A    between atoms: C_6  and  C_8
REMARK    5  A    between atoms: C_10  and  C_12
REMARK    6  A    between atoms: C_12  and  N_13
REMARK    7  A    between atoms: C_14  and  C_16
REMARK                            x       y       z     vdW  Elec       q    Type
REMARK                         _______ _______ _______ _____ _____    ______ ____
ROOT
ATOM      1  N   UNL     1       0.858  -6.983   2.265  0.00  0.00    -0.304 N 
ATOM      2  C   UNL     1       0.984  -8.311   2.462  0.00  0.00    +0.248 C 
ATOM      3  O   UNL     1       0.718  -9.085   1.567  0.00  0.00    -0.272 OA
ATOM      4  H   UNL     1       1.071  -6.364   2.981  0.00  0.00    +0.149 HD
ENDROOT
BRANCH   2   5
ATOM      5  C   UNL     1       1.456  -8.833   3.794  0.00  0.00    +0.169 C 
ATOM      6  C   UNL     1       2.805  -8.245   4.237  0.00  0.00    +0.056 C 
ATOM      7  C   UNL     1       3.782  -9.296   3.654  0.00  0.00    +0.100 C 
ATOM      8  C   UNL     1       2.968 -10.569   3.595  0.00  0.00    +0.221 C 
ATOM      9  O   UNL     1       3.422 -11.671   3.372  0.00  0.00    -0.275 OA
ATOM     10  N   UNL     1       1.659 -10.305   3.827  0.00  0.00    -0.246 N 
ATOM     11  C   UNL     1       0.477 -11.005   4.151  0.00  0.00    +0.052 A 
ATOM     12  C   UNL     1       0.114 -12.284   3.713  0.00  0.00    +0.025 A 
ATOM     13  C   UNL     1      -1.029 -12.892   4.183  0.00  0.00    +0.002 A 
ATOM     14  C   UNL     1      -1.851 -12.260   5.098  0.00  0.00    +0.001 A 
ATOM     15  C   UNL     1      -1.538 -10.975   5.513  0.00  0.00    +0.016 A 
ATOM     16  C   UNL     1      -0.420 -10.355   5.011  0.00  0.00    +0.032 A 
ATOM     17  S   UNL     1       0.200  -8.688   5.128  0.00  0.00    -0.088 S 
ENDBRANCH   2   5
BRANCH   1  18
ATOM     18  C   UNL     1       0.399  -6.476   0.969  0.00  0.00    +0.200 C 
BRANCH  18  20
ATOM     19  N   UNL     1      -0.052  -4.280  -0.077  0.00  0.00    -0.284 N 
ATOM     20  C   UNL     1       0.345  -4.970   1.011  0.00  0.00    +0.234 C 
ATOM     21  O   UNL     1       0.659  -4.380   2.022  0.00  0.00    -0.274 OA
ATOM     22  H   UNL     1      -0.370  -4.753  -0.862  0.00  0.00    +0.155 HD
BRANCH  19  27
ATOM     23  C   UNL     1       0.136   1.390  -0.065  0.00  0.00    +0.044 C 
ATOM     24  C   UNL     1       0.086  -0.116  -0.068  0.00  0.00    -0.050 A 
ATOM     25  C   UNL     1       0.759  -0.827  -1.045  0.00  0.00    +0.008 A 
ATOM     26  C   UNL     1       0.715  -2.207  -1.051  0.00  0.00    -0.029 A 
ATOM     27  C   UNL     1      -0.005  -2.882  -0.074  0.00  0.00    +0.039 A 
ATOM     28  C   UNL     1      -0.679  -2.165   0.906  0.00  0.00    -0.029 A 
ATOM     29  C   UNL     1      -0.628  -0.785   0.909  0.00  0.00    +0.008 A 
ATOM     30  C   UNL     1      -1.463  -2.893   1.968  0.00  0.00    +0.045 C 
ATOM     31  C   UNL     1       1.448  -2.981  -2.117  0.00  0.00    +0.045 C 
ENDBRANCH  19  27
ENDBRANCH  18  20
ENDBRANCH   1  18
TORSDOF 4
