REMARK  Name = ZINC40668847
REMARK  8 active torsions:
REMARK  status: ('A' for Active; 'I' for Inactive)
REMARK    1  A    between atoms: C_1  and  C_2
REMARK    2  A    between atoms: C_7  and  C_9
REMARK    3  A    between atoms: C_7  and  N_18
REMARK    4  A    between atoms: C_9  and  N_10
REMARK    5  A    between atoms: N_10  and  C_11
REMARK    6  A    between atoms: C_11  and  C_12
REMARK    7  A    between atoms: N_18  and  C_19
REMARK    8  A    between atoms: N_18  and  C_20
REMARK                            x       y       z     vdW  Elec       q    Type
REMARK                         _______ _______ _______ _____ _____    ______ ____
ROOT
ATOM      1  C   UNL     1       0.146   1.561  -0.142  0.00  0.00    +0.007 C 
ATOM      2  C   UNL     1       0.010   0.039  -0.060  0.00  0.00    -0.015 C 
ATOM      3  C   UNL     1       0.490  -0.587  -1.371  0.00  0.00    +0.003 C 
ATOM      4  C   UNL     1       0.355  -2.109  -1.289  0.00  0.00    -0.001 C 
ATOM      5  C   UNL     1       1.206  -2.635  -0.131  0.00  0.00    -0.014 C 
ATOM      6  C   UNL     1       0.726  -2.009   1.180  0.00  0.00    -0.082 C 
ATOM      7  C   UNL     1       0.861  -0.487   1.098  0.00  0.00    -0.011 C 
ENDROOT
BRANCH   6   8
ATOM      8  N   UNL     1      -0.682  -2.364   1.406  0.00  0.00    +0.379 N 
ATOM      9  C   UNL     1      -0.812  -3.825   1.486  0.00  0.00    -0.096 C 
ATOM     10  C   UNL     1      -1.143  -1.761   2.663  0.00  0.00    -0.096 C 
ATOM     11  H   UNL     1      -1.243  -2.018   0.641  0.00  0.00    -0.082 HD
ENDBRANCH   6   8
BRANCH   6  12
ATOM     12  C   UNL     1       1.576  -2.535   2.338  0.00  0.00    -0.094 C 
BRANCH  12  13
ATOM     13  N   UNL     1       2.978  -2.150   2.130  0.00  0.00    +0.383 N 
ATOM     14  H   UNL     1       3.300  -2.514   1.246  0.00  0.00    -0.085 HD
ATOM     15  H   UNL     1       3.054  -1.143   2.127  0.00  0.00    -0.085 HD
BRANCH  13  16
ATOM     16  C   UNL     1       3.803  -2.699   3.215  0.00  0.00    -0.007 C 
BRANCH  16  17
ATOM     17  C   UNL     1       5.242  -2.304   3.001  0.00  0.00    +0.090 A 
ATOM     18  C   UNL     1       5.831  -1.193   3.478  0.00  0.00    +0.044 A 
ATOM     19  C   UNL     1       7.175  -1.222   3.042  0.00  0.00    +0.056 A 
ATOM     20  C   UNL     1       7.327  -2.350   2.324  0.00  0.00    +0.165 A 
ATOM     21  O   UNL     1       6.154  -3.004   2.308  0.00  0.00    -0.456 OA
ATOM     22  I   UNL     1       9.095  -2.983   1.395  0.00  0.00    -0.001 I 
ENDBRANCH  16  17
ENDBRANCH  13  16
ENDBRANCH  12  13
ENDBRANCH   6  12
TORSDOF 5
