REMARK  Name = ZINC35024512
REMARK  13 active torsions:
REMARK  status: ('A' for Active; 'I' for Inactive)
REMARK    1  A    between atoms: C_1  and  C_2
REMARK    2  A    between atoms: C_4  and  O_31
REMARK    3  A    between atoms: C_10  and  C_11
REMARK    4  A    between atoms: C_10  and  C_12
REMARK    5  A    between atoms: C_15  and  O_30
REMARK    6  A    between atoms: C_19  and  C_29
REMARK    7  A    between atoms: C_22  and  O_28
REMARK    8  A    between atoms: C_24  and  C_26
REMARK    9  A    between atoms: C_26  and  O_27
REMARK   10  A    between atoms: O_31  and  C_32
REMARK   11  A    between atoms: C_32  and  C_34
REMARK   12  A    between atoms: C_34  and  C_35
REMARK   13  A    between atoms: C_34  and  C_36
REMARK                            x       y       z     vdW  Elec       q    Type
REMARK                         _______ _______ _______ _____ _____    ______ ____
ROOT
ATOM      1  C   UNL     1      -0.019   1.526   0.010  0.00  0.00    +0.014 C 
ATOM      2  C   UNL     1       0.002  -0.004   0.002  0.00  0.00    +0.060 C 
ATOM      3  C   UNL     1      -1.435  -0.519  -0.036  0.00  0.00    +0.186 C 
ATOM      4  C   UNL     1      -2.163  -0.109   1.227  0.00  0.00    +0.040 C 
ATOM      5  C   UNL     1      -1.347   0.121   2.493  0.00  0.00    +0.012 C 
ATOM      6  C   UNL     1      -2.343  -1.026   2.425  0.00  0.00    -0.025 C 
ATOM      7  C   UNL     1      -1.845  -2.466   2.388  0.00  0.00    +0.011 C 
ATOM      8  C   UNL     1      -3.652  -0.849   3.224  0.00  0.00    +0.011 C 
ATOM      9  C   UNL     1       0.152  -0.100   2.523  0.00  0.00    +0.048 C 
ATOM     10  C   UNL     1       0.763  -0.547   1.214  0.00  0.00    +0.088 C 
ATOM     11  C   UNL     1       2.203  -0.054   1.122  0.00  0.00    +0.084 C 
ATOM     12  C   UNL     1       2.919  -0.628  -0.073  0.00  0.00    -0.011 C 
ATOM     13  C   UNL     1       4.179  -0.903   0.258  0.00  0.00    -0.009 C 
ATOM     14  C   UNL     1       4.450  -0.588   1.660  0.00  0.00    +0.191 C 
ATOM     15  O   UNL     1       5.531  -0.511   2.203  0.00  0.00    -0.289 OA
ATOM     16  C   UNL     1       3.079  -0.413   2.325  0.00  0.00    +0.140 C 
ATOM     17  C   UNL     1       2.708  -1.778   2.897  0.00  0.00    +0.076 C 
ATOM     18  C   UNL     1       1.554  -1.706   3.838  0.00  0.00    -0.045 C 
ATOM     19  C   UNL     1       0.487  -0.996   3.676  0.00  0.00    -0.019 C 
ATOM     20  C   UNL     1       5.199  -1.467  -0.701  0.00  0.00    +0.047 C 
ENDROOT
BRANCH  16  21
ATOM     21  O   UNL     1       3.106   0.614   3.325  0.00  0.00    -0.380 OA
ATOM     22  H   UNL     1       3.656   0.402   4.091  0.00  0.00    +0.211 HD
ENDBRANCH  16  21
BRANCH  10  23
ATOM     23  O   UNL     1       0.749  -1.974   1.127  0.00  0.00    -0.387 OA
ATOM     24  H   UNL     1       1.165  -2.324   0.327  0.00  0.00    +0.210 HD
ENDBRANCH  10  23
BRANCH  18  25
ATOM     25  C   UNL     1       1.635  -2.541   5.096  0.00  0.00    +0.186 C 
BRANCH  25  26
ATOM     26  O   UNL     1       0.451  -2.348   5.873  0.00  0.00    -0.391 OA
ATOM     27  H   UNL     1       0.433  -2.855   6.696  0.00  0.00    +0.210 HD
ENDBRANCH  25  26
ENDBRANCH  18  25
BRANCH   3  28
ATOM     28  O   UNL     1      -1.479  -1.914  -0.300  0.00  0.00    -0.460 OA
BRANCH  28  29
ATOM     29  C   UNL     1      -1.548  -2.289  -1.587  0.00  0.00    +0.310 C 
ATOM     30  O   UNL     1      -1.569  -1.453  -2.459  0.00  0.00    -0.251 OA
BRANCH  29  31
ATOM     31  C   UNL     1      -1.597  -3.752  -1.944  0.00  0.00    +0.092 C 
ATOM     32  C   UNL     1      -1.671  -3.904  -3.465  0.00  0.00    +0.019 C 
ATOM     33  C   UNL     1      -0.338  -4.447  -1.423  0.00  0.00    +0.019 C 
ENDBRANCH  29  31
ENDBRANCH  28  29
ENDBRANCH   3  28
TORSDOF 7
