REMARK  Name = ZINC15730989
REMARK  9 active torsions:
REMARK  status: ('A' for Active; 'I' for Inactive)
REMARK    1  A    between atoms: C_1  and  C_2
REMARK    2  A    between atoms: C_10  and  S_15
REMARK    3  A    between atoms: S_15  and  N_18
REMARK    4  A    between atoms: N_18  and  C_19
REMARK    5  A    between atoms: N_18  and  C_28
REMARK    6  A    between atoms: C_19  and  C_20
REMARK    7  A    between atoms: C_25  and  O_26
REMARK    8  A    between atoms: O_26  and  C_27
REMARK    9  A    between atoms: C_33  and  N_64
REMARK                            x       y       z     vdW  Elec       q    Type
REMARK                         _______ _______ _______ _____ _____    ______ ____
ROOT
ATOM      1  N   UNL     1      -0.058   1.736  -0.075  0.00  0.00    -0.169 NA
ENDROOT
BRANCH   1   2
ATOM      2  C   UNL     1      -1.250   2.563  -0.274  0.00  0.00    +0.077 C 
ATOM      3  C   UNL     1      -1.183   3.235  -1.649  0.00  0.00    +0.002 C 
ATOM      4  C   UNL     1      -2.400   4.146  -1.825  0.00  0.00    -0.078 C 
ATOM      5  C   UNL     1      -2.526   4.539   0.562  0.00  0.00    -0.078 C 
ATOM      6  C   UNL     1      -1.312   3.641   0.811  0.00  0.00    +0.002 C 
ATOM      7  C   UNL     1      -3.490   6.136  -0.981  0.00  0.00    -0.096 C 
ATOM      8  N   UNL     1      -2.388   5.176  -0.765  0.00  0.00    +0.378 N 
ATOM      9  H   UNL     1      -1.494   5.681  -0.800  0.00  0.00    -0.082 HD
ENDBRANCH   1   2
BRANCH   1  10
ATOM     10  S   UNL     1      -0.216   0.142   0.346  0.00  0.00    +0.061 S 
ATOM     11  O   UNL     1      -1.505  -0.267  -0.091  0.00  0.00    -0.153 OA
ATOM     12  O   UNL     1       0.974  -0.510  -0.076  0.00  0.00    -0.153 OA
BRANCH  10  21
ATOM     13  C   UNL     1      -1.206   1.612   8.549  0.00  0.00    +0.020 C 
ATOM     14  C   UNL     1      -0.670   1.584   7.116  0.00  0.00    +0.057 C 
ATOM     15  C   UNL     1      -1.743   2.107   6.146  0.00  0.00    +0.110 C 
ATOM     16  C   UNL     1      -2.779   1.053   5.892  0.00  0.00    +0.218 C 
ATOM     17  O   UNL     1      -3.749   0.986   6.617  0.00  0.00    -0.275 OA
ATOM     18  N   UNL     1      -2.654   0.185   4.881  0.00  0.00    -0.284 N 
ATOM     19  C   UNL     1      -1.447   0.095   4.171  0.00  0.00    +0.049 A 
ATOM     20  C   UNL     1      -1.435   0.156   2.787  0.00  0.00    +0.053 A 
ATOM     21  C   UNL     1      -0.234   0.068   2.106  0.00  0.00    +0.107 A 
ATOM     22  C   UNL     1       0.953  -0.084   2.800  0.00  0.00    +0.030 A 
ATOM     23  C   UNL     1       0.950  -0.140   4.183  0.00  0.00    +0.018 A 
ATOM     24  C   UNL     1      -0.250  -0.054   4.869  0.00  0.00    +0.029 A 
ATOM     25  S   UNL     1      -0.286  -0.132   6.631  0.00  0.00    -0.120 S 
ATOM     26  H   UNL     1      -3.401  -0.384   4.638  0.00  0.00    +0.155 HD
ENDBRANCH  10  21
ENDBRANCH   1  10
BRANCH   1  27
ATOM     27  C   UNL     1       1.275   2.317  -0.254  0.00  0.00    +0.148 C 
BRANCH  27  28
ATOM     28  C   UNL     1       1.979   1.619  -1.389  0.00  0.00    +0.010 A 
ATOM     29  C   UNL     1       2.909   0.632  -1.124  0.00  0.00    +0.008 A 
ATOM     30  C   UNL     1       3.555  -0.008  -2.165  0.00  0.00    +0.001 A 
ATOM     31  C   UNL     1       3.272   0.337  -3.474  0.00  0.00    +0.004 A 
ATOM     32  C   UNL     1       2.343   1.322  -3.744  0.00  0.00    +0.046 A 
ATOM     33  C   UNL     1       1.690   1.964  -2.701  0.00  0.00    +0.125 A 
BRANCH  33  34
ATOM     34  O   UNL     1       0.772   2.930  -2.965  0.00  0.00    -0.495 OA
ATOM     35  C   UNL     1       0.612   3.318  -4.331  0.00  0.00    +0.277 C 
ENDBRANCH  33  34
ENDBRANCH  27  28
ENDBRANCH   1  27
TORSDOF 6
