REMARK  Name = ZINC34754856
REMARK  3 active torsions:
REMARK  status: ('A' for Active; 'I' for Inactive)
REMARK    1  A    between atoms: C_10  and  C_17
REMARK    2  A    between atoms: N_12  and  S_13
REMARK    3  A    between atoms: S_13  and  N_16
REMARK                            x       y       z     vdW  Elec       q    Type
REMARK                         _______ _______ _______ _____ _____    ______ ____
ROOT
ATOM      1  C   UNL     1      -0.019   1.533   0.011  0.00  0.00    +0.000 C 
ATOM      2  C   UNL     1       1.393   2.111   0.000  0.00  0.00    +0.002 C 
ATOM      3  C   UNL     1       2.235   1.554   1.160  0.00  0.00    +0.021 C 
ATOM      4  C   UNL     1       2.244   0.046   1.029  0.00  0.00    +0.085 C 
ATOM      5  C   UNL     1       0.786  -0.452   1.224  0.00  0.00    +0.010 C 
ATOM      6  C   UNL     1       0.002  -0.004   0.002  0.00  0.00    +0.005 C 
ATOM      7  C   UNL     1       1.027  -1.966   1.329  0.00  0.00    +0.037 C 
ATOM      8  C   UNL     1       2.333  -2.022   2.167  0.00  0.00    +0.194 C 
ATOM      9  N   UNL     1       2.998  -0.715   2.012  0.00  0.00    -0.150 NA
ENDROOT
BRANCH   9  10
ATOM     10  S   UNL     1       4.362  -0.215   2.807  0.00  0.00    +0.096 S 
ATOM     11  O   UNL     1       5.053  -1.391   3.205  0.00  0.00    -0.141 OA
ATOM     12  O   UNL     1       4.963   0.783   1.995  0.00  0.00    -0.141 OA
BRANCH  10  13
ATOM     13  N   UNL     1       3.870   0.538   4.197  0.00  0.00    -0.193 NA
ATOM     14  H   UNL     1       2.924   0.612   4.400  0.00  0.00    +0.145 HD
ATOM     15  H   UNL     1       4.527   0.906   4.809  0.00  0.00    +0.145 HD
ENDBRANCH  10  13
ENDBRANCH   9  10
BRANCH   8  16
ATOM     16  C   UNL     1       2.003  -2.253   3.619  0.00  0.00    +0.375 C 
ATOM     17  O   UNL     1       1.593  -3.342   3.985  0.00  0.00    -0.245 OA
ATOM     18  O   UNL     1       2.145  -1.352   4.428  0.00  0.00    -0.245 OA
ENDBRANCH   8  16
TORSDOF 3
