REMARK  Name = ZINC39946174
REMARK  5 active torsions:
REMARK  status: ('A' for Active; 'I' for Inactive)
REMARK    1  A    between atoms: C_4  and  N_7
REMARK    2  A    between atoms: C_8  and  S_22
REMARK    3  A    between atoms: C_12  and  C_13
REMARK    4  A    between atoms: S_22  and  C_23
REMARK    5  A    between atoms: C_23  and  C_24
REMARK                            x       y       z     vdW  Elec       q    Type
REMARK                         _______ _______ _______ _____ _____    ______ ____
ROOT
ATOM      1  N   UNL     1       3.631  -0.642   0.077  0.00  0.00    -0.254 N 
ATOM      2  C   UNL     1       3.823  -2.101   0.120  0.00  0.00    +0.241 C 
ATOM      3  N   UNL     1       5.269  -2.283  -0.086  0.00  0.00    -0.237 N 
ATOM      4  N   UNL     1       5.815  -1.002  -0.230  0.00  0.00    -0.169 NA
ATOM      5  C   UNL     1       4.892  -0.081  -0.144  0.00  0.00    +0.151 C 
ATOM      6  H   UNL     1       5.750  -3.125  -0.116  0.00  0.00    +0.171 HD
ENDROOT
BRANCH   5   7
ATOM      7  C   UNL     1       5.137   1.297  -0.256  0.00  0.00    +0.022 C 
ATOM      8  C   UNL     1       6.366   1.921  -0.468  0.00  0.00    +0.006 A 
ATOM      9  C   UNL     1       7.675   1.418  -0.630  0.00  0.00    +0.010 A 
ATOM     10  C   UNL     1       8.707   2.278  -0.827  0.00  0.00    +0.001 A 
ATOM     11  C   UNL     1       8.509   3.660  -0.874  0.00  0.00    +0.002 A 
ATOM     12  C   UNL     1       7.280   4.212  -0.726  0.00  0.00    +0.026 A 
ATOM     13  C   UNL     1       6.152   3.376  -0.517  0.00  0.00    +0.043 A 
ATOM     14  N   UNL     1       4.875   3.661  -0.348  0.00  0.00    -0.380 N 
ATOM     15  C   UNL     1       4.121   2.415  -0.177  0.00  0.00    +0.152 C 
ATOM     16  H   UNL     1       4.495   4.553  -0.342  0.00  0.00    +0.160 HD
ENDBRANCH   5   7
BRANCH   1  20
ATOM     17  C   UNL     1       0.034   1.409   0.511  0.00  0.00    +0.000 A 
ATOM     18  C   UNL     1       0.480   1.058  -0.750  0.00  0.00    +0.002 A 
ATOM     19  C   UNL     1       1.672   0.378  -0.897  0.00  0.00    +0.023 A 
ATOM     20  C   UNL     1       2.425   0.046   0.223  0.00  0.00    +0.038 A 
ATOM     21  C   UNL     1       1.974   0.401   1.488  0.00  0.00    +0.023 A 
ATOM     22  C   UNL     1       0.780   1.081   1.628  0.00  0.00    +0.002 A 
ENDBRANCH   1  20
BRANCH   2  23
ATOM     23  S   UNL     1       2.884  -2.904  -1.208  0.00  0.00    -0.108 S 
BRANCH  23  24
ATOM     24  C   UNL     1       3.565  -2.182  -2.726  0.00  0.00    +0.168 C 
BRANCH  24  25
ATOM     25  C   UNL     1       2.862  -2.771  -3.922  0.00  0.00    +0.230 C 
ATOM     26  O   UNL     1       1.988  -3.597  -3.765  0.00  0.00    -0.274 OA
ATOM     27  N   UNL     1       3.206  -2.381  -5.165  0.00  0.00    -0.270 N 
ATOM     28  C   UNL     1       2.593  -2.876  -6.401  0.00  0.00    +0.118 C 
ATOM     29  C   UNL     1       3.320  -2.137  -7.536  0.00  0.00    +0.056 C 
ATOM     30  C   UNL     1       4.322  -1.250  -6.832  0.00  0.00    -0.024 A 
ATOM     31  C   UNL     1       4.195  -1.439  -5.465  0.00  0.00    +0.039 A 
ATOM     32  C   UNL     1       5.021  -0.717  -4.602  0.00  0.00    +0.024 A 
ATOM     33  C   UNL     1       5.944   0.174  -5.106  0.00  0.00    +0.002 A 
ATOM     34  C   UNL     1       6.060   0.358  -6.471  0.00  0.00    +0.000 A 
ATOM     35  C   UNL     1       5.252  -0.360  -7.333  0.00  0.00    +0.005 A 
ENDBRANCH  24  25
ENDBRANCH  23  24
ENDBRANCH   2  23
TORSDOF 5
