REMARK  Name = ZINC29168586
REMARK  8 active torsions:
REMARK  status: ('A' for Active; 'I' for Inactive)
REMARK    1  A    between atoms: C_1  and  C_2
REMARK    2  A    between atoms: C_5  and  C_8
REMARK    3  A    between atoms: C_8  and  C_9
REMARK    4  A    between atoms: C_9  and  C_10
REMARK    5  A    between atoms: N_13  and  C_16
REMARK    6  A    between atoms: C_16  and  C_17
REMARK    7  A    between atoms: C_26  and  S_28
REMARK    8  A    between atoms: S_28  and  N_31
REMARK                            x       y       z     vdW  Elec       q    Type
REMARK                         _______ _______ _______ _____ _____    ______ ____
ROOT
ATOM      1  C   UNL     1       3.474   2.142   1.275  0.00  0.00    +0.019 C 
ENDROOT
BRANCH   1   2
ATOM      2  C   UNL     1       3.351   3.622   1.530  0.00  0.00    +0.203 C 
ATOM      3  O   UNL     1       2.254   4.132   1.622  0.00  0.00    -0.277 OA
ATOM      4  N   UNL     1       4.459   4.379   1.655  0.00  0.00    -0.272 N 
ATOM      5  C   UNL     1       5.833   3.877   1.570  0.00  0.00    +0.118 C 
ATOM      6  C   UNL     1       6.726   5.112   1.772  0.00  0.00    +0.056 C 
ATOM      7  C   UNL     1       5.756   6.255   1.972  0.00  0.00    -0.023 A 
ATOM      8  C   UNL     1       4.465   5.757   1.892  0.00  0.00    +0.040 A 
ATOM      9  C   UNL     1       3.390   6.633   2.048  0.00  0.00    +0.026 A 
ATOM     10  C   UNL     1       3.613   7.974   2.278  0.00  0.00    +0.030 A 
ATOM     11  C   UNL     1       4.905   8.461   2.356  0.00  0.00    +0.105 A 
ATOM     12  C   UNL     1       5.975   7.599   2.203  0.00  0.00    +0.034 A 
BRANCH  11  13
ATOM     13  S   UNL     1       5.186  10.176   2.650  0.00  0.00    +0.056 S 
ATOM     14  O   UNL     1       6.478  10.469   2.136  0.00  0.00    -0.153 OA
ATOM     15  O   UNL     1       4.019  10.859   2.213  0.00  0.00    -0.153 OA
BRANCH  13  16
ATOM     16  N   UNL     1       5.271  10.384   4.290  0.00  0.00    -0.204 NA
ATOM     17  H   UNL     1       5.447  11.446   4.516  0.00  0.00    +0.144 HD
ATOM     18  H   UNL     1       6.098   9.781   4.694  0.00  0.00    +0.144 HD
ENDBRANCH  13  16
ENDBRANCH  11  13
ENDBRANCH   1   2
BRANCH   1  22
ATOM     19  C   UNL     1       0.002  -0.004   0.002  0.00  0.00    -0.014 C 
ATOM     20  C   UNL     1      -0.019   1.527   0.010  0.00  0.00    -0.015 C 
ATOM     21  C   UNL     1       1.419   2.052  -0.001  0.00  0.00    -0.078 C 
ATOM     22  N   UNL     1       2.134   1.548   1.179  0.00  0.00    +0.385 N 
ATOM     23  C   UNL     1       2.208   0.081   1.168  0.00  0.00    -0.078 C 
ATOM     24  C   UNL     1       0.794  -0.503   1.214  0.00  0.00    -0.015 C 
ATOM     25  H   UNL     1       1.565   1.848   2.070  0.00  0.00    -0.081 HD
BRANCH  19  26
ATOM     26  C   UNL     1      -1.431  -0.535   0.074  0.00  0.00    +0.008 C 
BRANCH  26  27
ATOM     27  C   UNL     1      -1.417  -2.059  -0.060  0.00  0.00    +0.035 C 
BRANCH  27  32
ATOM     28  C   UNL     1      -6.830  -4.065   0.213  0.00  0.00    +0.044 C 
ATOM     29  C   UNL     1      -5.418  -3.543   0.142  0.00  0.00    -0.050 A 
ATOM     30  C   UNL     1      -4.869  -3.199  -1.079  0.00  0.00    +0.003 A 
ATOM     31  C   UNL     1      -3.574  -2.719  -1.145  0.00  0.00    +0.004 A 
ATOM     32  C   UNL     1      -2.829  -2.583   0.011  0.00  0.00    -0.047 A 
ATOM     33  C   UNL     1      -3.376  -2.931   1.232  0.00  0.00    +0.004 A 
ATOM     34  C   UNL     1      -4.672  -3.407   1.298  0.00  0.00    +0.003 A 
ENDBRANCH  27  32
ENDBRANCH  26  27
ENDBRANCH  19  26
ENDBRANCH   1  22
TORSDOF 7
