REMARK  Name = ZINC09923558
REMARK  10 active torsions:
REMARK  status: ('A' for Active; 'I' for Inactive)
REMARK    1  A    between atoms: C_1  and  C_2
REMARK    2  A    between atoms: C_2  and  C_4
REMARK    3  A    between atoms: C_2  and  O_16
REMARK    4  A    between atoms: N_6  and  C_7
REMARK    5  A    between atoms: O_16  and  C_17
REMARK    6  A    between atoms: C_17  and  C_19
REMARK    7  A    between atoms: C_22  and  N_28
REMARK    8  A    between atoms: C_23  and  N_25
REMARK    9  A    between atoms: N_28  and  C_29
REMARK   10  A    between atoms: N_28  and  C_30
REMARK                            x       y       z     vdW  Elec       q    Type
REMARK                         _______ _______ _______ _____ _____    ______ ____
ROOT
ATOM      1  C   UNL     1      -2.960  -3.051   1.469  0.00  0.00    +0.062 C 
ATOM      2  C   UNL     1      -2.523  -2.795   0.026  0.00  0.00    +0.259 C 
ENDROOT
BRANCH   2   3
ATOM      3  C   UNL     1      -2.401  -4.108  -0.703  0.00  0.00    +0.258 C 
ATOM      4  O   UNL     1      -1.318  -4.483  -1.100  0.00  0.00    -0.271 OA
ATOM      5  N   UNL     1      -3.496  -4.865  -0.914  0.00  0.00    -0.281 N 
ATOM      6  H   UNL     1      -4.351  -4.597  -0.541  0.00  0.00    +0.155 HD
BRANCH   5   7
ATOM      7  C   UNL     1      -3.400  -6.039  -1.672  0.00  0.00    +0.053 A 
ATOM      8  C   UNL     1      -2.250  -6.814  -1.611  0.00  0.00    +0.046 A 
ATOM      9  C   UNL     1      -2.157  -7.972  -2.360  0.00  0.00    +0.061 A 
ATOM     10  C   UNL     1      -3.211  -8.360  -3.171  0.00  0.00    +0.061 A 
ATOM     11  C   UNL     1      -4.358  -7.588  -3.234  0.00  0.00    +0.043 A 
ATOM     12  C   UNL     1      -4.457  -6.432  -2.483  0.00  0.00    +0.064 A 
ATOM     13 CL   UNL     1      -5.900  -5.469  -2.558  0.00  0.00    -0.082 Cl
ATOM     14 CL   UNL     1      -3.092  -9.815  -4.109  0.00  0.00    -0.082 Cl
ATOM     15 CL   UNL     1      -0.720  -8.942  -2.283  0.00  0.00    -0.082 Cl
ENDBRANCH   5   7
ENDBRANCH   2   3
BRANCH   2  16
ATOM     16  O   UNL     1      -1.238  -2.118   0.022  0.00  0.00    -0.449 OA
BRANCH  16  17
ATOM     17  C   UNL     1      -1.256  -0.771   0.040  0.00  0.00    +0.340 C 
ATOM     18  O   UNL     1      -2.317  -0.177   0.058  0.00  0.00    -0.245 OA
BRANCH  17  19
ATOM     19  C   UNL     1       0.010  -0.017   0.038  0.00  0.00    +0.061 A 
ATOM     20  C   UNL     1       1.231  -0.698   0.016  0.00  0.00    +0.017 A 
ATOM     21  C   UNL     1       2.405   0.001   0.014  0.00  0.00    +0.026 A 
ATOM     22  C   UNL     1       2.390   1.393   0.032  0.00  0.00    +0.060 A 
ATOM     23  C   UNL     1       1.179   2.080   0.053  0.00  0.00    +0.148 A 
ATOM     24  C   UNL     1      -0.007   1.382   0.056  0.00  0.00    +0.049 A 
BRANCH  23  25
ATOM     25  N   UNL     1       1.167   3.560   0.073  0.00  0.00    +0.058 N 
ATOM     26  O   UNL     1       0.108   4.160   0.091  0.00  0.00    -0.126 OA
ATOM     27  O   UNL     1       2.217   4.178   0.070  0.00  0.00    -0.126 OA
ENDBRANCH  23  25
BRANCH  22  28
ATOM     28  N   UNL     1       3.588   2.099   0.029  0.00  0.00    -0.334 N 
ATOM     29  C   UNL     1       4.402   1.760   1.204  0.00  0.00    +0.129 C 
ATOM     30  C   UNL     1       4.334   1.864  -1.214  0.00  0.00    +0.129 C 
ENDBRANCH  22  28
ENDBRANCH  17  19
ENDBRANCH  16  17
ENDBRANCH   2  16
TORSDOF 7
