REMARK  Name = ZINC24891169
REMARK  11 active torsions:
REMARK  status: ('A' for Active; 'I' for Inactive)
REMARK    1  A    between atoms: C_1  and  C_2
REMARK    2  A    between atoms: C_2  and  N_3
REMARK    3  A    between atoms: N_3  and  C_4
REMARK    4  A    between atoms: N_3  and  S_6
REMARK    5  A    between atoms: C_4  and  C_5
REMARK    6  A    between atoms: S_6  and  C_9
REMARK    7  A    between atoms: N_14  and  C_19
REMARK    8  A    between atoms: C_19  and  N_20
REMARK    9  A    between atoms: N_20  and  C_21
REMARK   10  A    between atoms: N_20  and  C_22
REMARK   11  A    between atoms: C_22  and  C_23
REMARK                            x       y       z     vdW  Elec       q    Type
REMARK                         _______ _______ _______ _____ _____    ______ ____
ROOT
ATOM      1  C   UNL     1       7.569  -0.784  -7.039  0.00  0.00    +0.122 A 
ATOM      2  C   UNL     1       7.089  -2.095  -7.233  0.00  0.00    +0.033 A 
ATOM      3  C   UNL     1       6.485  -2.751  -6.212  0.00  0.00    +0.050 A 
ATOM      4  C   UNL     1       6.346  -2.104  -4.958  0.00  0.00    +0.160 A 
ATOM      5  N   UNL     1       5.821  -2.497  -3.820  0.00  0.00    -0.153 NA
ATOM      6  N   UNL     1       5.950  -1.446  -2.901  0.00  0.00    -0.257 N 
ATOM      7  C   UNL     1       6.575  -0.430  -3.530  0.00  0.00    +0.181 A 
ATOM      8  S   UNL     1       6.978   1.085  -2.842  0.00  0.00    -0.011 S 
ATOM      9  N   UNL     1       6.825  -0.818  -4.796  0.00  0.00    -0.277 N 
ATOM     10  C   UNL     1       7.433  -0.175  -5.848  0.00  0.00    +0.123 A 
ENDROOT
BRANCH   1  11
ATOM     11  S   UNL     1       8.354   0.064  -8.369  0.00  0.00    +0.062 S 
ATOM     12  O   UNL     1       7.875  -0.530  -9.568  0.00  0.00    -0.153 OA
ATOM     13  O   UNL     1       8.218   1.453  -8.101  0.00  0.00    -0.153 OA
BRANCH  11  14
ATOM     14  N   UNL     1       9.971  -0.279  -8.283  0.00  0.00    -0.177 NA
BRANCH  14  16
ATOM     15  C   UNL     1      11.050  -1.002 -10.355  0.00  0.00    +0.022 C 
ATOM     16  C   UNL     1      10.512  -1.441  -8.992  0.00  0.00    +0.106 C 
ENDBRANCH  14  16
BRANCH  14  17
ATOM     17  C   UNL     1      10.861   0.579  -7.497  0.00  0.00    +0.106 C 
ATOM     18  C   UNL     1      11.034  -0.011  -6.096  0.00  0.00    +0.022 C 
ENDBRANCH  14  17
ENDBRANCH  11  14
ENDBRANCH   1  11
BRANCH   6  19
ATOM     19  C   UNL     1       5.495  -1.453  -1.509  0.00  0.00    +0.072 C 
BRANCH  19  20
ATOM     20  N   UNL     1       4.117  -0.949  -1.441  0.00  0.00    +0.394 N 
ATOM     21  C   UNL     1       3.188  -1.863  -2.117  0.00  0.00    -0.093 C 
ATOM     22  H   UNL     1       4.085   0.017  -1.968  0.00  0.00    -0.079 HD
BRANCH  20  23
ATOM     23  C   UNL     1       3.709  -0.717  -0.049  0.00  0.00    -0.041 C 
BRANCH  23  24
ATOM     24  C   UNL     1       2.397   0.024  -0.027  0.00  0.00    -0.060 A 
ATOM     25  C   UNL     1       1.207  -0.680  -0.016  0.00  0.00    +0.005 A 
ATOM     26  C   UNL     1       0.002  -0.004   0.002  0.00  0.00    +0.049 A 
ATOM     27  C   UNL     1      -0.017   1.383   0.010  0.00  0.00    +0.162 A 
ATOM     28  C   UNL     1       1.179   2.090   0.002  0.00  0.00    +0.162 A 
ATOM     29  C   UNL     1       2.385   1.406  -0.018  0.00  0.00    +0.051 A 
ATOM     30  O   UNL     1       1.184   3.451   0.018  0.00  0.00    -0.485 OA
ATOM     31  C   UNL     1      -0.040   4.103  -0.340  0.00  0.00    +0.270 C 
ATOM     32  C   UNL     1      -1.189   3.413   0.408  0.00  0.00    +0.270 C 
ATOM     33  O   UNL     1      -1.212   2.035   0.019  0.00  0.00    -0.485 OA
ENDBRANCH  23  24
ENDBRANCH  20  23
ENDBRANCH  19  20
ENDBRANCH   6  19
TORSDOF 8
