REMARK  Name = ZINC05425648
REMARK  3 active torsions:
REMARK  status: ('A' for Active; 'I' for Inactive)
REMARK    1  A    between atoms: C_5  and  O_12
REMARK    2  A    between atoms: C_6  and  C_7
REMARK    3  A    between atoms: N_8  and  N_9
REMARK                            x       y       z     vdW  Elec       q    Type
REMARK                         _______ _______ _______ _____ _____    ______ ____
ROOT
ATOM      1  C   UNL     1       1.962   2.617  -0.003  0.00  0.00    +0.144 C 
ATOM      2  N   UNL     1       2.825   3.586  -0.006  0.00  0.00    -0.179 NA
ENDROOT
BRANCH   2   3
ATOM      3  N   UNL     1       2.384   4.916   0.005  0.00  0.00    -0.249 N 
ATOM      4  C   UNL     1       3.299   5.944   0.002  0.00  0.00    +0.187 C 
ATOM      5  N   UNL     1       2.866   7.250   0.012  0.00  0.00    -0.370 N 
ATOM      6  H   UNL     1       1.434   5.112   0.015  0.00  0.00    +0.192 HD
ATOM      7  H   UNL     1       5.298   6.336  -0.015  0.00  0.00    +0.159 HD
ATOM      8  H   UNL     1       1.916   7.446   0.022  0.00  0.00    +0.159 HD
ATOM      9  H   UNL     1       3.511   7.974   0.010  0.00  0.00    +0.159 HD
ATOM     10  N   UNL     1       4.581   5.610  -0.012  0.00  0.00    -0.370 N 
ATOM     11  H   UNL     1       4.854   4.620  -0.020  0.00  0.00    +0.159 HD
ENDBRANCH   2   3
BRANCH   1  17
ATOM     12  C   UNL     1       1.501   0.171  -0.011  0.00  0.00    +0.028 A 
ATOM     13  C   UNL     1       1.941  -1.137  -0.022  0.00  0.00    +0.020 A 
ATOM     14  C   UNL     1       3.297  -1.416  -0.036  0.00  0.00    +0.034 A 
ATOM     15  C   UNL     1       4.223  -0.388  -0.040  0.00  0.00    +0.061 A 
ATOM     16  C   UNL     1       3.797   0.930  -0.029  0.00  0.00    +0.139 A 
ATOM     17  C   UNL     1       2.426   1.218  -0.014  0.00  0.00    +0.038 A 
ATOM     18 BR   UNL     1       6.072  -0.783  -0.060  0.00  0.00    -0.046 Br
ATOM     19 BR   UNL     1       0.688  -2.553  -0.017  0.00  0.00    -0.050 Br
BRANCH  16  20
ATOM     20  O   UNL     1       4.706   1.940  -0.033  0.00  0.00    -0.505 OA
ATOM     21  H   UNL     1       4.960   2.237  -0.917  0.00  0.00    +0.292 HD
ENDBRANCH  16  20
ENDBRANCH   1  17
TORSDOF 3
