REMARK  Name = ZINC14540003
REMARK  12 active torsions:
REMARK  status: ('A' for Active; 'I' for Inactive)
REMARK    1  A    between atoms: C_1  and  O_2
REMARK    2  A    between atoms: O_2  and  C_3
REMARK    3  A    between atoms: C_8  and  C_9
REMARK    4  A    between atoms: C_10  and  C_11
REMARK    5  A    between atoms: C_11  and  N_73
REMARK    6  A    between atoms: C_13  and  O_29
REMARK    7  A    between atoms: N_16  and  C_20
REMARK    8  A    between atoms: C_20  and  C_21
REMARK    9  A    between atoms: C_21  and  C_22
REMARK   10  A    between atoms: C_22  and  N_23
REMARK   11  A    between atoms: O_29  and  C_30
REMARK   12  A    between atoms: C_30  and  C_31
REMARK                            x       y       z     vdW  Elec       q    Type
REMARK                         _______ _______ _______ _____ _____    ______ ____
ROOT
ATOM      1  C   UNL     1      -6.926   0.452  -1.264  0.00  0.00    -0.044 C 
ATOM      2  C   UNL     1      -7.652   0.239  -2.579  0.00  0.00    +0.120 C 
ATOM      3  C   UNL     1      -8.311  -1.142  -2.618  0.00  0.00    +0.137 C 
ATOM      4  N   UNL     1      -7.313  -2.120  -3.085  0.00  0.00    -0.301 N 
ATOM      5  C   UNL     1      -6.285  -2.448  -2.297  0.00  0.00    +0.199 C 
ATOM      6  O   UNL     1      -5.458  -3.247  -2.685  0.00  0.00    -0.278 OA
ATOM      7  C   UNL     1      -6.149  -1.828  -0.923  0.00  0.00    +0.019 C 
ATOM      8  N   UNL     1      -5.740  -0.413  -1.105  0.00  0.00    +0.389 N 
ATOM      9  H   UNL     1      -5.164  -0.343  -1.952  0.00  0.00    -0.081 HD
ENDROOT
BRANCH   8  10
ATOM     10  C   UNL     1      -4.947   0.035   0.050  0.00  0.00    -0.050 C 
BRANCH  10  12
ATOM     11  C   UNL     1      -2.492  -0.009   0.026  0.00  0.00    +0.005 C 
ATOM     12  C   UNL     1      -3.628  -0.693   0.033  0.00  0.00    -0.045 C 
BRANCH  11  18
ATOM     13  C   UNL     1       0.002  -0.004   0.002  0.00  0.00    +0.127 A 
ATOM     14  C   UNL     1       1.210  -0.683  -0.019  0.00  0.00    +0.046 A 
ATOM     15  C   UNL     1       1.227  -2.065  -0.022  0.00  0.00    +0.004 A 
ATOM     16  C   UNL     1       0.042  -2.780  -0.014  0.00  0.00    +0.001 A 
ATOM     17  C   UNL     1      -1.169  -2.118   0.001  0.00  0.00    +0.011 A 
ATOM     18  C   UNL     1      -1.199  -0.723   0.010  0.00  0.00    +0.016 A 
BRANCH  13  20
ATOM     19  C   UNL     1       1.248   2.020   0.001  0.00  0.00    +0.277 C 
ATOM     20  O   UNL     1      -0.016   1.354   0.009  0.00  0.00    -0.495 OA
ENDBRANCH  13  20
ENDBRANCH  11  18
ENDBRANCH  10  12
ENDBRANCH   8  10
BRANCH   4  21
ATOM     21  C   UNL     1      -7.449  -2.732  -4.409  0.00  0.00    +0.109 C 
BRANCH  21  22
ATOM     22  C   UNL     1      -8.276  -4.014  -4.297  0.00  0.00    +0.038 C 
BRANCH  22  23
ATOM     23  C   UNL     1      -8.417  -4.652  -5.680  0.00  0.00    +0.109 C 
BRANCH  23  24
ATOM     24  N   UNL     1      -9.209  -5.880  -5.573  0.00  0.00    -0.301 N 
ATOM     25  C   UNL     1      -8.644  -7.212  -5.327  0.00  0.00    +0.108 C 
ATOM     26  C   UNL     1      -9.834  -8.083  -4.861  0.00  0.00    +0.028 C 
ATOM     27  C   UNL     1     -11.030  -7.355  -5.516  0.00  0.00    +0.097 C 
ATOM     28  C   UNL     1     -10.547  -5.932  -5.692  0.00  0.00    +0.216 C 
ATOM     29  O   UNL     1     -11.263  -4.977  -5.910  0.00  0.00    -0.276 OA
ENDBRANCH  23  24
ENDBRANCH  22  23
ENDBRANCH  21  22
ENDBRANCH   4  21
BRANCH   2  30
ATOM     30  O   UNL     1      -8.657   1.244  -2.728  0.00  0.00    -0.372 OA
BRANCH  30  31
ATOM     31  C   UNL     1      -8.911   1.615  -4.085  0.00  0.00    +0.195 C 
BRANCH  31  32
ATOM     32  C   UNL     1      -9.981   2.675  -4.124  0.00  0.00    -0.022 A 
ATOM     33  C   UNL     1     -11.311   2.311  -4.223  0.00  0.00    +0.006 A 
ATOM     34  C   UNL     1     -12.293   3.283  -4.255  0.00  0.00    +0.000 A 
ATOM     35  C   UNL     1     -11.945   4.619  -4.196  0.00  0.00    +0.000 A 
ATOM     36  C   UNL     1     -10.615   4.984  -4.101  0.00  0.00    +0.000 A 
ATOM     37  C   UNL     1      -9.633   4.012  -4.066  0.00  0.00    +0.006 A 
ENDBRANCH  31  32
ENDBRANCH  30  31
ENDBRANCH   2  30
TORSDOF 11
