REMARK  Name = ZINC03226725
REMARK  7 active torsions:
REMARK  status: ('A' for Active; 'I' for Inactive)
REMARK    1  A    between atoms: C_1  and  C_2
REMARK    2  A    between atoms: C_4  and  C_15
REMARK    3  A    between atoms: C_5  and  C_14
REMARK    4  A    between atoms: N_6  and  C_7
REMARK    5  A    between atoms: N_17  and  N_18
REMARK    6  A    between atoms: N_18  and  C_19
REMARK    7  A    between atoms: C_19  and  C_21
REMARK                            x       y       z     vdW  Elec       q    Type
REMARK                         _______ _______ _______ _____ _____    ______ ____
ROOT
ATOM      1  N   UNL     1      -5.863   8.371   2.297  0.00  0.00    -0.264 N 
ATOM      2  H   UNL     1      -5.149   9.027   2.329  0.00  0.00    +0.170 HD
ENDROOT
BRANCH   1   5
ATOM      3  C   UNL     1      -7.402   9.963   3.169  0.00  0.00    +0.262 C 
ATOM      4  O   UNL     1      -6.507  10.786   3.210  0.00  0.00    -0.269 OA
ATOM      5  N   UNL     1      -7.153   8.718   2.718  0.00  0.00    -0.232 N 
ATOM      6  H   UNL     1      -7.867   8.062   2.686  0.00  0.00    +0.173 HD
BRANCH   3  10
ATOM      7  C   UNL     1     -12.371   9.743   4.308  0.00  0.00    +0.064 C 
ATOM      8  C   UNL     1     -10.952  10.210   4.109  0.00  0.00    +0.022 A 
ATOM      9  C   UNL     1      -9.943   9.462   3.629  0.00  0.00    +0.036 A 
ATOM     10  C   UNL     1      -8.758  10.328   3.613  0.00  0.00    +0.059 A 
ATOM     11  C   UNL     1      -9.166  11.540   4.098  0.00  0.00    +0.033 A 
ATOM     12  N   UNL     1     -10.481  11.462   4.387  0.00  0.00    -0.317 N 
ATOM     13  C   UNL     1      -8.295  12.757   4.276  0.00  0.00    +0.064 C 
BRANCH  12  14
ATOM     14  C   UNL     1     -11.252  12.513   4.905  0.00  0.00    +0.047 A 
ATOM     15  C   UNL     1     -11.468  13.655   4.146  0.00  0.00    +0.029 A 
ATOM     16  C   UNL     1     -12.233  14.686   4.655  0.00  0.00    +0.040 A 
ATOM     17  C   UNL     1     -12.774  14.586   5.925  0.00  0.00    +0.124 A 
ATOM     18  C   UNL     1     -12.556  13.450   6.686  0.00  0.00    +0.040 A 
ATOM     19  C   UNL     1     -11.796  12.414   6.178  0.00  0.00    +0.029 A 
ATOM     20  F   UNL     1     -13.517  15.599   6.424  0.00  0.00    -0.205 F 
ENDBRANCH  12  14
ENDBRANCH   3  10
ENDBRANCH   1   5
BRANCH   1  21
ATOM     21  C   UNL     1      -5.604   7.082   1.830  0.00  0.00    +0.045 C 
ATOM     22  C   UNL     1      -6.586   6.179   1.785  0.00  0.00    +0.035 C 
BRANCH  21  23
ATOM     23  C   UNL     1      -4.241   6.715   1.384  0.00  0.00    -0.001 A 
ATOM     24  C   UNL     1      -3.215   7.658   1.430  0.00  0.00    +0.011 A 
ATOM     25  C   UNL     1      -1.946   7.310   1.017  0.00  0.00    +0.017 A 
ATOM     26  C   UNL     1      -1.685   6.026   0.554  0.00  0.00    +0.034 A 
ATOM     27  C   UNL     1      -2.705   5.077   0.500  0.00  0.00    +0.046 A 
ATOM     28  C   UNL     1      -3.982   5.427   0.918  0.00  0.00    +0.034 A 
ATOM     29  N   UNL     1      -2.484   3.783   0.035  0.00  0.00    -0.313 N 
ATOM     30  C   UNL     1      -1.250   3.139   0.029  0.00  0.00    +0.045 A 
ATOM     31  C   UNL     1      -1.220   1.748   0.017  0.00  0.00    +0.024 A 
ATOM     32  C   UNL     1      -0.013   1.076   0.008  0.00  0.00    +0.002 A 
ATOM     33  C   UNL     1       1.176   1.781   0.000  0.00  0.00    +0.001 A 
ATOM     34  C   UNL     1       1.158   3.163   0.008  0.00  0.00    +0.017 A 
ATOM     35  C   UNL     1      -0.050   3.845   0.023  0.00  0.00    +0.034 A 
ATOM     36  S   UNL     1      -0.052   5.606   0.041  0.00  0.00    -0.086 S 
ATOM     37  H   UNL     1      -3.247   3.294  -0.309  0.00  0.00    +0.152 HD
ENDBRANCH  21  23
ENDBRANCH   1  21
TORSDOF 5
