REMARK  Name = ZINC40003513
REMARK  12 active torsions:
REMARK  status: ('A' for Active; 'I' for Inactive)
REMARK    1  A    between atoms: C_1  and  C_2
REMARK    2  A    between atoms: C_2  and  O_3
REMARK    3  A    between atoms: O_3  and  C_4
REMARK    4  A    between atoms: C_7  and  C_10
REMARK    5  A    between atoms: C_12  and  C_22
REMARK    6  A    between atoms: N_16  and  C_17
REMARK    7  A    between atoms: C_17  and  C_18
REMARK    8  A    between atoms: C_18  and  O_19
REMARK    9  A    between atoms: O_19  and  C_20
REMARK   10  A    between atoms: C_22  and  C_24
REMARK   11  A    between atoms: C_25  and  C_34
REMARK   12  A    between atoms: C_32  and  C_33
REMARK                            x       y       z     vdW  Elec       q    Type
REMARK                         _______ _______ _______ _____ _____    ______ ____
ROOT
ATOM      1  C   UNL     1       1.212  -6.309  -2.003  0.00  0.00    +0.145 C 
ATOM      2  C   UNL     1       2.676  -6.495  -1.677  0.00  0.00    +0.078 C 
ATOM      3  C   UNL     1       3.292  -6.838  -2.830  0.00  0.00    +0.249 C 
ATOM      4  C   UNL     1       2.296  -6.889  -3.917  0.00  0.00    +0.288 C 
ATOM      5  O   UNL     1       2.540  -7.170  -5.074  0.00  0.00    -0.266 OA
ATOM      6  N   UNL     1       1.075  -6.581  -3.439  0.00  0.00    -0.281 N 
ATOM      7  O   UNL     1       4.615  -7.094  -2.967  0.00  0.00    -0.282 OA
ENDROOT
BRANCH   1  11
ATOM      8  C   UNL     1       0.013  -2.298  -1.145  0.00  0.00    +0.121 A 
ATOM      9  C   UNL     1      -0.479  -3.348  -0.383  0.00  0.00    +0.046 A 
ATOM     10  C   UNL     1      -0.090  -4.644  -0.663  0.00  0.00    +0.009 A 
ATOM     11  C   UNL     1       0.789  -4.895  -1.700  0.00  0.00    -0.022 A 
ATOM     12  C   UNL     1       1.281  -3.850  -2.460  0.00  0.00    +0.009 A 
ATOM     13  C   UNL     1       0.891  -2.553  -2.189  0.00  0.00    +0.046 A 
BRANCH   8  14
ATOM     14  O   UNL     1      -0.368  -1.023  -0.872  0.00  0.00    -0.492 OA
BRANCH  14  16
ATOM     15  C   UNL     1      -1.586   0.655   0.371  0.00  0.00    +0.048 C 
ATOM     16  C   UNL     1      -1.274  -0.835   0.217  0.00  0.00    +0.225 C 
ENDBRANCH  14  16
ENDBRANCH   8  14
ENDBRANCH   1  11
BRANCH   2  17
ATOM     17  C   UNL     1       3.307  -6.334  -0.361  0.00  0.00    +0.213 C 
ATOM     18  O   UNL     1       3.567  -5.219   0.059  0.00  0.00    -0.285 OA
BRANCH  17  19
ATOM     19  C   UNL     1       3.615  -7.475   0.421  0.00  0.00    +0.116 A 
ATOM     20  C   UNL     1       3.363  -8.801   0.094  0.00  0.00    +0.068 A 
ATOM     21  N   UNL     1       3.800  -9.561   1.084  0.00  0.00    -0.232 NA
ATOM     22  C   UNL     1       4.326  -8.797   2.042  0.00  0.00    +0.141 A 
ATOM     23  N   UNL     1       4.232  -7.489   1.659  0.00  0.00    -0.296 N 
ATOM     24  C   UNL     1       4.703  -6.497   2.459  0.00  0.00    +0.093 A 
ATOM     25  C   UNL     1       5.278  -6.786   3.651  0.00  0.00    +0.018 A 
ATOM     26  C   UNL     1       5.392  -8.117   4.071  0.00  0.00    +0.008 A 
ATOM     27  C   UNL     1       4.914  -9.118   3.277  0.00  0.00    -0.008 A 
ATOM     28  C   UNL     1       5.031 -10.556   3.713  0.00  0.00    +0.047 C 
ATOM     29  C   UNL     1       2.704  -9.290  -1.170  0.00  0.00    +0.068 C 
ENDBRANCH  17  19
ENDBRANCH   2  17
BRANCH   6  30
ATOM     30  C   UNL     1      -0.168  -6.527  -4.212  0.00  0.00    +0.137 C 
BRANCH  30  31
ATOM     31  C   UNL     1      -0.361  -5.114  -4.768  0.00  0.00    +0.178 C 
BRANCH  31  32
ATOM     32  O   UNL     1       0.679  -4.824  -5.704  0.00  0.00    -0.381 OA
ATOM     33  C   UNL     1       0.592  -3.522  -6.285  0.00  0.00    +0.194 C 
ENDBRANCH  31  32
ENDBRANCH  30  31
ENDBRANCH   6  30
TORSDOF 8
