REMARK  Name = ZINC18209873
REMARK  9 active torsions:
REMARK  status: ('A' for Active; 'I' for Inactive)
REMARK    1  A    between atoms: C_1  and  C_2
REMARK    2  A    between atoms: C_2  and  C_3
REMARK    3  A    between atoms: C_2  and  O_4
REMARK    4  A    between atoms: O_4  and  C_5
REMARK    5  A    between atoms: C_5  and  C_7
REMARK    6  A    between atoms: C_11  and  N_12
REMARK    7  A    between atoms: C_13  and  C_15
REMARK    8  A    between atoms: C_21  and  C_29
REMARK    9  A    between atoms: C_24  and  C_26
REMARK                            x       y       z     vdW  Elec       q    Type
REMARK                         _______ _______ _______ _____ _____    ______ ____
ROOT
ATOM      1  N   UNL     1       2.502  -3.545  -1.731  0.00  0.00    -0.275 N 
ATOM      2  C   UNL     1       2.783  -4.806  -2.114  0.00  0.00    +0.253 C 
ATOM      3  O   UNL     1       3.429  -5.005  -3.126  0.00  0.00    -0.270 OA
ATOM      4  H   UNL     1       1.987  -3.387  -0.925  0.00  0.00    +0.156 HD
ENDROOT
BRANCH   2   5
ATOM      5  C   UNL     1       2.311  -5.940  -1.311  0.00  0.00    +0.096 A 
ATOM      6  C   UNL     1       1.547  -5.872  -0.118  0.00  0.00    +0.149 A 
ATOM      7  N   UNL     1       1.325  -7.090   0.296  0.00  0.00    -0.177 NA
ATOM      8  N   UNL     1       1.920  -7.989  -0.588  0.00  0.00    -0.241 N 
ATOM      9  C   UNL     1       2.519  -7.281  -1.574  0.00  0.00    +0.130 A 
ATOM     10  N   UNL     1       3.202  -7.877  -2.619  0.00  0.00    -0.322 N 
ATOM     11  C   UNL     1       3.496  -9.316  -2.470  0.00  0.00    +0.104 C 
ATOM     12  C   UNL     1       2.248 -10.011  -1.915  0.00  0.00    +0.059 C 
ATOM     13  C   UNL     1       1.925  -9.454  -0.521  0.00  0.00    +0.177 C 
ATOM     14  H   UNL     1       3.473  -7.378  -3.406  0.00  0.00    +0.148 HD
BRANCH  11  15
ATOM     15  C   UNL     1       3.853  -9.902  -3.812  0.00  0.00    -0.027 A 
ATOM     16  C   UNL     1       3.163  -9.509  -4.943  0.00  0.00    +0.005 A 
ATOM     17  C   UNL     1       3.490 -10.046  -6.174  0.00  0.00    +0.000 A 
ATOM     18  C   UNL     1       4.508 -10.976  -6.274  0.00  0.00    +0.000 A 
ATOM     19  C   UNL     1       5.199 -11.369  -5.142  0.00  0.00    +0.000 A 
ATOM     20  C   UNL     1       4.874 -10.828  -3.912  0.00  0.00    +0.005 A 
ENDBRANCH  11  15
BRANCH  13  21
ATOM     21  C   UNL     1       0.544  -9.953  -0.090  0.00  0.00    +0.365 C 
ATOM     22  F   UNL     1       0.233  -9.431   1.170  0.00  0.00    -0.207 F 
ATOM     23  F   UNL     1      -0.414  -9.533  -1.018  0.00  0.00    -0.207 F 
ENDBRANCH  13  21
ENDBRANCH   2   5
BRANCH   1  28
ATOM     24  C   UNL     1       2.755  -1.122  -2.252  0.00  0.00    +0.091 A 
ATOM     25  C   UNL     1       3.336  -0.192  -3.205  0.00  0.00    -0.021 A 
ATOM     26  C   UNL     1       3.996  -0.784  -4.223  0.00  0.00    -0.004 A 
ATOM     27  S   UNL     1       3.843  -2.518  -3.909  0.00  0.00    -0.077 S 
ATOM     28  C   UNL     1       2.948  -2.475  -2.490  0.00  0.00    +0.087 A 
ATOM     29  C   UNL     1       4.697  -0.103  -5.358  0.00  0.00    +0.043 C 
ATOM     30  C   UNL     1       4.234   1.361  -5.401  0.00  0.00    +0.005 C 
ATOM     31  C   UNL     1       4.314   1.948  -3.989  0.00  0.00    +0.005 C 
ATOM     32  C   UNL     1       3.234   1.323  -3.103  0.00  0.00    +0.037 C 
BRANCH  24  33
ATOM     33  C   UNL     1       2.004  -0.651  -1.087  0.00  0.00    +0.342 C 
ATOM     34  O   UNL     1       2.582  -0.428  -0.040  0.00  0.00    -0.245 OA
BRANCH  33  35
ATOM     35  O   UNL     1       0.671  -0.465  -1.174  0.00  0.00    -0.458 OA
BRANCH  35  37
ATOM     36  C   UNL     1      -0.019   1.526   0.010  0.00  0.00    +0.052 C 
ATOM     37  C   UNL     1       0.002  -0.004   0.002  0.00  0.00    +0.171 C 
ATOM     38  C   UNL     1      -1.433  -0.534   0.013  0.00  0.00    +0.052 C 
ENDBRANCH  35  37
ENDBRANCH  33  35
ENDBRANCH  24  33
ENDBRANCH   1  28
TORSDOF 7
