REMARK  Name = ZINC39452382
REMARK  8 active torsions:
REMARK  status: ('A' for Active; 'I' for Inactive)
REMARK    1  A    between atoms: C_1  and  C_2
REMARK    2  A    between atoms: C_2  and  C_3
REMARK    3  A    between atoms: C_2  and  S_4
REMARK    4  A    between atoms: S_4  and  C_7
REMARK    5  A    between atoms: C_17  and  S_20
REMARK    6  A    between atoms: S_20  and  C_21
REMARK    7  A    between atoms: N_24  and  S_25
REMARK    8  A    between atoms: S_25  and  C_28
REMARK                            x       y       z     vdW  Elec       q    Type
REMARK                         _______ _______ _______ _____ _____    ______ ____
ROOT
ATOM      1  C   UNL     1       1.429  -0.485  -1.185  0.00  0.00    +0.222 C 
ATOM      2  C   UNL     1       2.189  -0.732  -2.493  0.00  0.00    +0.127 C 
ATOM      3  C   UNL     1       2.898  -2.058  -2.416  0.00  0.00    +0.186 C 
ATOM      4  O   UNL     1       3.090  -2.697  -3.431  0.00  0.00    -0.290 OA
ATOM      5  C   UNL     1       3.344  -2.566  -1.176  0.00  0.00    +0.134 A 
ATOM      6  C   UNL     1       3.075  -1.868  -0.011  0.00  0.00    +0.084 A 
ATOM      7  C   UNL     1       3.544  -2.392   1.277  0.00  0.00    +0.099 A 
ATOM      8  C   UNL     1       4.255  -3.613   1.282  0.00  0.00    +0.069 A 
ATOM      9  C   UNL     1       4.710  -4.133   2.491  0.00  0.00    +0.031 A 
ATOM     10  C   UNL     1       4.440  -3.414   3.653  0.00  0.00    +0.026 A 
ATOM     11  C   UNL     1       3.732  -2.213   3.568  0.00  0.00    +0.126 A 
ATOM     12  N   UNL     1       3.313  -1.746   2.413  0.00  0.00    -0.252 NA
ATOM     13  C   UNL     1       4.494  -4.302   0.005  0.00  0.00    +0.281 A 
ATOM     14  O   UNL     1       5.102  -5.357  -0.013  0.00  0.00    -0.265 OA
ATOM     15  N   UNL     1       4.041  -3.768  -1.144  0.00  0.00    -0.170 N 
ATOM     16  N   UNL     1       2.361  -0.685  -0.065  0.00  0.00    -0.319 N 
ATOM     17  H   UNL     1       2.473  -0.004   0.617  0.00  0.00    +0.148 HD
ENDROOT
BRANCH   1  18
ATOM     18  S   UNL     1       0.050  -1.656  -1.049  0.00  0.00    -0.010 S 
ATOM     19  O   UNL     1       0.583  -2.969  -0.949  0.00  0.00    -0.172 OA
ATOM     20  O   UNL     1      -0.888  -1.368  -2.077  0.00  0.00    -0.172 OA
BRANCH  18  22
ATOM     21  C   UNL     1      -1.158   0.242   0.507  0.00  0.00    +0.031 C 
ATOM     22  C   UNL     1      -0.694  -1.216   0.546  0.00  0.00    +0.126 C 
ATOM     23  C   UNL     1      -1.894  -2.126   0.818  0.00  0.00    +0.031 C 
ENDBRANCH  18  22
ENDBRANCH   1  18
BRANCH  15  24
ATOM     24  S   UNL     1       4.324  -4.568  -2.566  0.00  0.00    +0.087 S 
ATOM     25  O   UNL     1       4.609  -3.575  -3.541  0.00  0.00    -0.148 OA
ATOM     26  O   UNL     1       5.228  -5.623  -2.265  0.00  0.00    -0.148 OA
BRANCH  24  27
ATOM     27  C   UNL     1       2.808  -5.326  -3.047  0.00  0.00    +0.111 A 
ATOM     28  C   UNL     1       2.508  -6.605  -2.618  0.00  0.00    +0.029 A 
ATOM     29  C   UNL     1       1.318  -7.200  -2.996  0.00  0.00    +0.002 A 
ATOM     30  C   UNL     1       0.429  -6.515  -3.802  0.00  0.00    +0.000 A 
ATOM     31  C   UNL     1       0.728  -5.235  -4.231  0.00  0.00    +0.002 A 
ATOM     32  C   UNL     1       1.916  -4.639  -3.849  0.00  0.00    +0.029 A 
ENDBRANCH  24  27
ENDBRANCH  15  24
BRANCH  10  33
ATOM     33  S   UNL     1       4.987  -4.014   5.217  0.00  0.00    -0.127 S 
ATOM     34  C   UNL     1       4.409  -2.761   6.394  0.00  0.00    +0.090 C 
ENDBRANCH  10  33
TORSDOF 5
