REMARK  Name = ZINC33542163
REMARK  6 active torsions:
REMARK  status: ('A' for Active; 'I' for Inactive)
REMARK    1  A    between atoms: C_5  and  C_7
REMARK    2  A    between atoms: N_11  and  C_15
REMARK    3  A    between atoms: C_15  and  C_16
REMARK    4  A    between atoms: N_18  and  C_19
REMARK    5  A    between atoms: C_19  and  C_20
REMARK    6  A    between atoms: C_20  and  C_21
REMARK                            x       y       z     vdW  Elec       q    Type
REMARK                         _______ _______ _______ _____ _____    ______ ____
ROOT
ATOM      1  C   UNL     1       1.255  -2.153  -0.022  0.00  0.00    +0.029 C 
ATOM      2  C   UNL     1       0.099  -2.855   0.087  0.00  0.00    +0.077 C 
ATOM      3  C   UNL     1      -1.297  -2.372   0.119  0.00  0.00    +0.259 C 
ATOM      4  O   UNL     1      -1.566  -1.187   0.043  0.00  0.00    -0.269 OA
ATOM      5  N   UNL     1      -2.240  -3.292   0.234  0.00  0.00    -0.246 N 
ATOM      6  C   UNL     1      -1.937  -4.604   0.318  0.00  0.00    +0.121 C 
ATOM      7  S   UNL     1      -3.005  -5.934   0.469  0.00  0.00    -0.027 S 
ATOM      8  S   UNL     1      -0.154  -4.619   0.225  0.00  0.00    -0.061 S 
ENDROOT
BRANCH   1  13
ATOM      9  C   UNL     1       0.400   1.342   1.032  0.00  0.00    +0.001 A 
ATOM     10  C   UNL     1       1.188   2.083   0.169  0.00  0.00    +0.001 A 
ATOM     11  C   UNL     1       1.999   1.450  -0.757  0.00  0.00    +0.020 A 
ATOM     12  C   UNL     1       2.026   0.072  -0.826  0.00  0.00    +0.048 A 
ATOM     13  C   UNL     1       1.232  -0.685   0.044  0.00  0.00    -0.005 A 
ATOM     14  C   UNL     1       0.416  -0.035   0.977  0.00  0.00    +0.009 A 
ATOM     15 CL   UNL     1       3.043  -0.721  -1.989  0.00  0.00    -0.083 Cl
ENDBRANCH   1  13
BRANCH   5  16
ATOM     16  C   UNL     1      -3.644  -2.878   0.272  0.00  0.00    +0.210 C 
BRANCH  16  17
ATOM     17  C   UNL     1      -4.196  -2.842  -1.130  0.00  0.00    +0.231 C 
ATOM     18  O   UNL     1      -3.485  -3.133  -2.069  0.00  0.00    -0.274 OA
ATOM     19  N   UNL     1      -5.478  -2.486  -1.341  0.00  0.00    -0.314 N 
ATOM     20  H   UNL     1      -6.046  -2.252  -0.590  0.00  0.00    +0.149 HD
BRANCH  19  21
ATOM     21  C   UNL     1      -6.014  -2.450  -2.704  0.00  0.00    +0.110 C 
BRANCH  21  22
ATOM     22  C   UNL     1      -7.481  -2.017  -2.664  0.00  0.00    +0.073 C 
BRANCH  22  23
ATOM     23  C   UNL     1      -8.032  -1.981  -4.066  0.00  0.00    +0.035 A 
ATOM     24  C   UNL     1      -7.928  -0.954  -4.931  0.00  0.00    +0.105 A 
ATOM     25  N   UNL     1      -8.563  -1.339  -6.081  0.00  0.00    -0.352 N 
ATOM     26  H   UNL     1      -8.657  -0.812  -6.890  0.00  0.00    +0.166 HD
ATOM     27  C   UNL     1      -9.032  -2.589  -5.879  0.00  0.00    +0.171 A 
ATOM     28  N   UNL     1      -8.707  -2.968  -4.674  0.00  0.00    -0.350 N 
ATOM     29  H   UNL     1      -8.921  -3.828  -4.279  0.00  0.00    +0.166 HD
ENDBRANCH  22  23
ENDBRANCH  21  22
ENDBRANCH  19  21
ENDBRANCH  16  17
ENDBRANCH   5  16
TORSDOF 6
