REMARK  Name = ZINC40983014
REMARK  10 active torsions:
REMARK  status: ('A' for Active; 'I' for Inactive)
REMARK    1  A    between atoms: C_1  and  C_2
REMARK    2  A    between atoms: C_2  and  C_3
REMARK    3  A    between atoms: C_3  and  S_4
REMARK    4  A    between atoms: S_4  and  C_5
REMARK    5  A    between atoms: C_10  and  C_27
REMARK    6  A    between atoms: C_12  and  C_16
REMARK    7  A    between atoms: C_13  and  C_15
REMARK    8  A    between atoms: N_18  and  C_19
REMARK    9  A    between atoms: C_22  and  C_26
REMARK   10  A    between atoms: C_24  and  C_25
REMARK                            x       y       z     vdW  Elec       q    Type
REMARK                         _______ _______ _______ _____ _____    ______ ____
ROOT
ATOM      1  C   UNL     1       1.804  -2.672  -2.665  0.00  0.00    +0.210 A 
ATOM      2  N   UNL     1       2.254  -1.806  -3.584  0.00  0.00    -0.187 NA
ATOM      3  C   UNL     1       2.775  -2.462  -4.585  0.00  0.00    +0.219 A 
ATOM      4  N   UNL     1       2.662  -3.788  -4.323  0.00  0.00    -0.220 N 
ATOM      5  N   UNL     1       2.041  -3.898  -3.080  0.00  0.00    -0.141 NA
ATOM      6  C   UNL     1       3.130  -4.833  -5.229  0.00  0.00    +0.177 C 
ATOM      7  C   UNL     1       3.992  -4.220  -6.300  0.00  0.00    +0.060 C 
ATOM      8  C   UNL     1       4.067  -2.897  -6.511  0.00  0.00    +0.018 C 
ATOM      9  N   UNL     1       3.366  -1.994  -5.750  0.00  0.00    -0.287 N 
ATOM     10  C   UNL     1       4.953  -2.386  -7.618  0.00  0.00    +0.061 C 
ATOM     11  H   UNL     1       3.286  -1.065  -6.018  0.00  0.00    +0.155 HD
ENDROOT
BRANCH   6  12
ATOM     12  C   UNL     1       1.945  -5.513  -5.866  0.00  0.00    -0.018 A 
ATOM     13  C   UNL     1       1.060  -4.782  -6.636  0.00  0.00    +0.006 A 
ATOM     14  C   UNL     1      -0.026  -5.406  -7.221  0.00  0.00    +0.000 A 
ATOM     15  C   UNL     1      -0.228  -6.761  -7.035  0.00  0.00    +0.000 A 
ATOM     16  C   UNL     1       0.658  -7.492  -6.266  0.00  0.00    +0.000 A 
ATOM     17  C   UNL     1       1.747  -6.869  -5.685  0.00  0.00    +0.006 A 
ENDBRANCH   6  12
BRANCH   7  18
ATOM     18  C   UNL     1       4.759  -5.078  -7.122  0.00  0.00    +0.248 C 
ATOM     19  O   UNL     1       5.812  -5.533  -6.714  0.00  0.00    -0.270 OA
ATOM     20  N   UNL     1       4.324  -5.393  -8.359  0.00  0.00    -0.281 N 
ATOM     21  H   UNL     1       3.518  -4.981  -8.709  0.00  0.00    +0.155 HD
BRANCH  20  22
ATOM     22  C   UNL     1       5.033  -6.314  -9.136  0.00  0.00    +0.037 A 
ATOM     23  C   UNL     1       6.419  -6.372  -9.055  0.00  0.00    +0.024 A 
ATOM     24  C   UNL     1       7.116  -7.282  -9.824  0.00  0.00    +0.005 A 
ATOM     25  C   UNL     1       6.437  -8.136 -10.675  0.00  0.00    -0.050 A 
ATOM     26  C   UNL     1       5.058  -8.081 -10.758  0.00  0.00    +0.008 A 
ATOM     27  C   UNL     1       4.354  -7.176  -9.987  0.00  0.00    -0.029 A 
ATOM     28  C   UNL     1       2.850  -7.121 -10.073  0.00  0.00    +0.045 C 
ATOM     29  C   UNL     1       7.201  -9.127 -11.513  0.00  0.00    +0.044 C 
ENDBRANCH  20  22
ENDBRANCH   7  18
BRANCH   1  30
ATOM     30  S   UNL     1       1.025  -2.239  -1.145  0.00  0.00    -0.084 S 
BRANCH  30  31
ATOM     31  C   UNL     1       0.995  -0.425  -1.169  0.00  0.00    +0.077 C 
BRANCH  31  33
ATOM     32  C   UNL     1       0.310   1.620   0.092  0.00  0.00    +0.004 C 
ATOM     33  C   UNL     1       0.336   0.091   0.112  0.00  0.00    +0.008 C 
ENDBRANCH  31  33
ENDBRANCH  30  31
ENDBRANCH   1  30
TORSDOF 6
