REMARK  Name = ZINC36309369
REMARK  17 active torsions:
REMARK  status: ('A' for Active; 'I' for Inactive)
REMARK    1  A    between atoms: C_1  and  C_2
REMARK    2  A    between atoms: C_2  and  C_3
REMARK    3  A    between atoms: C_3  and  C_4
REMARK    4  A    between atoms: C_4  and  C_6
REMARK    5  A    between atoms: C_4  and  O_35
REMARK    6  A    between atoms: C_6  and  N_7
REMARK    7  A    between atoms: N_7  and  C_8
REMARK    8  A    between atoms: N_7  and  C_12
REMARK    9  A    between atoms: C_8  and  C_9
REMARK   10  A    between atoms: C_9  and  C_10
REMARK   11  A    between atoms: C_9  and  C_11
REMARK   12  A    between atoms: C_12  and  C_13
REMARK   13  A    between atoms: C_23  and  C_25
REMARK   14  A    between atoms: C_25  and  O_26
REMARK   15  A    between atoms: O_26  and  C_27
REMARK   16  A    between atoms: C_30  and  O_33
REMARK   17  A    between atoms: O_33  and  C_34
REMARK                            x       y       z     vdW  Elec       q    Type
REMARK                         _______ _______ _______ _____ _____    ______ ____
ROOT
ATOM      1  C   UNL     1      -4.729  -5.747   1.325  0.00  0.00    +0.200 C 
ATOM      2  O   UNL     1      -3.716  -6.289   1.713  0.00  0.00    -0.278 OA
ATOM      3  N   UNL     1      -5.912  -6.386   1.414  0.00  0.00    -0.292 N 
ATOM      4  C   UNL     1      -7.145  -5.740   0.941  0.00  0.00    +0.113 C 
ATOM      5  C   UNL     1      -7.687  -6.548  -0.249  0.00  0.00    +0.061 C 
ATOM      6  C   UNL     1      -7.583  -8.003   0.073  0.00  0.00    -0.004 A 
ATOM      7  C   UNL     1      -6.840  -8.593   1.049  0.00  0.00    -0.014 A 
ATOM      8  C   UNL     1      -6.911  -9.982   1.136  0.00  0.00    +0.013 A 
ATOM      9  C   UNL     1      -7.696 -10.675   0.280  0.00  0.00    +0.046 A 
ATOM     10  S   UNL     1      -8.392  -9.368  -0.720  0.00  0.00    -0.101 S 
ATOM     11  C   UNL     1      -5.986  -7.740   1.979  0.00  0.00    +0.144 C 
ENDROOT
BRANCH   1  12
ATOM     12  C   UNL     1      -4.664  -4.358   0.744  0.00  0.00    +0.019 C 
BRANCH  12  13
ATOM     13  N   UNL     1      -3.262  -3.931   0.649  0.00  0.00    +0.387 N 
ATOM     14  H   UNL     1      -2.670  -4.622   1.084  0.00  0.00    -0.081 HD
BRANCH  13  15
ATOM     15  C   UNL     1      -3.095  -2.642   1.335  0.00  0.00    -0.047 C 
BRANCH  15  16
ATOM     16  C   UNL     1      -1.610  -2.277   1.380  0.00  0.00    +0.098 C 
BRANCH  16  17
ATOM     17  O   UNL     1      -1.143  -2.019   0.054  0.00  0.00    -0.394 OA
ATOM     18  H   UNL     1      -1.546  -1.245  -0.362  0.00  0.00    +0.210 HD
ENDBRANCH  16  17
BRANCH  16  19
ATOM     19  C   UNL     1      -1.419  -1.026   2.240  0.00  0.00    +0.029 C 
BRANCH  19  21
ATOM     20  C   UNL     1       0.267   0.518   3.249  0.00  0.00    +0.004 C 
ATOM     21  C   UNL     1       0.076  -0.733   2.388  0.00  0.00    -0.001 C 
ENDBRANCH  19  21
ENDBRANCH  16  19
ENDBRANCH  15  16
ENDBRANCH  13  15
BRANCH  13  22
ATOM     22  C   UNL     1      -2.888  -3.785  -0.764  0.00  0.00    -0.075 C 
BRANCH  22  23
ATOM     23  C   UNL     1      -3.014  -5.139  -1.466  0.00  0.00    -0.034 C 
ATOM     24  C   UNL     1      -2.820  -4.952  -2.973  0.00  0.00    +0.005 C 
ATOM     25  C   UNL     1      -1.947  -6.094  -0.929  0.00  0.00    +0.005 C 
ENDBRANCH  22  23
ENDBRANCH  13  22
ENDBRANCH  12  13
ENDBRANCH   1  12
BRANCH  11  26
ATOM     26  C   UNL     1      -6.631  -7.688   3.365  0.00  0.00    +0.256 C 
BRANCH  26  27
ATOM     27  O   UNL     1      -7.989  -7.258   3.243  0.00  0.00    -0.490 OA
BRANCH  27  28
ATOM     28  C   UNL     1      -8.710  -7.158   4.391  0.00  0.00    +0.121 A 
ATOM     29  C   UNL     1      -8.120  -7.462   5.609  0.00  0.00    +0.049 A 
ATOM     30  C   UNL     1      -8.853  -7.360   6.776  0.00  0.00    +0.049 A 
ATOM     31  C   UNL     1     -10.178  -6.953   6.729  0.00  0.00    +0.120 A 
ATOM     32  C   UNL     1     -10.768  -6.649   5.511  0.00  0.00    +0.049 A 
ATOM     33  C   UNL     1     -10.034  -6.747   4.345  0.00  0.00    +0.049 A 
BRANCH  31  34
ATOM     34  O   UNL     1     -10.900  -6.854   7.877  0.00  0.00    -0.495 OA
ATOM     35  C   UNL     1     -12.259  -6.429   7.755  0.00  0.00    +0.277 C 
ENDBRANCH  31  34
ENDBRANCH  27  28
ENDBRANCH  26  27
ENDBRANCH  11  26
TORSDOF 13
