REMARK  Name = ZINC20874428
REMARK  9 active torsions:
REMARK  status: ('A' for Active; 'I' for Inactive)
REMARK    1  A    between atoms: C_1  and  C_2
REMARK    2  A    between atoms: C_5  and  C_8
REMARK    3  A    between atoms: C_8  and  O_9
REMARK    4  A    between atoms: O_9  and  C_10
REMARK    5  A    between atoms: C_14  and  C_16
REMARK    6  A    between atoms: C_16  and  N_17
REMARK    7  A    between atoms: N_17  and  C_18
REMARK    8  A    between atoms: C_22  and  C_29
REMARK    9  A    between atoms: C_25  and  C_28
REMARK                            x       y       z     vdW  Elec       q    Type
REMARK                         _______ _______ _______ _____ _____    ______ ____
ROOT
ATOM      1  C   UNL     1      -2.810  -4.041   0.007  0.00  0.00    -0.046 C 
ENDROOT
BRANCH   1   6
ATOM      2  C   UNL     1      -6.193  -5.198   1.230  0.00  0.00    +0.121 A 
ATOM      3  C   UNL     1      -6.859  -5.413   0.031  0.00  0.00    +0.045 A 
ATOM      4  C   UNL     1      -6.213  -5.183  -1.167  0.00  0.00    +0.004 A 
ATOM      5  C   UNL     1      -4.903  -4.740  -1.174  0.00  0.00    +0.002 A 
ATOM      6  C   UNL     1      -4.237  -4.524   0.018  0.00  0.00    -0.061 A 
ATOM      7  C   UNL     1      -4.878  -4.758   1.220  0.00  0.00    +0.047 A 
BRANCH   2   8
ATOM      8  O   UNL     1      -6.827  -5.423   2.410  0.00  0.00    -0.487 OA
BRANCH   8   9
ATOM      9  C   UNL     1      -8.179  -5.880   2.344  0.00  0.00    +0.264 C 
BRANCH   9  14
ATOM     10  C   UNL     1     -10.228  -6.621   7.696  0.00  0.00    +0.044 C 
ATOM     11  C   UNL     1      -9.694  -6.428   6.300  0.00  0.00    -0.050 A 
ATOM     12  C   UNL     1      -9.832  -5.205   5.670  0.00  0.00    +0.004 A 
ATOM     13  C   UNL     1      -9.342  -5.028   4.390  0.00  0.00    +0.007 A 
ATOM     14  C   UNL     1      -8.713  -6.073   3.740  0.00  0.00    -0.010 A 
ATOM     15  C   UNL     1      -8.579  -7.298   4.368  0.00  0.00    +0.007 A 
ATOM     16  C   UNL     1      -9.066  -7.473   5.650  0.00  0.00    +0.004 A 
ENDBRANCH   9  14
ENDBRANCH   8   9
ENDBRANCH   2   8
ENDBRANCH   1   6
BRANCH   1  17
ATOM     17  N   UNL     1      -2.791  -2.572   0.015  0.00  0.00    +0.385 N 
ATOM     18  H   UNL     1      -3.313  -2.194  -0.876  0.00  0.00    -0.085 HD
ATOM     19  H   UNL     1      -3.296  -2.203   0.920  0.00  0.00    -0.085 HD
BRANCH  17  20
ATOM     20  C   UNL     1      -1.413  -2.063   0.004  0.00  0.00    -0.067 C 
ATOM     21  C   UNL     1      -0.673  -2.570   1.244  0.00  0.00    -0.009 C 
ATOM     22  C   UNL     1       0.763  -2.041   1.233  0.00  0.00    -0.011 C 
ATOM     23  C   UNL     1       0.742  -0.511   1.242  0.00  0.00    +0.010 C 
ATOM     24  C   UNL     1       0.002  -0.004   0.002  0.00  0.00    -0.033 C 
ATOM     25  C   UNL     1      -1.433  -0.534   0.013  0.00  0.00    -0.006 C 
ATOM     26  C   UNL     1       0.718  -0.497  -1.257  0.00  0.00    +0.013 C 
ATOM     27  C   UNL     1       0.739  -2.027  -1.265  0.00  0.00    -0.033 C 
ATOM     28  C   UNL     1       1.479  -2.534  -0.026  0.00  0.00    +0.010 C 
ATOM     29  C   UNL     1      -0.696  -2.557  -1.254  0.00  0.00    -0.006 C 
ATOM     30  C   UNL     1       1.455  -2.521  -2.524  0.00  0.00    +0.011 C 
ATOM     31  C   UNL     1      -0.019   1.526   0.010  0.00  0.00    +0.011 C 
ENDBRANCH  17  20
ENDBRANCH   1  17
TORSDOF 6
