REMARK  Name = ZINC40340934
REMARK  7 active torsions:
REMARK  status: ('A' for Active; 'I' for Inactive)
REMARK    1  A    between atoms: C_1  and  C_2
REMARK    2  A    between atoms: C_5  and  C_8
REMARK    3  A    between atoms: N_16  and  C_27
REMARK    4  A    between atoms: C_17  and  C_19
REMARK    5  A    between atoms: C_27  and  C_28
REMARK    6  A    between atoms: C_28  and  C_29
REMARK    7  A    between atoms: C_29  and  N_30
REMARK                            x       y       z     vdW  Elec       q    Type
REMARK                         _______ _______ _______ _____ _____    ______ ____
ROOT
ATOM      1  C   UNL     1       0.058  -4.253  -0.021  0.00  0.00    +0.072 A 
ATOM      2  C   UNL     1       0.843  -5.058   0.741  0.00  0.00    +0.035 A 
ATOM      3  C   UNL     1       0.505  -6.382   0.382  0.00  0.00    +0.153 A 
ATOM      4  N   UNL     1      -0.431  -6.303  -0.542  0.00  0.00    -0.168 NA
ATOM      5  H   UNL     1      -1.376  -4.774  -1.435  0.00  0.00    +0.189 HD
ATOM      6  N   UNL     1      -0.714  -5.074  -0.792  0.00  0.00    -0.276 N 
ATOM      7  C   UNL     1       1.336  -7.295   1.188  0.00  0.00    +0.268 C 
ATOM      8  O   UNL     1       1.294  -8.508   1.125  0.00  0.00    -0.268 OA
ATOM      9  N   UNL     1       2.146  -6.597   2.002  0.00  0.00    -0.285 N 
ATOM     10  C   UNL     1       1.911  -5.163   1.795  0.00  0.00    +0.141 C 
ENDROOT
BRANCH  10  11
ATOM     11  C   UNL     1       3.175  -4.495   1.320  0.00  0.00    -0.021 A 
ATOM     12  C   UNL     1       4.006  -5.144   0.425  0.00  0.00    +0.007 A 
ATOM     13  C   UNL     1       5.166  -4.532  -0.011  0.00  0.00    +0.022 A 
ATOM     14  C   UNL     1       5.496  -3.269   0.447  0.00  0.00    +0.059 A 
ATOM     15  C   UNL     1       4.664  -2.619   1.342  0.00  0.00    +0.060 A 
ATOM     16  C   UNL     1       3.500  -3.231   1.774  0.00  0.00    +0.027 A 
ATOM     17 CL   UNL     1       5.077  -1.034   1.918  0.00  0.00    -0.082 Cl
ATOM     18 CL   UNL     1       6.953  -2.500  -0.100  0.00  0.00    -0.082 Cl
ENDBRANCH  10  11
BRANCH   1  23
ATOM     19  C   UNL     1      -0.018   1.503   0.010  0.00  0.00    +0.044 C 
ATOM     20  C   UNL     1       0.002  -0.004   0.002  0.00  0.00    -0.050 A 
ATOM     21  C   UNL     1       0.006  -0.686  -1.202  0.00  0.00    +0.004 A 
ATOM     22  C   UNL     1       0.024  -2.066  -1.216  0.00  0.00    +0.010 A 
ATOM     23  C   UNL     1       0.039  -2.773  -0.013  0.00  0.00    +0.000 A 
ATOM     24  C   UNL     1       0.036  -2.079   1.197  0.00  0.00    +0.010 A 
ATOM     25  C   UNL     1       0.023  -0.699   1.198  0.00  0.00    +0.004 A 
ENDBRANCH   1  23
BRANCH   9  26
ATOM     26  C   UNL     1       3.108  -7.174   2.944  0.00  0.00    +0.111 C 
BRANCH  26  27
ATOM     27  C   UNL     1       4.458  -7.356   2.247  0.00  0.00    +0.040 C 
BRANCH  27  28
ATOM     28  C   UNL     1       5.463  -7.959   3.231  0.00  0.00    +0.124 C 
BRANCH  28  29
ATOM     29  N   UNL     1       6.755  -8.133   2.564  0.00  0.00    -0.338 N 
ATOM     30  C   UNL     1       7.170  -9.241   1.874  0.00  0.00    +0.104 A 
ATOM     31  C   UNL     1       8.413  -8.978   1.426  0.00  0.00    +0.101 A 
ATOM     32  N   UNL     1       8.747  -7.744   1.831  0.00  0.00    -0.352 N 
ATOM     33  C   UNL     1       7.757  -7.230   2.509  0.00  0.00    +0.173 A 
ATOM     34  H   UNL     1       9.591  -7.301   1.647  0.00  0.00    +0.166 HD
ENDBRANCH  28  29
ENDBRANCH  27  28
ENDBRANCH  26  27
ENDBRANCH   9  26
TORSDOF 6
