REMARK  Name = ZINC32787758
REMARK  5 active torsions:
REMARK  status: ('A' for Active; 'I' for Inactive)
REMARK    1  A    between atoms: C_1  and  C_2
REMARK    2  A    between atoms: C_5  and  C_8
REMARK    3  A    between atoms: N_10  and  C_11
REMARK    4  A    between atoms: N_10  and  C_12
REMARK    5  A    between atoms: C_18  and  C_20
REMARK                            x       y       z     vdW  Elec       q    Type
REMARK                         _______ _______ _______ _____ _____    ______ ____
ROOT
ATOM      1  C   UNL     1      -2.011   1.861   1.167  0.00  0.00    +0.266 C 
ATOM      2  O   UNL     1      -2.565   2.312   2.150  0.00  0.00    -0.268 OA
ATOM      3  N   UNL     1      -0.692   1.588   1.203  0.00  0.00    -0.296 N 
ATOM      4  C   UNL     1       0.002   1.163  -0.015  0.00  0.00    +0.132 C 
ENDROOT
BRANCH   1   9
ATOM      5  C   UNL     1      -5.016   0.931  -3.546  0.00  0.00    +0.067 C 
ATOM      6  C   UNL     1      -4.229   1.186  -2.286  0.00  0.00    +0.056 A 
ATOM      7  C   UNL     1      -2.905   0.779  -2.204  0.00  0.00    +0.134 A 
ATOM      8  N   UNL     1      -2.213   0.999  -1.104  0.00  0.00    -0.247 NA
ATOM      9  C   UNL     1      -2.785   1.612  -0.071  0.00  0.00    +0.144 A 
ATOM     10  C   UNL     1      -4.117   2.015  -0.155  0.00  0.00    +0.144 A 
ATOM     11  N   UNL     1      -4.802   1.795  -1.264  0.00  0.00    -0.256 NA
ENDBRANCH   1   9
BRANCH   3  12
ATOM     12  C   UNL     1       0.049   1.715   2.461  0.00  0.00    +0.079 C 
ATOM     13  C   UNL     1       0.656   0.362   2.835  0.00  0.00    +0.023 C 
ATOM     14  C   UNL     1       1.429   0.495   4.148  0.00  0.00    +0.002 C 
ATOM     15  C   UNL     1       2.547   1.527   3.980  0.00  0.00    +0.000 C 
ATOM     16  C   UNL     1       1.939   2.880   3.606  0.00  0.00    +0.005 C 
ATOM     17  C   UNL     1       1.166   2.747   2.293  0.00  0.00    +0.006 C 
ATOM     18  C   UNL     1       0.558   4.100   1.919  0.00  0.00    +0.009 C 
ENDBRANCH   3  12
TORSDOF 2
