REMARK  Name = ZINC12497516
REMARK  9 active torsions:
REMARK  status: ('A' for Active; 'I' for Inactive)
REMARK    1  A    between atoms: C_1  and  O_2
REMARK    2  A    between atoms: O_2  and  C_3
REMARK    3  A    between atoms: C_5  and  C_10
REMARK    4  A    between atoms: C_8  and  O_9
REMARK    5  A    between atoms: N_18  and  C_21
REMARK    6  A    between atoms: C_28  and  C_29
REMARK    7  A    between atoms: C_28  and  C_35
REMARK    8  A    between atoms: C_35  and  O_37
REMARK    9  A    between atoms: O_37  and  C_38
REMARK                            x       y       z     vdW  Elec       q    Type
REMARK                         _______ _______ _______ _____ _____    ______ ____
ROOT
ATOM      1  C   UNL     1      -2.873   2.373   1.863  0.00  0.00    -0.026 C 
ATOM      2  C   UNL     1      -2.588   3.660   1.207  0.00  0.00    +0.078 C 
ATOM      3  C   UNL     1      -1.124   3.433   0.666  0.00  0.00    +0.090 C 
ATOM      4  C   UNL     1      -1.042   4.684  -0.151  0.00  0.00    +0.230 C 
ATOM      5  O   UNL     1      -0.453   4.833  -1.200  0.00  0.00    -0.275 OA
ATOM      6  N   UNL     1      -1.767   5.623   0.527  0.00  0.00    -0.207 N 
ATOM      7  C   UNL     1      -2.564   5.073   1.492  0.00  0.00    +0.229 C 
ATOM      8  O   UNL     1      -3.131   5.653   2.393  0.00  0.00    -0.275 OA
ATOM      9  C   UNL     1      -1.331   2.074   0.020  0.00  0.00    +0.070 C 
ATOM     10  N   UNL     1      -2.345   1.390   0.866  0.00  0.00    +0.398 N 
ATOM     11  H   UNL     1      -3.113   1.046   0.278  0.00  0.00    -0.083 HD
ATOM     12  H   UNL     1      -1.910   0.599   1.356  0.00  0.00    -0.083 HD
ENDROOT
BRANCH   6  13
ATOM     13  C   UNL     1      -1.688   7.000   0.270  0.00  0.00    +0.079 A 
ATOM     14  C   UNL     1      -2.530   7.582  -0.668  0.00  0.00    +0.027 A 
ATOM     15  C   UNL     1      -2.453   8.939  -0.916  0.00  0.00    +0.002 A 
ATOM     16  C   UNL     1      -1.533   9.717  -0.238  0.00  0.00    +0.003 A 
ATOM     17  C   UNL     1      -0.689   9.142   0.693  0.00  0.00    +0.040 A 
ATOM     18  C   UNL     1      -0.764   7.784   0.950  0.00  0.00    +0.145 A 
ATOM     19  F   UNL     1       0.061   7.221   1.860  0.00  0.00    -0.204 F 
ENDBRANCH   6  13
BRANCH   1  22
ATOM     20  C   UNL     1      -2.135   2.296   5.568  0.00  0.00    +0.161 A 
ATOM     21  C   UNL     1      -2.815   2.398   4.365  0.00  0.00    +0.051 A 
ATOM     22  C   UNL     1      -2.132   2.262   3.171  0.00  0.00    -0.057 A 
ATOM     23  C   UNL     1      -0.771   2.020   3.173  0.00  0.00    +0.006 A 
ATOM     24  C   UNL     1      -0.085   1.922   4.370  0.00  0.00    +0.049 A 
ATOM     25  C   UNL     1      -0.764   2.057   5.570  0.00  0.00    +0.158 A 
BRANCH  20  27
ATOM     26  C   UNL     1      -4.211   2.672   6.664  0.00  0.00    +0.277 C 
ATOM     27  O   UNL     1      -2.805   2.429   6.743  0.00  0.00    -0.491 OA
ENDBRANCH  20  27
BRANCH  25  28
ATOM     28  O   UNL     1      -0.092   1.957   6.748  0.00  0.00    -0.503 OA
ATOM     29  H   UNL     1      -0.049   1.058   7.101  0.00  0.00    +0.292 HD
ENDBRANCH  25  28
ENDBRANCH   1  22
BRANCH   9  30
ATOM     30  C   UNL     1      -1.847   2.237  -1.387  0.00  0.00    -0.047 A 
ATOM     31  C   UNL     1      -3.206   2.180  -1.636  0.00  0.00    +0.003 A 
ATOM     32  C   UNL     1      -3.679   2.334  -2.925  0.00  0.00    +0.000 A 
ATOM     33  C   UNL     1      -2.793   2.537  -3.967  0.00  0.00    +0.000 A 
ATOM     34  C   UNL     1      -1.435   2.589  -3.719  0.00  0.00    +0.000 A 
ATOM     35  C   UNL     1      -0.961   2.439  -2.429  0.00  0.00    +0.003 A 
ENDBRANCH   9  30
BRANCH   9  36
ATOM     36  C   UNL     1      -0.040   1.297   0.013  0.00  0.00    +0.301 C 
ATOM     37  O   UNL     1       1.017   1.883  -0.004  0.00  0.00    -0.252 OA
BRANCH  36  38
ATOM     38  O   UNL     1      -0.063  -0.045   0.021  0.00  0.00    -0.469 OA
ATOM     39  C   UNL     1       1.219  -0.727   0.008  0.00  0.00    +0.280 C 
ENDBRANCH  36  38
ENDBRANCH   9  36
TORSDOF 7
