REMARK  Name = ZINC39521025
REMARK  6 active torsions:
REMARK  status: ('A' for Active; 'I' for Inactive)
REMARK    1  A    between atoms: C_1  and  S_2
REMARK    2  A    between atoms: S_2  and  C_3
REMARK    3  A    between atoms: C_13  and  S_23
REMARK    4  A    between atoms: N_15  and  C_16
REMARK    5  A    between atoms: C_16  and  C_17
REMARK    6  A    between atoms: S_23  and  C_26
REMARK                            x       y       z     vdW  Elec       q    Type
REMARK                         _______ _______ _______ _____ _____    ______ ____
ROOT
ATOM      1  C   UNL     1       0.908   0.687  -3.506  0.00  0.00    +0.045 C 
ATOM      2  C   UNL     1       1.024   1.579  -4.744  0.00  0.00    +0.014 C 
ATOM      3  C   UNL     1       2.358   1.307  -5.443  0.00  0.00    -0.000 C 
ATOM      4  C   UNL     1       2.423  -0.162  -5.865  0.00  0.00    -0.012 C 
ATOM      5  C   UNL     1       2.306  -1.054  -4.628  0.00  0.00    -0.062 C 
ATOM      6  C   UNL     1       0.972  -0.782  -3.929  0.00  0.00    +0.002 C 
ATOM      7  C   UNL     1       2.366  -2.523  -5.053  0.00  0.00    -0.012 C 
ATOM      8  C   UNL     1       3.701  -2.793  -5.752  0.00  0.00    -0.001 C 
ATOM      9  C   UNL     1       4.846  -2.416  -4.808  0.00  0.00    +0.007 C 
ATOM     10  C   UNL     1       4.695  -0.951  -4.393  0.00  0.00    +0.084 C 
ATOM     11  N   UNL     1       3.411  -0.763  -3.707  0.00  0.00    +0.401 N 
ATOM     12  H   UNL     1       3.338   0.192  -3.387  0.00  0.00    -0.078 HD
ENDROOT
BRANCH  10  13
ATOM     13  S   UNL     1       6.048  -0.497  -3.273  0.00  0.00    -0.015 S 
ATOM     14  O   UNL     1       5.949  -1.233  -2.062  0.00  0.00    -0.171 OA
ATOM     15  O   UNL     1       7.276  -0.439  -3.987  0.00  0.00    -0.171 OA
BRANCH  13  16
ATOM     16  C   UNL     1       5.716   1.171  -2.814  0.00  0.00    +0.086 A 
ATOM     17  C   UNL     1       5.971   2.197  -3.705  0.00  0.00    +0.027 A 
ATOM     18  C   UNL     1       5.711   3.506  -3.345  0.00  0.00    +0.002 A 
ATOM     19  C   UNL     1       5.195   3.789  -2.094  0.00  0.00    +0.000 A 
ATOM     20  C   UNL     1       4.940   2.764  -1.204  0.00  0.00    +0.002 A 
ATOM     21  C   UNL     1       5.196   1.454  -1.565  0.00  0.00    +0.027 A 
ENDBRANCH  13  16
ENDBRANCH  10  13
BRANCH   1  23
ATOM     22  C   UNL     1      -0.530   2.726  -2.111  0.00  0.00    +0.084 C 
ATOM     23  S   UNL     1      -0.673   1.008  -2.676  0.00  0.00    -0.161 S 
ENDBRANCH   1  23
BRANCH  11  24
ATOM     24  C   UNL     1       3.336  -1.669  -2.553  0.00  0.00    -0.039 C 
BRANCH  24  25
ATOM     25  C   UNL     1       2.300  -1.163  -1.583  0.00  0.00    -0.064 A 
ATOM     26  C   UNL     1       2.424   0.101  -1.037  0.00  0.00    +0.002 A 
ATOM     27  C   UNL     1       1.474   0.565  -0.147  0.00  0.00    +0.000 A 
ATOM     28  C   UNL     1       0.400  -0.234   0.197  0.00  0.00    +0.000 A 
ATOM     29  C   UNL     1       0.276  -1.498  -0.349  0.00  0.00    +0.000 A 
ATOM     30  C   UNL     1       1.224  -1.961  -1.243  0.00  0.00    +0.002 A 
ENDBRANCH  24  25
ENDBRANCH  11  24
TORSDOF 5
