REMARK  Name = ZINC06182208
REMARK  5 active torsions:
REMARK  status: ('A' for Active; 'I' for Inactive)
REMARK    1  A    between atoms: C_1  and  S_2
REMARK    2  A    between atoms: S_2  and  C_5
REMARK    3  A    between atoms: N_13  and  C_14
REMARK    4  A    between atoms: C_14  and  C_16
REMARK    5  A    between atoms: C_18  and  C_26
REMARK                            x       y       z     vdW  Elec       q    Type
REMARK                         _______ _______ _______ _____ _____    ______ ____
ROOT
ATOM      1  C   UNL     1       6.537  -1.975  -5.272  0.00  0.00    +0.270 C 
ATOM      2  O   UNL     1       6.857  -1.777  -4.113  0.00  0.00    -0.268 OA
ENDROOT
BRANCH   1  11
ATOM      3  C   UNL     1       0.849  -0.413  -1.488  0.00  0.00    +0.089 A 
ATOM      4  C   UNL     1       0.146  -0.565  -2.673  0.00  0.00    +0.029 A 
ATOM      5  C   UNL     1       0.788  -0.895  -3.844  0.00  0.00    +0.028 A 
ATOM      6  C   UNL     1       2.176  -1.089  -3.867  0.00  0.00    +0.055 A 
ATOM      7  C   UNL     1       2.862  -0.929  -2.654  0.00  0.00    +0.040 A 
ATOM      8  C   UNL     1       2.221  -0.593  -1.486  0.00  0.00    +0.044 A 
ATOM      9  S   UNL     1       4.548  -1.251  -3.100  0.00  0.00    -0.052 S 
ATOM     10  C   UNL     1       4.330  -1.563  -4.737  0.00  0.00    +0.164 A 
ATOM     11  N   UNL     1       5.255  -1.877  -5.638  0.00  0.00    -0.152 NA
ATOM     12  N   UNL     1       2.993  -1.421  -4.931  0.00  0.00    -0.335 N 
ATOM     13  H   UNL     1       2.613  -1.554  -5.813  0.00  0.00    +0.168 HD
BRANCH   3  15
ATOM     14  C   UNL     1       0.004   1.825   0.034  0.00  0.00    +0.200 C 
ATOM     15  S   UNL     1       0.004   0.011  -0.001  0.00  0.00    -0.006 S 
ATOM     16  O   UNL     1       0.826  -0.498   1.040  0.00  0.00    -0.170 OA
ATOM     17  O   UNL     1      -1.319  -0.475  -0.184  0.00  0.00    -0.170 OA
ENDBRANCH   3  15
ENDBRANCH   1  11
BRANCH   1  18
ATOM     18  C   UNL     1       7.568  -2.326  -6.276  0.00  0.00    +0.050 A 
ATOM     19  C   UNL     1       7.216  -2.673  -7.571  0.00  0.00    +0.042 A 
ATOM     20  C   UNL     1       8.220  -2.999  -8.495  0.00  0.00    +0.072 A 
ATOM     21  N   UNL     1       9.495  -2.984  -8.165  0.00  0.00    -0.247 NA
ATOM     22  C   UNL     1       9.898  -2.659  -6.935  0.00  0.00    +0.072 A 
ATOM     23  C   UNL     1       8.947  -2.310  -5.944  0.00  0.00    +0.013 A 
ATOM     24  C   UNL     1       9.381  -1.965  -4.658  0.00  0.00    +0.011 A 
ATOM     25  C   UNL     1      10.714  -1.961  -4.373  0.00  0.00    +0.001 A 
ATOM     26  C   UNL     1      11.653  -2.296  -5.346  0.00  0.00    +0.002 A 
ATOM     27  C   UNL     1      11.266  -2.649  -6.603  0.00  0.00    +0.028 A 
BRANCH  20  28
ATOM     28  C   UNL     1       7.835  -3.370  -9.879  0.00  0.00    +0.003 A 
ATOM     29  C   UNL     1       6.493  -3.393 -10.270  0.00  0.00    +0.030 A 
ATOM     30  C   UNL     1       6.179  -3.744 -11.567  0.00  0.00    +0.111 A 
ATOM     31  N   UNL     1       7.125  -4.056 -12.432  0.00  0.00    -0.263 NA
ATOM     32  C   UNL     1       8.403  -4.047 -12.104  0.00  0.00    +0.111 A 
ATOM     33  C   UNL     1       8.805  -3.702 -10.829  0.00  0.00    +0.030 A 
ENDBRANCH  20  28
ENDBRANCH   1  18
TORSDOF 4
