REMARK  Name = ZINC21575474
REMARK  10 active torsions:
REMARK  status: ('A' for Active; 'I' for Inactive)
REMARK    1  A    between atoms: C_1  and  C_2
REMARK    2  A    between atoms: C_2  and  O_3
REMARK    3  A    between atoms: O_3  and  C_4
REMARK    4  A    between atoms: C_9  and  C_10
REMARK    5  A    between atoms: C_13  and  S_16
REMARK    6  A    between atoms: N_14  and  N_15
REMARK    7  A    between atoms: S_16  and  C_17
REMARK    8  A    between atoms: C_17  and  C_19
REMARK    9  A    between atoms: C_17  and  C_20
REMARK   10  A    between atoms: C_25  and  C_28
REMARK                            x       y       z     vdW  Elec       q    Type
REMARK                         _______ _______ _______ _____ _____    ______ ____
ROOT
ATOM      1  C   UNL     1      -1.963   2.444   3.538  0.00  0.00    +0.185 A 
ATOM      2  N   UNL     1      -2.586   2.870   2.465  0.00  0.00    -0.127 NA
ATOM      3  N   UNL     1      -3.605   3.578   2.801  0.00  0.00    -0.121 NA
ATOM      4  C   UNL     1      -3.695   3.646   4.110  0.00  0.00    +0.209 A 
ATOM      5  N   UNL     1      -2.657   2.922   4.625  0.00  0.00    -0.224 N 
ENDROOT
BRANCH   1  11
ATOM      6  C   UNL     1      -0.149   1.182   2.379  0.00  0.00    +0.131 A 
ATOM      7  C   UNL     1       0.992   0.398   2.422  0.00  0.00    +0.046 A 
ATOM      8  C   UNL     1       1.534   0.029   3.639  0.00  0.00    +0.004 A 
ATOM      9  C   UNL     1       0.941   0.437   4.821  0.00  0.00    +0.001 A 
ATOM     10  C   UNL     1      -0.196   1.218   4.795  0.00  0.00    +0.015 A 
ATOM     11  C   UNL     1      -0.748   1.602   3.573  0.00  0.00    +0.062 A 
BRANCH   6  12
ATOM     12  O   UNL     1      -0.682   1.547   1.184  0.00  0.00    -0.492 OA
BRANCH  12  14
ATOM     13  C   UNL     1      -0.753   1.593  -1.232  0.00  0.00    +0.048 C 
ATOM     14  C   UNL     1      -0.013   1.086   0.008  0.00  0.00    +0.226 C 
ENDBRANCH  12  14
ENDBRANCH   6  12
ENDBRANCH   1  11
BRANCH   5  15
ATOM     15  N   UNL     1      -2.368   2.719   5.945  0.00  0.00    -0.295 N 
ATOM     16  H   UNL     1      -3.007   3.160   6.723  0.00  0.00    +0.163 HD
ATOM     17  H   UNL     1      -1.495   2.113   6.229  0.00  0.00    +0.163 HD
ENDBRANCH   5  15
BRANCH   4  18
ATOM     18  S   UNL     1      -4.929   4.505   5.029  0.00  0.00    -0.072 S 
BRANCH  18  19
ATOM     19  C   UNL     1      -5.917   5.183   3.673  0.00  0.00    +0.137 C 
ATOM     20  C   UNL     1      -6.564   4.037   2.892  0.00  0.00    +0.029 C 
BRANCH  19  21
ATOM     21  C   UNL     1      -6.991   6.079   4.233  0.00  0.00    +0.229 C 
ATOM     22  O   UNL     1      -7.323   5.974   5.394  0.00  0.00    -0.274 OA
ATOM     23  N   UNL     1      -7.582   6.997   3.443  0.00  0.00    -0.301 N 
ATOM     24  C   UNL     1      -7.186   7.140   2.035  0.00  0.00    +0.108 C 
ATOM     25  C   UNL     1      -6.821   8.599   1.766  0.00  0.00    +0.022 C 
ATOM     26  C   UNL     1      -7.985   9.499   2.186  0.00  0.00    -0.011 C 
ATOM     27  C   UNL     1      -8.246   9.333   3.685  0.00  0.00    +0.022 C 
ATOM     28  C   UNL     1      -8.631   7.878   3.974  0.00  0.00    +0.108 C 
ATOM     29  C   UNL     1      -7.634  10.958   1.889  0.00  0.00    +0.007 C 
ENDBRANCH  19  21
ENDBRANCH  18  19
ENDBRANCH   4  18
TORSDOF 7
