REMARK  Name = ZINC16286364
REMARK  11 active torsions:
REMARK  status: ('A' for Active; 'I' for Inactive)
REMARK    1  A    between atoms: C_1  and  C_2
REMARK    2  A    between atoms: C_7  and  C_12
REMARK    3  A    between atoms: C_12  and  C_14
REMARK    4  A    between atoms: N_18  and  C_30
REMARK    5  A    between atoms: C_19  and  C_21
REMARK    6  A    between atoms: C_25  and  N_27
REMARK    7  A    between atoms: C_30  and  C_31
REMARK    8  A    between atoms: C_31  and  C_32
REMARK    9  A    between atoms: C_32  and  N_33
REMARK   10  A    between atoms: N_33  and  C_34
REMARK   11  A    between atoms: N_33  and  C_35
REMARK                            x       y       z     vdW  Elec       q    Type
REMARK                         _______ _______ _______ _____ _____    ______ ____
ROOT
ATOM      1  C   UNL     1       1.374   1.646  -0.109  0.00  0.00    +0.076 C 
ATOM      2  C   UNL     1       1.276   1.973   1.200  0.00  0.00    +0.249 C 
ATOM      3  C   UNL     1      -0.146   1.949   1.602  0.00  0.00    +0.288 C 
ATOM      4  O   UNL     1      -0.560   2.198   2.717  0.00  0.00    -0.266 OA
ATOM      5  N   UNL     1      -0.915   1.612   0.551  0.00  0.00    -0.284 N 
ATOM      6  C   UNL     1      -0.033   1.395  -0.602  0.00  0.00    +0.145 C 
ATOM      7  O   UNL     1       2.316   2.274   2.013  0.00  0.00    -0.282 OA
ENDROOT
BRANCH   6   8
ATOM      8  C   UNL     1      -0.375   2.361  -1.707  0.00  0.00    -0.020 A 
ATOM      9  C   UNL     1      -0.698   3.671  -1.404  0.00  0.00    +0.006 A 
ATOM     10  C   UNL     1      -1.007   4.558  -2.418  0.00  0.00    +0.003 A 
ATOM     11  C   UNL     1      -1.004   4.133  -3.733  0.00  0.00    +0.033 A 
ATOM     12  C   UNL     1      -0.686   2.822  -4.035  0.00  0.00    +0.127 A 
ATOM     13  C   UNL     1      -0.371   1.936  -3.022  0.00  0.00    +0.038 A 
BRANCH  12  14
ATOM     14  N   UNL     1      -0.682   2.367  -5.444  0.00  0.00    +0.056 N 
ATOM     15  O   UNL     1      -0.306   1.242  -5.719  0.00  0.00    -0.126 OA
ATOM     16  O   UNL     1      -1.055   3.118  -6.327  0.00  0.00    -0.126 OA
ENDBRANCH  12  14
ENDBRANCH   6   8
BRANCH   1  17
ATOM     17  C   UNL     1       2.606   1.554  -0.898  0.00  0.00    +0.195 C 
ATOM     18  O   UNL     1       3.281   2.548  -1.092  0.00  0.00    -0.287 OA
BRANCH  17  24
ATOM     19  C   UNL     1       4.399  -2.789  -5.495  0.00  0.00    +0.052 C 
ATOM     20  C   UNL     1       5.212  -2.846  -4.201  0.00  0.00    +0.175 C 
ATOM     21  C   UNL     1       5.645  -1.427  -3.763  0.00  0.00    +0.083 C 
ATOM     22  C   UNL     1       4.523  -1.033  -2.822  0.00  0.00    -0.002 A 
ATOM     23  C   UNL     1       4.134   0.180  -2.312  0.00  0.00    +0.019 A 
ATOM     24  C   UNL     1       3.029   0.255  -1.458  0.00  0.00    +0.023 A 
ATOM     25  C   UNL     1       2.323  -0.911  -1.143  0.00  0.00    +0.015 A 
ATOM     26  C   UNL     1       2.720  -2.121  -1.661  0.00  0.00    +0.046 A 
ATOM     27  C   UNL     1       3.829  -2.198  -2.506  0.00  0.00    +0.124 A 
ATOM     28  O   UNL     1       4.393  -3.282  -3.103  0.00  0.00    -0.488 OA
ENDBRANCH  17  24
ENDBRANCH   1  17
BRANCH   5  29
ATOM     29  C   UNL     1      -2.374   1.483   0.556  0.00  0.00    +0.107 C 
BRANCH  29  30
ATOM     30  C   UNL     1      -2.759   0.046   0.914  0.00  0.00    +0.000 C 
BRANCH  30  31
ATOM     31  C   UNL     1      -4.283  -0.087   0.919  0.00  0.00    -0.078 C 
BRANCH  31  32
ATOM     32  N   UNL     1      -4.652  -1.467   1.263  0.00  0.00    +0.376 N 
ATOM     33  C   UNL     1      -6.096  -1.580   1.510  0.00  0.00    -0.097 C 
ATOM     34  C   UNL     1      -4.222  -2.403   0.215  0.00  0.00    -0.097 C 
ATOM     35  H   UNL     1      -4.128  -1.736   2.192  0.00  0.00    -0.083 HD
ENDBRANCH  31  32
ENDBRANCH  30  31
ENDBRANCH  29  30
ENDBRANCH   5  29
TORSDOF 8
