REMARK  Name = ZINC04345385
REMARK  11 active torsions:
REMARK  status: ('A' for Active; 'I' for Inactive)
REMARK    1  A    between atoms: C_1  and  C_2
REMARK    2  A    between atoms: C_2  and  N_3
REMARK    3  A    between atoms: C_11  and  C_13
REMARK    4  A    between atoms: C_14  and  C_16
REMARK    5  A    between atoms: C_17  and  C_24
REMARK    6  A    between atoms: C_18  and  C_23
REMARK    7  A    between atoms: C_20  and  C_22
REMARK    8  A    between atoms: C_24  and  O_26
REMARK    9  A    between atoms: O_26  and  C_27
REMARK   10  A    between atoms: C_27  and  C_28
REMARK   11  A    between atoms: C_27  and  C_29
REMARK                            x       y       z     vdW  Elec       q    Type
REMARK                         _______ _______ _______ _____ _____    ______ ____
ROOT
ATOM      1  N   UNL     1       2.225   7.605  -6.955  0.00  0.00    -0.299 N 
ATOM      2  C   UNL     1       2.072   6.266  -6.983  0.00  0.00    +0.303 C 
ATOM      3  O   UNL     1       1.859   5.700  -8.038  0.00  0.00    -0.253 OA
ATOM      4  N   UNL     1       2.156   5.554  -5.842  0.00  0.00    -0.280 N 
ATOM      5  C   UNL     1       2.292   6.232  -4.545  0.00  0.00    +0.128 C 
ATOM      6  C   UNL     1       1.164   5.756  -3.622  0.00  0.00    +0.127 C 
ATOM      7  N   UNL     1       1.121   4.288  -3.652  0.00  0.00    -0.293 N 
ATOM      8  C   UNL     1       0.990   3.609  -4.949  0.00  0.00    +0.130 C 
ATOM      9  C   UNL     1       2.112   4.085  -5.871  0.00  0.00    +0.092 C 
ATOM     10  C   UNL     1       3.448   3.522  -5.382  0.00  0.00    +0.030 C 
ATOM     11  C   UNL     1       1.205   3.576  -2.510  0.00  0.00    +0.266 C 
ATOM     12  O   UNL     1       1.354   2.371  -2.556  0.00  0.00    -0.268 OA
ATOM     13  H   UNL     1       2.323   8.064  -6.106  0.00  0.00    +0.150 HD
ENDROOT
BRANCH  11  14
ATOM     14  C   UNL     1       1.116   4.264  -1.197  0.00  0.00    +0.143 A 
ATOM     15  C   UNL     1       1.343   3.559  -0.000  0.00  0.00    +0.110 A 
ATOM     16  C   UNL     1       1.240   4.260   1.207  0.00  0.00    +0.056 A 
ATOM     17  N   UNL     1       0.947   5.548   1.175  0.00  0.00    -0.237 NA
ATOM     18  C   UNL     1       0.740   6.173   0.033  0.00  0.00    +0.127 A 
ATOM     19  N   UNL     1       0.820   5.557  -1.129  0.00  0.00    -0.227 NA
ATOM     20  C   UNL     1       0.402   7.641   0.057  0.00  0.00    +0.088 C 
ATOM     21  C   UNL     1       1.467   3.559   2.521  0.00  0.00    +0.066 C 
BRANCH  15  22
ATOM     22  C   UNL     1       1.675   2.118  -0.018  0.00  0.00    +0.343 C 
ATOM     23  O   UNL     1       2.835   1.763  -0.080  0.00  0.00    -0.245 OA
BRANCH  22  24
ATOM     24  O   UNL     1       0.691   1.200   0.036  0.00  0.00    -0.458 OA
BRANCH  24  25
ATOM     25  C   UNL     1       1.091  -0.196   0.015  0.00  0.00    +0.171 C 
ATOM     26  C   UNL     1       0.071  -1.030   0.793  0.00  0.00    +0.052 C 
ATOM     27  C   UNL     1       1.153  -0.687  -1.433  0.00  0.00    +0.052 C 
ENDBRANCH  24  25
ENDBRANCH  22  24
ENDBRANCH  15  22
ENDBRANCH  11  14
BRANCH   1  29
ATOM     28  C   UNL     1       2.427   9.853  -7.896  0.00  0.00    +0.024 C 
ATOM     29  C   UNL     1       2.243   8.366  -8.206  0.00  0.00    +0.102 C 
ENDBRANCH   1  29
TORSDOF 5
