REMARK  Name = ZINC39747852
REMARK  5 active torsions:
REMARK  status: ('A' for Active; 'I' for Inactive)
REMARK    1  A    between atoms: C_7  and  C_10
REMARK    2  A    between atoms: C_13  and  S_16
REMARK    3  A    between atoms: S_16  and  C_17
REMARK    4  A    between atoms: C_17  and  C_19
REMARK    5  A    between atoms: C_17  and  C_26
REMARK                            x       y       z     vdW  Elec       q    Type
REMARK                         _______ _______ _______ _____ _____    ______ ____
ROOT
ATOM      1  C   UNL     1       0.485  -5.593   0.581  0.00  0.00    +0.238 C 
ATOM      2  N   UNL     1      -0.696  -5.037   0.649  0.00  0.00    -0.145 NA
ATOM      3  N   UNL     1      -1.606  -5.739  -0.155  0.00  0.00    -0.219 N 
ATOM      4  C   UNL     1      -0.834  -6.838  -0.758  0.00  0.00    +0.340 C 
ATOM      5  O   UNL     1       0.494  -6.671  -0.240  0.00  0.00    -0.443 OA
ATOM      6  H   UNL     1      -2.546  -5.541  -0.287  0.00  0.00    +0.173 HD
ENDROOT
BRANCH   1  13
ATOM      7  C   UNL     1       1.069  -2.104   3.421  0.00  0.00    +0.001 A 
ATOM      8  C   UNL     1       2.375  -1.986   3.899  0.00  0.00    +0.002 A 
ATOM      9  C   UNL     1       3.353  -2.848   3.529  0.00  0.00    +0.026 A 
ATOM     10  C   UNL     1       3.058  -3.907   2.632  0.00  0.00    +0.043 A 
ATOM     11  N   UNL     1       3.817  -4.860   2.127  0.00  0.00    -0.380 N 
ATOM     12  C   UNL     1       3.009  -5.705   1.242  0.00  0.00    +0.154 C 
ATOM     13  C   UNL     1       1.611  -5.125   1.272  0.00  0.00    +0.043 C 
ATOM     14  C   UNL     1       1.679  -4.027   2.132  0.00  0.00    +0.008 A 
ATOM     15  C   UNL     1       0.713  -3.092   2.561  0.00  0.00    +0.010 A 
ATOM     16  H   UNL     1       4.761  -4.983   2.312  0.00  0.00    +0.160 HD
ENDBRANCH   1  13
BRANCH   4  17
ATOM     17  S   UNL     1      -0.829  -6.692  -2.566  0.00  0.00    -0.079 S 
BRANCH  17  18
ATOM     18  C   UNL     1      -0.054  -5.081  -2.874  0.00  0.00    +0.167 C 
BRANCH  18  19
ATOM     19  C   UNL     1      -0.098  -4.776  -4.349  0.00  0.00    -0.025 A 
ATOM     20  C   UNL     1       0.586  -5.582  -5.241  0.00  0.00    +0.008 A 
ATOM     21  C   UNL     1       0.546  -5.303  -6.594  0.00  0.00    +0.038 A 
ATOM     22  C   UNL     1      -0.178  -4.218  -7.057  0.00  0.00    +0.123 A 
ATOM     23  C   UNL     1      -0.862  -3.412  -6.162  0.00  0.00    +0.038 A 
ATOM     24  C   UNL     1      -0.826  -3.695  -4.810  0.00  0.00    +0.008 A 
ATOM     25  F   UNL     1      -0.217  -3.945  -8.379  0.00  0.00    -0.205 F 
ENDBRANCH  18  19
BRANCH  18  26
ATOM     26  C   UNL     1       1.379  -5.115  -2.410  0.00  0.00    +0.228 C 
ATOM     27  O   UNL     1       1.895  -4.114  -1.961  0.00  0.00    -0.274 OA
ATOM     28  N   UNL     1       2.087  -6.259  -2.495  0.00  0.00    -0.328 N 
ATOM     29  H   UNL     1       1.700  -7.039  -2.922  0.00  0.00    +0.145 HD
ATOM     30  H   UNL     1       2.985  -6.302  -2.130  0.00  0.00    +0.145 HD
ENDBRANCH  18  26
ENDBRANCH  17  18
ENDBRANCH   4  17
TORSDOF 5
