REMARK  Name = ZINC25347531
REMARK  7 active torsions:
REMARK  status: ('A' for Active; 'I' for Inactive)
REMARK    1  A    between atoms: C_2  and  C_26
REMARK    2  A    between atoms: C_5  and  N_10
REMARK    3  A    between atoms: C_6  and  N_7
REMARK    4  A    between atoms: N_10  and  C_11
REMARK    5  A    between atoms: C_11  and  C_12
REMARK    6  A    between atoms: C_12  and  C_13
REMARK    7  A    between atoms: C_13  and  N_14
REMARK                            x       y       z     vdW  Elec       q    Type
REMARK                         _______ _______ _______ _____ _____    ______ ____
ROOT
ATOM      1  N   UNL     1       1.152  -2.035   0.479  0.00  0.00    -0.342 N 
ATOM      2  H   UNL     1       0.305  -2.503   0.547  0.00  0.00    +0.146 HD
ENDROOT
BRANCH   1   7
ATOM      3  C   UNL     1       0.013   1.377  -0.270  0.00  0.00    +0.048 A 
ATOM      4  C   UNL     1       1.213   2.065  -0.247  0.00  0.00    +0.075 A 
ATOM      5  C   UNL     1       2.393   1.393   0.018  0.00  0.00    +0.054 A 
ATOM      6  C   UNL     1       2.376   0.032   0.260  0.00  0.00    +0.045 A 
ATOM      7  C   UNL     1       1.173  -0.660   0.236  0.00  0.00    +0.059 A 
ATOM      8  C   UNL     1      -0.011   0.018  -0.030  0.00  0.00    +0.147 A 
ATOM      9 CL   UNL     1       3.897   2.260   0.047  0.00  0.00    -0.083 Cl
BRANCH   4  10
ATOM     10  C   UNL     1       1.234   3.549  -0.510  0.00  0.00    +0.419 C 
ATOM     11  F   UNL     1      -0.068   3.999  -0.751  0.00  0.00    -0.166 F 
ATOM     12  F   UNL     1       1.759   4.213   0.604  0.00  0.00    -0.166 F 
ATOM     13  F   UNL     1       2.033   3.812  -1.629  0.00  0.00    -0.166 F 
ENDBRANCH   4  10
BRANCH   8  14
ATOM     14  N   UNL     1      -1.295  -0.716  -0.055  0.00  0.00    +0.058 N 
ATOM     15  O   UNL     1      -1.343  -1.835  -0.512  0.00  0.00    -0.126 OA
ATOM     16  O   UNL     1      -2.297  -0.198   0.381  0.00  0.00    -0.126 OA
ENDBRANCH   8  14
ENDBRANCH   1   7
BRANCH   1  17
ATOM     17  C   UNL     1       2.409  -2.772   0.631  0.00  0.00    +0.103 C 
BRANCH  17  18
ATOM     18  C   UNL     1       2.107  -4.250   0.887  0.00  0.00    +0.038 C 
BRANCH  18  19
ATOM     19  C   UNL     1       3.420  -5.018   1.046  0.00  0.00    +0.119 C 
BRANCH  19  20
ATOM     20  N   UNL     1       3.131  -6.433   1.291  0.00  0.00    -0.224 N 
ATOM     21  C   UNL     1       2.957  -6.971   2.518  0.00  0.00    +0.246 C 
ATOM     22  O   UNL     1       3.007  -6.400   3.586  0.00  0.00    -0.273 OA
ATOM     23  C   UNL     1       2.685  -8.434   2.276  0.00  0.00    +0.113 C 
ATOM     24  C   UNL     1       1.310  -8.838   2.823  0.00  0.00    +0.035 C 
ATOM     25  C   UNL     1       1.520 -10.286   3.335  0.00  0.00    +0.003 C 
ATOM     26  C   UNL     1       2.951 -10.237   3.929  0.00  0.00    +0.003 C 
ATOM     27  C   UNL     1       3.730  -9.315   2.965  0.00  0.00    +0.035 C 
ATOM     28  N   UNL     1       2.739  -8.581   0.820  0.00  0.00    -0.285 N 
ATOM     29  C   UNL     1       3.001  -7.354   0.327  0.00  0.00    +0.309 C 
ATOM     30  O   UNL     1       3.110  -7.110  -0.859  0.00  0.00    -0.252 OA
ATOM     31  H   UNL     1       2.609  -9.397   0.311  0.00  0.00    +0.151 HD
ENDBRANCH  19  20
ENDBRANCH  18  19
ENDBRANCH  17  18
ENDBRANCH   1  17
TORSDOF 7
