REMARK  Name = ZINC59121600
REMARK  11 active torsions:
REMARK  status: ('A' for Active; 'I' for Inactive)
REMARK    1  A    between atoms: C_1  and  C_2
REMARK    2  A    between atoms: C_2  and  C_4
REMARK    3  A    between atoms: N_6  and  C_27
REMARK    4  A    between atoms: C_13  and  C_24
REMARK    5  A    between atoms: N_14  and  N_15
REMARK    6  A    between atoms: N_15  and  C_16
REMARK    7  A    between atoms: C_19  and  O_22
REMARK    8  A    between atoms: O_22  and  C_23
REMARK    9  A    between atoms: C_24  and  C_26
REMARK   10  A    between atoms: C_30  and  O_33
REMARK   11  A    between atoms: O_33  and  C_34
REMARK                            x       y       z     vdW  Elec       q    Type
REMARK                         _______ _______ _______ _____ _____    ______ ____
ROOT
ATOM      1  C   UNL     1      -0.545  -0.080   1.349  0.00  0.00    +0.162 C 
ATOM      2  N   UNL     1      -1.699   0.540   1.270  0.00  0.00    -0.166 NA
ATOM      3  N   UNL     1      -2.855  -0.083   0.831  0.00  0.00    -0.180 N 
ATOM      4  C   UNL     1      -2.690  -1.483   0.464  0.00  0.00    +0.226 C 
ATOM      5  S   UNL     1      -0.910  -1.736   0.781  0.00  0.00    -0.043 S 
ATOM      6  N   UNL     1      -3.530  -2.421   1.186  0.00  0.00    -0.272 N 
ATOM      7  C   UNL     1      -4.277  -3.368   0.351  0.00  0.00    +0.121 C 
ATOM      8  C   UNL     1      -4.630  -2.735  -1.030  0.00  0.00    +0.093 C 
ATOM      9  S   UNL     1      -3.065  -1.782  -1.301  0.00  0.00    -0.101 S 
ATOM     10  C   UNL     1      -3.620  -2.423   2.584  0.00  0.00    +0.158 C 
ATOM     11  N   UNL     1      -2.702  -3.025   3.299  0.00  0.00    -0.291 N 
ATOM     12  H   UNL     1      -2.713  -2.949   4.266  0.00  0.00    +0.186 HD
ENDROOT
BRANCH   3  13
ATOM     13  C   UNL     1      -4.082   0.578   0.747  0.00  0.00    +0.056 A 
ATOM     14  C   UNL     1      -4.449   1.490   1.730  0.00  0.00    +0.028 A 
ATOM     15  C   UNL     1      -5.662   2.143   1.647  0.00  0.00    +0.047 A 
ATOM     16  C   UNL     1      -6.515   1.889   0.582  0.00  0.00    +0.120 A 
ATOM     17  C   UNL     1      -6.150   0.979  -0.400  0.00  0.00    +0.047 A 
ATOM     18  C   UNL     1      -4.935   0.330  -0.322  0.00  0.00    +0.028 A 
BRANCH  16  19
ATOM     19  O   UNL     1      -7.710   2.533   0.501  0.00  0.00    -0.495 OA
ATOM     20  C   UNL     1      -8.538   2.224  -0.622  0.00  0.00    +0.277 C 
ENDBRANCH  16  19
ENDBRANCH   3  13
BRANCH   1  22
ATOM     21  C   UNL     1       0.799   1.879   2.224  0.00  0.00    +0.094 C 
ATOM     22  C   UNL     1       0.698   0.443   1.778  0.00  0.00    +0.186 C 
ATOM     23  O   UNL     1       1.684  -0.267   1.788  0.00  0.00    -0.290 OA
ENDBRANCH   1  22
BRANCH  10  24
ATOM     24  C   UNL     1      -4.702  -1.774   3.224  0.00  0.00    +0.192 C 
ATOM     25  O   UNL     1      -4.710  -1.657   4.433  0.00  0.00    -0.289 OA
ATOM     26  C   UNL     1      -5.844  -1.229   2.406  0.00  0.00    +0.095 C 
ENDBRANCH  10  24
BRANCH  11  27
ATOM     27  N   UNL     1      -1.704  -3.778   2.666  0.00  0.00    -0.259 N 
ATOM     28  H   UNL     1      -1.688  -3.847   1.699  0.00  0.00    +0.172 HD
BRANCH  27  29
ATOM     29  C   UNL     1      -0.733  -4.430   3.429  0.00  0.00    +0.047 A 
ATOM     30  C   UNL     1      -0.758  -4.336   4.815  0.00  0.00    +0.028 A 
ATOM     31  C   UNL     1       0.203  -4.981   5.568  0.00  0.00    +0.047 A 
ATOM     32  C   UNL     1       1.194  -5.722   4.941  0.00  0.00    +0.120 A 
ATOM     33  C   UNL     1       1.221  -5.816   3.556  0.00  0.00    +0.047 A 
ATOM     34  C   UNL     1       0.258  -5.177   2.802  0.00  0.00    +0.028 A 
BRANCH  32  35
ATOM     35  O   UNL     1       2.140  -6.357   5.683  0.00  0.00    -0.495 OA
ATOM     36  C   UNL     1       3.131  -7.102   4.972  0.00  0.00    +0.277 C 
ENDBRANCH  32  35
ENDBRANCH  27  29
ENDBRANCH  11  27
TORSDOF 7
