REMARK  Name = ZINC38965351
REMARK  4 active torsions:
REMARK  status: ('A' for Active; 'I' for Inactive)
REMARK    1  A    between atoms: N_7  and  S_8
REMARK    2  A    between atoms: S_8  and  C_11
REMARK    3  A    between atoms: C_18  and  N_23
REMARK    4  A    between atoms: N_23  and  C_24
REMARK                            x       y       z     vdW  Elec       q    Type
REMARK                         _______ _______ _______ _____ _____    ______ ____
ROOT
ATOM      1  C   UNL     1       0.573   1.430  -0.701  0.00  0.00    +0.002 A 
ATOM      2  C   UNL     1       1.793   2.108  -0.541  0.00  0.00    +0.002 A 
ATOM      3  C   UNL     1       2.960   1.468  -0.314  0.00  0.00    +0.030 A 
ATOM      4  C   UNL     1       2.996   0.053  -0.227  0.00  0.00    +0.089 A 
ATOM      5  N   UNL     1       4.137  -0.566  -0.005  0.00  0.00    -0.226 NA
ATOM      6  C   UNL     1       4.206  -1.904   0.083  0.00  0.00    +0.192 C 
ATOM      7  N   UNL     1       5.345  -2.493   0.303  0.00  0.00    -0.110 NA
ATOM      8  C   UNL     1       2.941  -2.717  -0.078  0.00  0.00    +0.237 C 
ATOM      9  N   UNL     1       1.685  -1.991  -0.325  0.00  0.00    -0.359 N 
ATOM     10  C   UNL     1       1.722  -0.689  -0.392  0.00  0.00    +0.063 A 
ATOM     11  C   UNL     1       0.495   0.083  -0.637  0.00  0.00    +0.027 A 
ATOM     12  H   UNL     1       0.849  -2.470  -0.434  0.00  0.00    +0.162 HD
ENDROOT
BRANCH   7  13
ATOM     13  S   UNL     1       6.723  -1.591   0.478  0.00  0.00    +0.100 S 
ATOM     14  O   UNL     1       6.970  -0.979  -0.781  0.00  0.00    -0.146 OA
ATOM     15  O   UNL     1       6.567  -0.839   1.673  0.00  0.00    -0.146 OA
BRANCH  13  16
ATOM     16  C   UNL     1       8.049  -2.716   0.760  0.00  0.00    +0.113 A 
ATOM     17  C   UNL     1       8.372  -3.094   2.050  0.00  0.00    +0.032 A 
ATOM     18  C   UNL     1       9.412  -3.977   2.272  0.00  0.00    +0.040 A 
ATOM     19  C   UNL     1      10.130  -4.483   1.202  0.00  0.00    +0.124 A 
ATOM     20  C   UNL     1       9.806  -4.104  -0.090  0.00  0.00    +0.040 A 
ATOM     21  C   UNL     1       8.763  -3.225  -0.310  0.00  0.00    +0.032 A 
ATOM     22  F   UNL     1      11.147  -5.345   1.418  0.00  0.00    -0.205 F 
ENDBRANCH  13  16
ENDBRANCH   7  13
BRANCH   8  23
ATOM     23  N   UNL     1       2.764  -3.514   1.139  0.00  0.00    -0.318 N 
ATOM     24  H   UNL     1       2.909  -3.110   2.009  0.00  0.00    +0.148 HD
BRANCH  23  25
ATOM     25  C   UNL     1       2.387  -4.857   1.046  0.00  0.00    +0.029 A 
ATOM     26  C   UNL     1       2.034  -5.396  -0.184  0.00  0.00    +0.026 A 
ATOM     27  C   UNL     1       1.662  -6.724  -0.274  0.00  0.00    +0.040 A 
ATOM     28  C   UNL     1       1.641  -7.516   0.862  0.00  0.00    +0.124 A 
ATOM     29  C   UNL     1       1.992  -6.980   2.089  0.00  0.00    +0.040 A 
ATOM     30  C   UNL     1       2.369  -5.654   2.183  0.00  0.00    +0.026 A 
ATOM     31  F   UNL     1       1.276  -8.814   0.772  0.00  0.00    -0.205 F 
ENDBRANCH  23  25
ENDBRANCH   8  23
TORSDOF 4
