REMARK  Name = ZINC04497611
REMARK  3 active torsions:
REMARK  status: ('A' for Active; 'I' for Inactive)
REMARK    1  A    between atoms: C_3  and  C_6
REMARK    2  A    between atoms: N_8  and  C_9
REMARK    3  A    between atoms: N_14  and  C_16
REMARK                            x       y       z     vdW  Elec       q    Type
REMARK                         _______ _______ _______ _____ _____    ______ ____
ROOT
ATOM      1  C   UNL     1      -4.767   4.291  -0.427  0.00  0.00    +0.100 C 
ATOM      2  C   UNL     1      -4.049   5.544   0.127  0.00  0.00    +0.120 C 
ATOM      3  C   UNL     1      -2.588   5.152   0.158  0.00  0.00    +0.222 C 
ATOM      4  O   UNL     1      -1.663   5.929   0.266  0.00  0.00    -0.275 OA
ATOM      5  N   UNL     1      -2.464   3.818   0.047  0.00  0.00    -0.269 N 
ATOM      6  C   UNL     1      -3.776   3.167  -0.050  0.00  0.00    +0.136 C 
ENDROOT
BRANCH   5   7
ATOM      7  C   UNL     1      -1.241   3.137   0.030  0.00  0.00    +0.040 A 
ATOM      8  C   UNL     1      -1.219   1.748   0.034  0.00  0.00    +0.027 A 
ATOM      9  C   UNL     1      -0.012   1.076   0.025  0.00  0.00    +0.051 A 
ATOM     10  C   UNL     1       1.180   1.784   0.000  0.00  0.00    +0.162 A 
ATOM     11  C   UNL     1       1.161   3.174  -0.010  0.00  0.00    +0.164 A 
ATOM     12  C   UNL     1      -0.050   3.848   0.006  0.00  0.00    +0.073 A 
ATOM     13  O   UNL     1       2.321   3.886  -0.038  0.00  0.00    -0.485 OA
ATOM     14  C   UNL     1       3.516   3.185   0.325  0.00  0.00    +0.270 C 
ATOM     15  C   UNL     1       3.523   1.837  -0.409  0.00  0.00    +0.270 C 
ATOM     16  O   UNL     1       2.360   1.103  -0.010  0.00  0.00    -0.485 OA
ENDBRANCH   5   7
BRANCH   1  19
ATOM     17  C   UNL     1      -6.060   4.898  -2.401  0.00  0.00    +0.280 C 
ATOM     18  O   UNL     1      -6.945   5.293  -1.664  0.00  0.00    -0.267 OA
ATOM     19  N   UNL     1      -4.930   4.380  -1.880  0.00  0.00    -0.304 N 
ATOM     20  H   UNL     1      -4.225   4.065  -2.468  0.00  0.00    +0.149 HD
BRANCH  17  23
ATOM     21  C   UNL     1      -7.041   5.378  -5.885  0.00  0.00    +0.042 A 
ATOM     22  C   UNL     1      -7.314   5.483  -4.512  0.00  0.00    +0.054 A 
ATOM     23  C   UNL     1      -6.224   4.987  -3.856  0.00  0.00    +0.189 A 
ATOM     24  O   UNL     1      -5.326   4.588  -4.780  0.00  0.00    -0.458 OA
ATOM     25  C   UNL     1      -5.815   4.822  -6.005  0.00  0.00    +0.196 A 
ENDBRANCH  17  23
ENDBRANCH   1  19
TORSDOF 3
