REMARK  Name = ZINC26390627
REMARK  8 active torsions:
REMARK  status: ('A' for Active; 'I' for Inactive)
REMARK    1  A    between atoms: C_1  and  C_2
REMARK    2  A    between atoms: C_3  and  C_13
REMARK    3  A    between atoms: C_5  and  C_7
REMARK    4  A    between atoms: N_15  and  C_16
REMARK    5  A    between atoms: N_15  and  C_17
REMARK    6  A    between atoms: C_17  and  C_19
REMARK    7  A    between atoms: C_17  and  C_20
REMARK    8  A    between atoms: C_23  and  N_26
REMARK                            x       y       z     vdW  Elec       q    Type
REMARK                         _______ _______ _______ _____ _____    ______ ____
ROOT
ATOM      1  C   UNL     1      -1.172   0.708  -2.057  0.00  0.00    +0.255 C 
ATOM      2  O   UNL     1      -1.029  -0.477  -1.822  0.00  0.00    -0.269 OA
ATOM      3  N   UNL     1      -0.648   1.629  -1.225  0.00  0.00    -0.293 N 
ATOM      4  C   UNL     1      -0.719   3.052  -1.567  0.00  0.00    +0.133 C 
ENDROOT
BRANCH   1   7
ATOM      5  C   UNL     1      -2.687  -1.125  -4.059  0.00  0.00    +0.067 C 
ATOM      6  C   UNL     1      -2.611   0.375  -4.178  0.00  0.00    +0.058 A 
ATOM      7  C   UNL     1      -1.915   1.135  -3.247  0.00  0.00    +0.097 A 
ATOM      8  S   UNL     1      -2.184   2.778  -3.897  0.00  0.00    -0.062 S 
ATOM      9  C   UNL     1      -3.135   2.322  -5.277  0.00  0.00    +0.109 A 
ATOM     10  N   UNL     1      -3.196   1.003  -5.162  0.00  0.00    -0.243 NA
BRANCH   9  11
ATOM     11  C   UNL     1      -3.732   3.189  -6.315  0.00  0.00    +0.007 A 
ATOM     12  C   UNL     1      -3.557   4.572  -6.259  0.00  0.00    +0.010 A 
ATOM     13  C   UNL     1      -4.112   5.375  -7.234  0.00  0.00    +0.001 A 
ATOM     14  C   UNL     1      -4.851   4.812  -8.260  0.00  0.00    +0.000 A 
ATOM     15  C   UNL     1      -5.032   3.441  -8.319  0.00  0.00    +0.001 A 
ATOM     16  C   UNL     1      -4.477   2.627  -7.353  0.00  0.00    +0.010 A 
ENDBRANCH   9  11
ENDBRANCH   1   7
BRANCH   3  17
ATOM     17  C   UNL     1      -0.006   1.207   0.023  0.00  0.00    +0.103 C 
ATOM     18  C   UNL     1      -0.808   1.736   1.214  0.00  0.00    +0.033 C 
BRANCH  17  19
ATOM     19  C   UNL     1       1.396   1.757   0.077  0.00  0.00    -0.027 A 
ATOM     20  C   UNL     1       2.177   1.769  -1.064  0.00  0.00    +0.007 A 
ATOM     21  C   UNL     1       3.461   2.278  -1.018  0.00  0.00    +0.028 A 
ATOM     22  C   UNL     1       3.970   2.766   0.177  0.00  0.00    +0.067 A 
ATOM     23  C   UNL     1       3.186   2.747   1.322  0.00  0.00    +0.028 A 
ATOM     24  C   UNL     1       1.901   2.242   1.270  0.00  0.00    +0.007 A 
BRANCH  22  25
ATOM     25  N   UNL     1       5.275   3.278   0.227  0.00  0.00    -0.220 N 
ATOM     26  C   UNL     1       6.151   3.358  -0.792  0.00  0.00    +0.225 A 
ATOM     27  N   UNL     1       7.254   3.897  -0.338  0.00  0.00    -0.222 NA
ATOM     28  C   UNL     1       7.124   4.166   0.961  0.00  0.00    +0.245 A 
ATOM     29  N   UNL     1       5.929   3.805   1.353  0.00  0.00    -0.154 NA
ENDBRANCH  22  25
ENDBRANCH  17  19
ENDBRANCH   3  17
TORSDOF 5
