REMARK  Name = ZINC20503060
REMARK  6 active torsions:
REMARK  status: ('A' for Active; 'I' for Inactive)
REMARK    1  A    between atoms: C_4  and  N_7
REMARK    2  A    between atoms: C_8  and  S_12
REMARK    3  A    between atoms: S_12  and  C_13
REMARK    4  A    between atoms: C_13  and  C_14
REMARK    5  A    between atoms: C_19  and  N_21
REMARK    6  A    between atoms: N_24  and  C_25
REMARK                            x       y       z     vdW  Elec       q    Type
REMARK                         _______ _______ _______ _____ _____    ______ ____
ROOT
ATOM      1  C   UNL     1       2.837  -5.005   2.680  0.00  0.00    +0.061 A 
ATOM      2  C   UNL     1       3.198  -5.060   4.014  0.00  0.00    +0.096 A 
ATOM      3  C   UNL     1       2.719  -6.113   4.793  0.00  0.00    +0.275 A 
ATOM      4  O   UNL     1       3.050  -6.202   6.104  0.00  0.00    -0.266 OA
ATOM      5  N   UNL     1       1.936  -7.026   4.234  0.00  0.00    -0.172 NA
ATOM      6  C   UNL     1       1.609  -6.941   2.947  0.00  0.00    +0.257 A 
ATOM      7  N   UNL     1       2.048  -5.944   2.183  0.00  0.00    -0.215 NA
ENDROOT
BRANCH   6   8
ATOM      8  N   UNL     1       0.804  -7.892   2.401  0.00  0.00    -0.177 NA
ATOM      9  C   UNL     1       0.247  -8.804   3.171  0.00  0.00    +0.203 C 
ATOM     10  N   UNL     1       0.359  -8.712   4.532  0.00  0.00    -0.369 N 
ATOM     11  N   UNL     1      -0.445  -9.845   2.609  0.00  0.00    -0.326 N 
ATOM     12  H   UNL     1       0.299  -7.847   4.967  0.00  0.00    +0.159 HD
ATOM     13  H   UNL     1      -0.892 -10.492   3.176  0.00  0.00    +0.169 HD
ATOM     14  H   UNL     1       0.500  -9.512   5.062  0.00  0.00    +0.159 HD
BRANCH  11  15
ATOM     15  C   UNL     1      -0.508  -9.973   1.217  0.00  0.00    +0.042 A 
ATOM     16  C   UNL     1       0.591  -9.636   0.437  0.00  0.00    +0.028 A 
ATOM     17  C   UNL     1       0.527  -9.764  -0.936  0.00  0.00    +0.040 A 
ATOM     18  C   UNL     1      -0.632 -10.228  -1.537  0.00  0.00    +0.124 A 
ATOM     19  C   UNL     1      -1.728 -10.565  -0.761  0.00  0.00    +0.040 A 
ATOM     20  C   UNL     1      -1.667 -10.443   0.613  0.00  0.00    +0.028 A 
ATOM     21  F   UNL     1      -0.692 -10.352  -2.881  0.00  0.00    -0.205 F 
ENDBRANCH  11  15
ENDBRANCH   6   8
BRANCH   1  22
ATOM     22  C   UNL     1       3.332  -3.884   1.803  0.00  0.00    +0.133 C 
BRANCH  22  23
ATOM     23  S   UNL     1       2.159  -2.502   1.868  0.00  0.00    -0.078 S 
BRANCH  23  25
ATOM     24  N   UNL     1       2.359  -0.064   0.525  0.00  0.00    -0.187 N 
ATOM     25  C   UNL     1       2.870  -1.289   0.806  0.00  0.00    +0.214 A 
ATOM     26  N   UNL     1       3.998  -1.399   0.137  0.00  0.00    -0.101 NA
ATOM     27  N   UNL     1       4.225  -0.333  -0.540  0.00  0.00    -0.022 NA
ATOM     28  N   UNL     1       3.277   0.522  -0.364  0.00  0.00    -0.038 NA
BRANCH  24  32
ATOM     29  C   UNL     1      -1.183   1.595   1.968  0.00  0.00    +0.000 A 
ATOM     30  C   UNL     1      -0.084   2.404   1.741  0.00  0.00    +0.002 A 
ATOM     31  C   UNL     1       1.091   1.857   1.263  0.00  0.00    +0.028 A 
ATOM     32  C   UNL     1       1.168   0.494   1.010  0.00  0.00    +0.070 A 
ATOM     33  C   UNL     1       0.063  -0.315   1.240  0.00  0.00    +0.028 A 
ATOM     34  C   UNL     1      -1.109   0.237   1.718  0.00  0.00    +0.002 A 
ENDBRANCH  24  32
ENDBRANCH  23  25
ENDBRANCH  22  23
ENDBRANCH   1  22
TORSDOF 6
