REMARK  Name = ZINC57313148
REMARK  9 active torsions:
REMARK  status: ('A' for Active; 'I' for Inactive)
REMARK    1  A    between atoms: C_1  and  C_2
REMARK    2  A    between atoms: C_2  and  C_3
REMARK    3  A    between atoms: C_2  and  C_4
REMARK    4  A    between atoms: C_2  and  N_5
REMARK    5  A    between atoms: C_6  and  C_8
REMARK    6  A    between atoms: C_14  and  N_17
REMARK    7  A    between atoms: C_18  and  C_20
REMARK    8  A    between atoms: C_21  and  C_22
REMARK    9  A    between atoms: C_26  and  N_28
REMARK                            x       y       z     vdW  Elec       q    Type
REMARK                         _______ _______ _______ _____ _____    ______ ____
ROOT
ATOM      1  C   UNL     1       2.668  -0.582  -2.649  0.00  0.00    +0.093 A 
ATOM      2  C   UNL     1       3.947  -0.345  -3.049  0.00  0.00    +0.068 A 
ATOM      3  C   UNL     1       4.418  -0.901  -4.254  0.00  0.00    +0.010 A 
ATOM      4  C   UNL     1       5.707  -0.771  -4.835  0.00  0.00    +0.010 A 
ATOM      5  C   UNL     1       6.005  -1.376  -6.014  0.00  0.00    +0.002 A 
ATOM      6  C   UNL     1       5.070  -2.143  -6.697  0.00  0.00    +0.024 A 
ATOM      7  C   UNL     1       3.799  -2.299  -6.167  0.00  0.00    +0.048 A 
ATOM      8  C   UNL     1       3.484  -1.686  -4.966  0.00  0.00    +0.043 A 
ATOM      9  S   UNL     1       2.029  -1.623  -3.950  0.00  0.00    -0.080 S 
ATOM     10 CL   UNL     1       4.995   0.640  -2.078  0.00  0.00    -0.082 Cl
ENDROOT
BRANCH   1  12
ATOM     11  N   UNL     1       0.703  -0.452  -1.209  0.00  0.00    -0.306 N 
ATOM     12  C   UNL     1       1.984  -0.104  -1.440  0.00  0.00    +0.253 C 
ATOM     13  O   UNL     1       2.574   0.606  -0.648  0.00  0.00    -0.270 OA
ATOM     14  H   UNL     1       0.232  -1.018  -1.841  0.00  0.00    +0.150 HD
BRANCH  11  16
ATOM     15  C   UNL     1      -0.006   1.554  -0.004  0.00  0.00    +0.031 C 
ATOM     16  C   UNL     1       0.021   0.025  -0.003  0.00  0.00    +0.026 C 
ATOM     17  C   UNL     1       0.768  -0.472   1.236  0.00  0.00    +0.031 C 
ATOM     18  C   UNL     1      -1.413  -0.510   0.017  0.00  0.00    +0.031 C 
ENDBRANCH  11  16
ENDBRANCH   1  12
BRANCH   7  19
ATOM     19  N   UNL     1       2.843  -3.067  -6.840  0.00  0.00    -0.281 N 
ATOM     20  C   UNL     1       3.235  -4.037  -7.690  0.00  0.00    +0.241 C 
ATOM     21  O   UNL     1       4.415  -4.313  -7.796  0.00  0.00    -0.270 OA
ATOM     22  H   UNL     1       1.898  -2.902  -6.694  0.00  0.00    +0.155 HD
BRANCH  20  23
ATOM     23  C   UNL     1       2.240  -4.760  -8.485  0.00  0.00    +0.068 C 
ATOM     24  C   UNL     1       2.632  -5.730  -9.335  0.00  0.00    +0.013 C 
BRANCH  24  25
ATOM     25  C   UNL     1       1.631  -6.456 -10.134  0.00  0.00    -0.023 A 
ATOM     26  C   UNL     1       0.274  -6.139 -10.018  0.00  0.00    +0.008 A 
ATOM     27  C   UNL     1      -0.657  -6.824 -10.770  0.00  0.00    +0.003 A 
ATOM     28  C   UNL     1      -0.251  -7.823 -11.638  0.00  0.00    +0.033 A 
ATOM     29  C   UNL     1       1.090  -8.143 -11.757  0.00  0.00    +0.127 A 
ATOM     30  C   UNL     1       2.034  -7.463 -11.017  0.00  0.00    +0.040 A 
BRANCH  29  31
ATOM     31  N   UNL     1       1.513  -9.214 -12.688  0.00  0.00    +0.056 N 
ATOM     32  O   UNL     1       0.688  -9.808 -13.342  0.00  0.00    -0.126 OA
ATOM     33  O   UNL     1       2.684  -9.495 -12.793  0.00  0.00    -0.126 OA
ENDBRANCH  29  31
ENDBRANCH  24  25
ENDBRANCH  20  23
ENDBRANCH   7  19
TORSDOF 6
