REMARK  Name = ZINC66524474
REMARK  6 active torsions:
REMARK  status: ('A' for Active; 'I' for Inactive)
REMARK    1  A    between atoms: C_1  and  C_2
REMARK    2  A    between atoms: C_2  and  C_3
REMARK    3  A    between atoms: C_3  and  C_5
REMARK    4  A    between atoms: C_3  and  N_15
REMARK    5  A    between atoms: C_16  and  C_18
REMARK    6  A    between atoms: C_19  and  C_20
REMARK                            x       y       z     vdW  Elec       q    Type
REMARK                         _______ _______ _______ _____ _____    ______ ____
ROOT
ATOM      1  C   UNL     1       0.718  -0.497  -1.257  0.00  0.00    +0.139 C 
ENDROOT
BRANCH   1   2
ATOM      2  C   UNL     1       0.632  -2.000  -1.327  0.00  0.00    +0.129 A 
ATOM      3  N   UNL     1       0.142  -2.704  -2.384  0.00  0.00    -0.340 N 
ATOM      4  H   UNL     1      -0.206  -2.333  -3.210  0.00  0.00    +0.167 HD
ATOM      5  C   UNL     1       0.234  -4.043  -2.063  0.00  0.00    +0.066 A 
ATOM      6  C   UNL     1      -0.099  -5.220  -2.721  0.00  0.00    +0.028 A 
ATOM      7  C   UNL     1       0.127  -6.433  -2.105  0.00  0.00    +0.002 A 
ATOM      8  C   UNL     1       0.682  -6.485  -0.835  0.00  0.00    +0.002 A 
ATOM      9  C   UNL     1       1.015  -5.337  -0.172  0.00  0.00    +0.030 A 
ATOM     10  C   UNL     1       0.796  -4.096  -0.776  0.00  0.00    +0.089 A 
ATOM     11  N   UNL     1       1.019  -2.814  -0.389  0.00  0.00    -0.231 NA
ENDBRANCH   1   2
BRANCH   1  12
ATOM     12  N   UNL     1       2.125  -0.091  -1.209  0.00  0.00    -0.302 N 
ATOM     13  C   UNL     1       2.487   1.134  -1.640  0.00  0.00    +0.238 C 
ATOM     14  O   UNL     1       1.645   1.903  -2.068  0.00  0.00    -0.271 OA
ATOM     15  H   UNL     1       2.795  -0.703  -0.868  0.00  0.00    +0.150 HD
BRANCH  13  16
ATOM     16  C   UNL     1       3.846   1.526  -1.594  0.00  0.00    +0.071 C 
ATOM     17  C   UNL     1       4.211   2.759  -2.027  0.00  0.00    +0.051 C 
BRANCH  17  18
ATOM     18  C   UNL     1       5.569   3.152  -1.981  0.00  0.00    +0.129 A 
ATOM     19  C   UNL     1       6.077   4.371  -2.382  0.00  0.00    +0.050 A 
ATOM     20  C   UNL     1       7.461   4.320  -2.159  0.00  0.00    +0.057 A 
ATOM     21  C   UNL     1       7.738   3.100  -1.642  0.00  0.00    +0.171 A 
ATOM     22  O   UNL     1       6.599   2.403  -1.533  0.00  0.00    -0.449 OA
ATOM     23 BR   UNL     1       9.456   2.481  -1.149  0.00  0.00    -0.008 Br
ENDBRANCH  17  18
ENDBRANCH  13  16
ENDBRANCH   1  12
BRANCH   1  25
ATOM     24  C   UNL     1      -0.019   1.526   0.010  0.00  0.00    +0.006 C 
ATOM     25  C   UNL     1       0.002  -0.004   0.002  0.00  0.00    +0.027 C 
ENDBRANCH   1  25
TORSDOF 5
