REMARK  Name = ZINC38753382
REMARK  8 active torsions:
REMARK  status: ('A' for Active; 'I' for Inactive)
REMARK    1  A    between atoms: C_1  and  C_2
REMARK    2  A    between atoms: N_6  and  C_7
REMARK    3  A    between atoms: C_10  and  C_13
REMARK    4  A    between atoms: C_13  and  N_14
REMARK    5  A    between atoms: C_15  and  C_17
REMARK    6  A    between atoms: N_22  and  S_24
REMARK    7  A    between atoms: S_24  and  C_27
REMARK    8  A    between atoms: C_27  and  C_28
REMARK                            x       y       z     vdW  Elec       q    Type
REMARK                         _______ _______ _______ _____ _____    ______ ____
ROOT
ATOM      1  N   UNL     1      -0.855   2.044   6.672  0.00  0.00    -0.311 N 
ATOM      2  C   UNL     1      -1.010   2.619   7.880  0.00  0.00    +0.218 C 
ATOM      3  O   UNL     1      -0.399   2.193   8.838  0.00  0.00    -0.275 OA
ATOM      4  H   UNL     1      -1.344   2.385   5.906  0.00  0.00    +0.149 HD
ENDROOT
BRANCH   2   5
ATOM      5  C   UNL     1      -1.943   3.792   8.043  0.00  0.00    +0.091 C 
ATOM      6  C   UNL     1      -3.362   3.374   7.649  0.00  0.00    +0.015 C 
ATOM      7  C   UNL     1      -4.303   4.573   7.782  0.00  0.00    +0.018 C 
ATOM      8  C   UNL     1      -4.325   5.041   9.241  0.00  0.00    +0.109 C 
ATOM      9  N   UNL     1      -2.945   5.306   9.672  0.00  0.00    -0.180 NA
ATOM     10  C   UNL     1      -1.937   4.251   9.504  0.00  0.00    +0.121 C 
BRANCH   9  11
ATOM     11  S   UNL     1      -2.535   6.767  10.335  0.00  0.00    +0.036 S 
ATOM     12  O   UNL     1      -1.149   6.914  10.060  0.00  0.00    -0.158 OA
ATOM     13  O   UNL     1      -3.480   7.685   9.803  0.00  0.00    -0.158 OA
BRANCH  11  14
ATOM     14  C   UNL     1      -2.800   6.561  12.118  0.00  0.00    +0.221 C 
BRANCH  14  15
ATOM     15  C   UNL     1      -2.454   7.844  12.829  0.00  0.00    -0.007 A 
ATOM     16  C   UNL     1      -1.163   8.061  13.274  0.00  0.00    +0.008 A 
ATOM     17  C   UNL     1      -0.845   9.237  13.927  0.00  0.00    +0.020 A 
ATOM     18  C   UNL     1      -1.818  10.199  14.133  0.00  0.00    +0.042 A 
ATOM     19  C   UNL     1      -3.110   9.983  13.687  0.00  0.00    +0.040 A 
ATOM     20  C   UNL     1      -3.426   8.807  13.030  0.00  0.00    +0.047 A 
ATOM     21 CL   UNL     1      -5.045   8.538  12.464  0.00  0.00    -0.083 Cl
ATOM     22 CL   UNL     1      -1.419  11.676  14.953  0.00  0.00    -0.083 Cl
ENDBRANCH  14  15
ENDBRANCH  11  14
ENDBRANCH   9  11
ENDBRANCH   2   5
BRANCH   1  23
ATOM     23  C   UNL     1       0.052   0.904   6.514  0.00  0.00    +0.139 C 
BRANCH  23  27
ATOM     24  C   UNL     1       0.030  -0.381   2.438  0.00  0.00    +0.048 A 
ATOM     25  C   UNL     1       0.938   0.581   2.859  0.00  0.00    +0.026 A 
ATOM     26  C   UNL     1       0.942   0.995   4.177  0.00  0.00    +0.007 A 
ATOM     27  C   UNL     1       0.044   0.451   5.076  0.00  0.00    -0.030 A 
ATOM     28  C   UNL     1      -0.861  -0.507   4.660  0.00  0.00    +0.007 A 
ATOM     29  C   UNL     1      -0.874  -0.921   3.342  0.00  0.00    +0.026 A 
BRANCH  24  35
ATOM     30  C   UNL     1      -0.018   1.503   0.010  0.00  0.00    +0.084 C 
ATOM     31  C   UNL     1       0.002  -0.004   0.002  0.00  0.00    +0.088 A 
ATOM     32  N   UNL     1       0.008  -0.760  -1.062  0.00  0.00    -0.350 N 
ATOM     33  C   UNL     1       0.027  -2.049  -0.691  0.00  0.00    +0.102 A 
ATOM     34  C   UNL     1       0.033  -2.099   0.655  0.00  0.00    +0.110 A 
ATOM     35  N   UNL     1       0.023  -0.803   1.100  0.00  0.00    -0.305 N 
ATOM     36  H   UNL     1      -0.000  -0.440  -1.978  0.00  0.00    +0.166 HD
ENDBRANCH  24  35
ENDBRANCH  23  27
ENDBRANCH   1  23
TORSDOF 7
