REMARK  Name = ZINC12015890
REMARK  5 active torsions:
REMARK  status: ('A' for Active; 'I' for Inactive)
REMARK    1  A    between atoms: C_1  and  C_2
REMARK    2  A    between atoms: C_3  and  C_10
REMARK    3  A    between atoms: N_5  and  C_7
REMARK    4  A    between atoms: C_7  and  C_8
REMARK    5  A    between atoms: C_7  and  C_9
REMARK                            x       y       z     vdW  Elec       q    Type
REMARK                         _______ _______ _______ _____ _____    ______ ____
ROOT
ATOM      1  C   UNL     1      -1.653   3.206  -0.087  0.00  0.00    +0.254 C 
ATOM      2  O   UNL     1      -2.820   3.545  -0.137  0.00  0.00    -0.270 OA
ATOM      3  N   UNL     1      -1.325   1.903  -0.191  0.00  0.00    -0.267 N 
ATOM      4  C   UNL     1       0.045   1.383  -0.241  0.00  0.00    +0.119 C 
ATOM      5  C   UNL     1      -0.107  -0.142  -0.358  0.00  0.00    +0.056 C 
ATOM      6  C   UNL     1      -1.601  -0.377  -0.359  0.00  0.00    -0.024 A 
ATOM      7  C   UNL     1      -2.240   0.849  -0.256  0.00  0.00    +0.040 A 
ATOM      8  C   UNL     1      -3.635   0.886  -0.237  0.00  0.00    +0.024 A 
ATOM      9  C   UNL     1      -4.363  -0.282  -0.321  0.00  0.00    +0.002 A 
ATOM     10  C   UNL     1      -3.716  -1.500  -0.423  0.00  0.00    +0.000 A 
ATOM     11  C   UNL     1      -2.334  -1.545  -0.442  0.00  0.00    +0.005 A 
ENDROOT
BRANCH   1  14
ATOM     12  C   UNL     1      -2.120   6.298   0.454  0.00  0.00    +0.068 C 
ATOM     13  C   UNL     1      -0.791   5.599   0.328  0.00  0.00    +0.072 A 
ATOM     14  C   UNL     1      -0.598   4.221   0.087  0.00  0.00    +0.077 A 
ATOM     15  C   UNL     1       0.765   4.000   0.051  0.00  0.00    +0.122 A 
ATOM     16  N   UNL     1       1.368   5.183   0.249  0.00  0.00    -0.268 N 
ATOM     17  N   UNL     1       0.382   6.161   0.422  0.00  0.00    -0.175 NA
BRANCH  16  18
ATOM     18  C   UNL     1       2.815   5.411   0.285  0.00  0.00    +0.101 C 
ATOM     19  C   UNL     1       3.342   5.116   1.691  0.00  0.00    +0.032 C 
ATOM     20  C   UNL     1       3.502   4.486  -0.722  0.00  0.00    +0.032 C 
ENDBRANCH  16  18
ENDBRANCH   1  14
TORSDOF 2
