REMARK  Name = ZINC16923187
REMARK  7 active torsions:
REMARK  status: ('A' for Active; 'I' for Inactive)
REMARK    1  A    between atoms: C_1  and  C_2
REMARK    2  A    between atoms: C_5  and  S_8
REMARK    3  A    between atoms: S_8  and  N_11
REMARK    4  A    between atoms: N_11  and  C_12
REMARK    5  A    between atoms: C_17  and  N_18
REMARK    6  A    between atoms: C_19  and  C_20
REMARK    7  A    between atoms: C_29  and  O_30
REMARK                            x       y       z     vdW  Elec       q    Type
REMARK                         _______ _______ _______ _____ _____    ______ ____
ROOT
ATOM      1  C   UNL     1      -0.058   9.106  -0.518  0.00  0.00    +0.073 A 
ATOM      2  C   UNL     1       1.188   9.476  -1.001  0.00  0.00    +0.026 A 
ATOM      3  C   UNL     1       2.195   8.537  -1.113  0.00  0.00    +0.002 A 
ATOM      4  C   UNL     1       1.971   7.222  -0.741  0.00  0.00    +0.002 A 
ATOM      5  C   UNL     1       0.739   6.837  -0.254  0.00  0.00    +0.029 A 
ATOM      6  C   UNL     1      -0.287   7.775  -0.135  0.00  0.00    +0.086 A 
ENDROOT
BRANCH   1   7
ATOM      7  N   UNL     1      -1.078  10.052  -0.408  0.00  0.00    -0.214 N 
ATOM      8  H   UNL     1      -1.732   9.979   0.303  0.00  0.00    +0.174 HD
BRANCH   7   9
ATOM      9  S   UNL     1      -1.170  11.299  -1.494  0.00  0.00    +0.072 S 
ATOM     10  O   UNL     1      -2.377  11.993  -1.214  0.00  0.00    -0.150 OA
ATOM     11  O   UNL     1       0.098  11.940  -1.485  0.00  0.00    -0.150 OA
BRANCH   9  16
ATOM     12  C   UNL     1      -1.822   8.851  -6.971  0.00  0.00    +0.044 C 
ATOM     13  C   UNL     1      -1.659   9.463  -5.603  0.00  0.00    -0.050 A 
ATOM     14  C   UNL     1      -2.774   9.768  -4.845  0.00  0.00    +0.005 A 
ATOM     15  C   UNL     1      -2.625  10.329  -3.591  0.00  0.00    +0.029 A 
ATOM     16  C   UNL     1      -1.360  10.584  -3.094  0.00  0.00    +0.109 A 
ATOM     17  C   UNL     1      -0.245  10.283  -3.853  0.00  0.00    +0.029 A 
ATOM     18  C   UNL     1      -0.394   9.718  -5.106  0.00  0.00    +0.005 A 
ENDBRANCH   9  16
ENDBRANCH   7   9
ENDBRANCH   1   7
BRANCH   6  19
ATOM     19  N   UNL     1      -1.510   7.399   0.347  0.00  0.00    -0.253 NA
ATOM     20  C   UNL     1      -1.593   6.717   1.458  0.00  0.00    +0.123 C 
BRANCH  20  21
ATOM     21  C   UNL     1      -0.394   6.490   2.269  0.00  0.00    +0.042 A 
ATOM     22  C   UNL     1       0.405   7.616   2.753  0.00  0.00    -0.006 A 
ATOM     23  C   UNL     1       0.056   8.939   2.460  0.00  0.00    +0.009 A 
ATOM     24  C   UNL     1       0.825   9.960   2.936  0.00  0.00    +0.001 A 
ATOM     25  C   UNL     1       1.960   9.704   3.700  0.00  0.00    +0.001 A 
ATOM     26  C   UNL     1       2.328   8.428   4.004  0.00  0.00    +0.008 A 
ATOM     27  C   UNL     1       1.556   7.352   3.535  0.00  0.00    -0.017 A 
ATOM     28  C   UNL     1       1.905   6.021   3.829  0.00  0.00    +0.012 A 
ATOM     29  C   UNL     1       1.152   4.987   3.373  0.00  0.00    +0.046 A 
ATOM     30  C   UNL     1       0.010   5.194   2.599  0.00  0.00    +0.126 A 
BRANCH  30  31
ATOM     31  O   UNL     1      -0.712   4.131   2.164  0.00  0.00    -0.506 OA
ATOM     32  H   UNL     1      -1.361   3.809   2.804  0.00  0.00    +0.292 HD
ENDBRANCH  30  31
ENDBRANCH  20  21
ENDBRANCH   6  19
TORSDOF 6
