REMARK  Name = ZINC37006621
REMARK  10 active torsions:
REMARK  status: ('A' for Active; 'I' for Inactive)
REMARK    1  A    between atoms: C_1  and  C_2
REMARK    2  A    between atoms: C_5  and  C_39
REMARK    3  A    between atoms: N_8  and  C_10
REMARK    4  A    between atoms: C_10  and  C_11
REMARK    5  A    between atoms: C_11  and  C_12
REMARK    6  A    between atoms: C_12  and  N_13
REMARK    7  A    between atoms: C_14  and  C_16
REMARK    8  A    between atoms: C_16  and  C_38
REMARK    9  A    between atoms: N_29  and  C_30
REMARK   10  A    between atoms: C_30  and  C_31
REMARK                            x       y       z     vdW  Elec       q    Type
REMARK                         _______ _______ _______ _____ _____    ______ ____
ROOT
ATOM      1  C   UNL     1       2.262   1.166   7.872  0.00  0.00    +0.129 C 
ATOM      2  C   UNL     1       3.073   0.625   9.048  0.00  0.00    +0.157 C 
ATOM      3  N   UNL     1       2.634  -0.743   9.350  0.00  0.00    -0.334 N 
ATOM      4  C   UNL     1       3.321  -1.786   9.874  0.00  0.00    +0.050 A 
ATOM      5  C   UNL     1       4.648  -1.925  10.281  0.00  0.00    +0.026 A 
ATOM      6  C   UNL     1       5.027  -3.156  10.785  0.00  0.00    +0.002 A 
ATOM      7  C   UNL     1       4.141  -4.217  10.890  0.00  0.00    +0.001 A 
ATOM      8  C   UNL     1       2.830  -4.114  10.499  0.00  0.00    +0.010 A 
ATOM      9  C   UNL     1       2.416  -2.878   9.982  0.00  0.00    +0.001 A 
ATOM     10  C   UNL     1       1.172  -2.439   9.494  0.00  0.00    +0.041 A 
ATOM     11  C   UNL     1       1.321  -1.153   9.111  0.00  0.00    +0.106 A 
ATOM     12  C   UNL     1       0.342  -0.229   8.509  0.00  0.00    +0.264 C 
ATOM     13  O   UNL     1      -0.843  -0.500   8.452  0.00  0.00    -0.268 OA
ATOM     14  N   UNL     1       0.830   0.936   8.025  0.00  0.00    -0.276 N 
ATOM     15  C   UNL     1       2.512   2.671   7.753  0.00  0.00    +0.043 C 
ENDROOT
BRANCH   1  17
ATOM     16  N   UNL     1       2.160  -0.659   6.205  0.00  0.00    -0.314 N 
ATOM     17  C   UNL     1       2.731   0.494   6.607  0.00  0.00    +0.238 C 
ATOM     18  O   UNL     1       3.622   0.991   5.950  0.00  0.00    -0.273 OA
ATOM     19  H   UNL     1       1.406  -1.023   6.694  0.00  0.00    +0.149 HD
BRANCH  16  20
ATOM     20  C   UNL     1       2.680  -1.362   5.030  0.00  0.00    +0.102 C 
BRANCH  20  21
ATOM     21  C   UNL     1       1.786  -2.564   4.719  0.00  0.00    +0.000 C 
BRANCH  21  22
ATOM     22  C   UNL     1       2.255  -3.227   3.422  0.00  0.00    -0.077 C 
BRANCH  22  28
ATOM     23  C   UNL     1      -1.038  -5.847   3.729  0.00  0.00    +0.005 C 
ATOM     24  C   UNL     1       0.367  -6.455   3.737  0.00  0.00    -0.031 C 
ATOM     25  C   UNL     1       0.678  -7.039   2.356  0.00  0.00    +0.003 C 
ATOM     26  C   UNL     1       0.680  -5.909   1.323  0.00  0.00    -0.031 C 
ATOM     27  C   UNL     1       1.693  -4.842   1.743  0.00  0.00    -0.076 C 
ATOM     28  N   UNL     1       1.325  -4.304   3.058  0.00  0.00    +0.380 N 
ATOM     29  C   UNL     1       1.391  -5.368   4.069  0.00  0.00    -0.076 C 
ATOM     30  C   UNL     1       1.066  -6.470  -0.047  0.00  0.00    +0.005 C 
ATOM     31  H   UNL     1       0.387  -3.937   3.019  0.00  0.00    -0.082 HD
ENDBRANCH  22  28
ENDBRANCH  21  22
ENDBRANCH  20  21
ENDBRANCH  16  20
ENDBRANCH   1  17
BRANCH  14  32
ATOM     32  C   UNL     1      -0.106   1.997   7.644  0.00  0.00    +0.144 C 
BRANCH  32  33
ATOM     33  C   UNL     1      -0.577   1.768   6.231  0.00  0.00    -0.030 A 
ATOM     34  C   UNL     1       0.178   2.228   5.168  0.00  0.00    +0.008 A 
ATOM     35  C   UNL     1      -0.253   2.018   3.872  0.00  0.00    +0.038 A 
ATOM     36  C   UNL     1      -1.440   1.346   3.638  0.00  0.00    +0.123 A 
ATOM     37  C   UNL     1      -2.195   0.885   4.703  0.00  0.00    +0.038 A 
ATOM     38  C   UNL     1      -1.760   1.092   5.998  0.00  0.00    +0.008 A 
ATOM     39  F   UNL     1      -1.863   1.140   2.371  0.00  0.00    -0.205 F 
ENDBRANCH  32  33
ENDBRANCH  14  32
TORSDOF 7
