REMARK  Name = ZINC16156563
REMARK  6 active torsions:
REMARK  status: ('A' for Active; 'I' for Inactive)
REMARK    1  A    between atoms: N_9  and  C_12
REMARK    2  A    between atoms: C_12  and  O_13
REMARK    3  A    between atoms: O_13  and  C_14
REMARK    4  A    between atoms: C_14  and  C_16
REMARK    5  A    between atoms: C_16  and  C_17
REMARK    6  A    between atoms: C_17  and  N_18
REMARK                            x       y       z     vdW  Elec       q    Type
REMARK                         _______ _______ _______ _____ _____    ______ ____
ROOT
ATOM      1  C   UNL     1       2.147  -6.043  -2.103  0.00  0.00    +0.142 C 
ENDROOT
BRANCH   1   2
ATOM      2  C   UNL     1       3.091  -7.187  -2.368  0.00  0.00    +0.310 C 
ATOM      3  O   UNL     1       3.750  -7.648  -1.467  0.00  0.00    -0.251 OA
BRANCH   2   4
ATOM      4  O   UNL     1       3.200  -7.693  -3.607  0.00  0.00    -0.445 OA
BRANCH   4   5
ATOM      5  C   UNL     1       4.129  -8.794  -3.789  0.00  0.00    +0.352 C 
BRANCH   5  14
ATOM      6  C   UNL     1       1.454 -14.130  -2.607  0.00  0.00    +0.001 A 
ATOM      7  C   UNL     1       1.636 -13.750  -1.291  0.00  0.00    +0.001 A 
ATOM      8  C   UNL     1       2.239 -12.540  -0.985  0.00  0.00    +0.014 A 
ATOM      9  C   UNL     1       2.662 -11.706  -2.007  0.00  0.00    +0.049 A 
ATOM     10  C   UNL     1       2.477 -12.093  -3.350  0.00  0.00    +0.049 A 
ATOM     11  C   UNL     1       1.873 -13.305  -3.640  0.00  0.00    +0.014 A 
ATOM     12  C   UNL     1       3.031 -10.993  -4.168  0.00  0.00    +0.256 C 
ATOM     13  O   UNL     1       3.057 -10.956  -5.381  0.00  0.00    -0.269 OA
ATOM     14  N   UNL     1       3.502 -10.041  -3.343  0.00  0.00    -0.199 N 
ATOM     15  C   UNL     1       3.328 -10.386  -2.055  0.00  0.00    +0.256 C 
ATOM     16  O   UNL     1       3.659  -9.724  -1.092  0.00  0.00    -0.269 OA
ENDBRANCH   5  14
ENDBRANCH   4   5
ENDBRANCH   2   4
ENDBRANCH   1   2
BRANCH   1  17
ATOM     17  C   UNL     1       2.213  -5.659  -0.623  0.00  0.00    +0.137 C 
BRANCH  17  18
ATOM     18  N   UNL     1       1.295  -4.547  -0.365  0.00  0.00    -0.298 N 
ATOM     19  C   UNL     1       0.019  -4.832  -0.011  0.00  0.00    +0.203 A 
ATOM     20  N   UNL     1      -0.879  -3.905   0.240  0.00  0.00    -0.230 NA
ATOM     21  C   UNL     1      -0.494  -2.637   0.136  0.00  0.00    +0.116 A 
ATOM     22  C   UNL     1       0.812  -2.239  -0.226  0.00  0.00    +0.076 A 
ATOM     23  C   UNL     1       1.762  -3.282  -0.491  0.00  0.00    +0.262 A 
ATOM     24  O   UNL     1       2.914  -3.045  -0.810  0.00  0.00    -0.267 OA
ATOM     25  C   UNL     1       1.051  -0.808  -0.290  0.00  0.00    -0.023 A 
ATOM     26  C   UNL     1       0.002  -0.004   0.002  0.00  0.00    -0.004 A 
ATOM     27  S   UNL     1      -1.339  -1.106   0.372  0.00  0.00    -0.073 S 
ATOM     28  C   UNL     1      -0.018   1.493   0.010  0.00  0.00    +0.043 C 
ATOM     29  C   UNL     1       1.431   1.999  -0.001  0.00  0.00    +0.005 C 
ATOM     30  C   UNL     1       2.205   1.245  -1.085  0.00  0.00    +0.005 C 
ATOM     31  C   UNL     1       2.405  -0.211  -0.663  0.00  0.00    +0.037 C 
ENDBRANCH  17  18
ENDBRANCH   1  17
TORSDOF 6
