REMARK  Name = ZINC09562470
REMARK  7 active torsions:
REMARK  status: ('A' for Active; 'I' for Inactive)
REMARK    1  A    between atoms: C_1  and  C_2
REMARK    2  A    between atoms: C_3  and  C_15
REMARK    3  A    between atoms: C_4  and  C_7
REMARK    4  A    between atoms: C_15  and  O_17
REMARK    5  A    between atoms: O_17  and  C_18
REMARK    6  A    between atoms: C_18  and  C_19
REMARK    7  A    between atoms: N_21  and  C_22
REMARK                            x       y       z     vdW  Elec       q    Type
REMARK                         _______ _______ _______ _____ _____    ______ ____
ROOT
ATOM      1  C   UNL     1      -1.501  -1.887   0.002  0.00  0.00    +0.345 C 
ATOM      2  O   UNL     1      -0.540  -2.631  -0.005  0.00  0.00    -0.245 OA
ENDROOT
BRANCH   1   5
ATOM      3  C   UNL     1      -3.186  -2.850   2.537  0.00  0.00    +0.090 C 
ATOM      4  C   UNL     1      -3.606  -2.865   1.089  0.00  0.00    +0.149 A 
ATOM      5  C   UNL     1      -2.862  -2.445   0.014  0.00  0.00    +0.128 A 
ATOM      6  C   UNL     1      -3.771  -2.686  -1.127  0.00  0.00    +0.132 A 
ATOM      7  N   UNL     1      -4.856  -3.192  -0.598  0.00  0.00    -0.077 NA
ATOM      8  O   UNL     1      -4.774  -3.288   0.602  0.00  0.00    -0.358 OA
BRANCH   6   9
ATOM      9  C   UNL     1      -3.508  -2.415  -2.561  0.00  0.00    +0.058 A 
ATOM     10  C   UNL     1      -2.321  -2.852  -3.151  0.00  0.00    +0.134 A 
ATOM     11  C   UNL     1      -2.083  -2.596  -4.489  0.00  0.00    +0.039 A 
ATOM     12  C   UNL     1      -3.018  -1.909  -5.241  0.00  0.00    +0.004 A 
ATOM     13  C   UNL     1      -4.196  -1.474  -4.662  0.00  0.00    +0.021 A 
ATOM     14  C   UNL     1      -4.449  -1.727  -3.327  0.00  0.00    +0.053 A 
ATOM     15 CL   UNL     1      -5.931  -1.186  -2.604  0.00  0.00    -0.083 Cl
ATOM     16  F   UNL     1      -1.407  -3.523  -2.417  0.00  0.00    -0.205 F 
ENDBRANCH   6   9
ENDBRANCH   1   5
BRANCH   1  17
ATOM     17  O   UNL     1      -1.320  -0.552  -0.002  0.00  0.00    -0.452 OA
BRANCH  17  18
ATOM     18  C   UNL     1       0.051  -0.073  -0.015  0.00  0.00    +0.328 C 
BRANCH  18  19
ATOM     19  C   UNL     1       0.056   1.434  -0.018  0.00  0.00    +0.251 C 
ATOM     20  O   UNL     1      -0.992   2.044  -0.015  0.00  0.00    -0.272 OA
ATOM     21  N   UNL     1       1.226   2.104  -0.029  0.00  0.00    -0.307 N 
ATOM     22  H   UNL     1       2.064   1.616  -0.035  0.00  0.00    +0.149 HD
BRANCH  21  23
ATOM     23  C   UNL     1       1.231   3.569  -0.031  0.00  0.00    +0.035 C 
ATOM     24  C   UNL     1       0.501   4.079  -1.276  0.00  0.00    +0.029 C 
ATOM     25  C   UNL     1       0.507   5.609  -1.279  0.00  0.00    -0.008 C 
ATOM     26  C   UNL     1       1.951   6.114  -1.292  0.00  0.00    +0.007 C 
ATOM     27  C   UNL     1       2.681   5.604  -0.047  0.00  0.00    -0.008 C 
ATOM     28  C   UNL     1       2.675   4.074  -0.044  0.00  0.00    +0.029 C 
ATOM     29  C   UNL     1       1.972   6.119   1.207  0.00  0.00    +0.007 C 
ATOM     30  C   UNL     1       0.527   5.614   1.220  0.00  0.00    -0.008 C 
ATOM     31  C   UNL     1      -0.202   6.124  -0.024  0.00  0.00    +0.007 C 
ATOM     32  C   UNL     1       0.522   4.084   1.223  0.00  0.00    +0.029 C 
ENDBRANCH  21  23
ENDBRANCH  18  19
ENDBRANCH  17  18
ENDBRANCH   1  17
TORSDOF 6
