REMARK  Name = ZINC50224278
REMARK  6 active torsions:
REMARK  status: ('A' for Active; 'I' for Inactive)
REMARK    1  A    between atoms: C_1  and  C_2
REMARK    2  A    between atoms: C_5  and  N_9
REMARK    3  A    between atoms: C_10  and  C_12
REMARK    4  A    between atoms: C_12  and  N_13
REMARK    5  A    between atoms: C_15  and  C_18
REMARK    6  A    between atoms: C_18  and  N_19
REMARK                            x       y       z     vdW  Elec       q    Type
REMARK                         _______ _______ _______ _____ _____    ______ ____
ROOT
ATOM      1  N   UNL     1       0.059  -4.172  -0.021  0.00  0.00    -0.282 N 
ATOM      2  C   UNL     1       0.473  -4.846   1.070  0.00  0.00    +0.239 C 
ATOM      3  O   UNL     1       0.743  -4.245   2.088  0.00  0.00    -0.273 OA
ATOM      4  H   UNL     1      -0.225  -4.656  -0.811  0.00  0.00    +0.155 HD
ENDROOT
BRANCH   1   9
ATOM      5  C   UNL     1      -0.017   1.503   0.009  0.00  0.00    +0.044 C 
ATOM      6  C   UNL     1       0.003  -0.004   0.001  0.00  0.00    -0.048 A 
ATOM      7  C   UNL     1       1.144  -0.676  -0.398  0.00  0.00    +0.020 A 
ATOM      8  C   UNL     1       1.166  -2.058  -0.407  0.00  0.00    +0.040 A 
ATOM      9  C   UNL     1       0.041  -2.772  -0.013  0.00  0.00    +0.062 A 
ATOM     10  C   UNL     1      -1.103  -2.093   0.387  0.00  0.00    +0.040 A 
ATOM     11  C   UNL     1      -1.117  -0.711   0.398  0.00  0.00    +0.020 A 
ATOM     12 BR   UNL     1      -2.638  -3.059   0.924  0.00  0.00    -0.048 Br
ATOM     13 BR   UNL     1       2.726  -2.977  -0.954  0.00  0.00    -0.048 Br
ENDBRANCH   1   9
BRANCH   2  14
ATOM     14  C   UNL     1       0.601  -6.347   1.025  0.00  0.00    +0.241 C 
BRANCH  14  15
ATOM     15  N   UNL     1       1.065  -6.837   2.325  0.00  0.00    -0.243 N 
ATOM     16  C   UNL     1       0.453  -7.777   3.082  0.00  0.00    +0.132 A 
ATOM     17  C   UNL     1       1.215  -7.923   4.191  0.00  0.00    +0.066 A 
ATOM     18  N   UNL     1       2.242  -7.076   4.060  0.00  0.00    -0.136 NA
ATOM     19  N   UNL     1       2.127  -6.452   2.941  0.00  0.00    -0.065 NA
BRANCH  17  20
ATOM     20  C   UNL     1       0.957  -8.855   5.347  0.00  0.00    -0.027 C 
BRANCH  20  21
ATOM     21  N   UNL     1       1.704 -10.104   5.145  0.00  0.00    +0.382 N 
ATOM     22  H   UNL     1       1.531 -10.728   5.918  0.00  0.00    -0.090 HD
ATOM     23  H   UNL     1       1.403 -10.540   4.286  0.00  0.00    -0.090 HD
ATOM     24  H   UNL     1       2.691  -9.900   5.091  0.00  0.00    -0.090 HD
ENDBRANCH  20  21
ENDBRANCH  17  20
ENDBRANCH  14  15
ENDBRANCH   2  14
TORSDOF 5
