REMARK  Name = ZINC12705861
REMARK  7 active torsions:
REMARK  status: ('A' for Active; 'I' for Inactive)
REMARK    1  A    between atoms: C_1  and  C_2
REMARK    2  A    between atoms: C_5  and  C_7
REMARK    3  A    between atoms: C_9  and  C_13
REMARK    4  A    between atoms: C_10  and  C_12
REMARK    5  A    between atoms: C_13  and  N_50
REMARK    6  A    between atoms: C_16  and  S_19
REMARK    7  A    between atoms: S_19  and  C_20
REMARK                            x       y       z     vdW  Elec       q    Type
REMARK                         _______ _______ _______ _____ _____    ______ ____
ROOT
ATOM      1  C   UNL     1       2.090   6.713  -2.542  0.00  0.00    -0.077 C 
ATOM      2  C   UNL     1       1.815   7.332  -3.914  0.00  0.00    -0.004 C 
ATOM      3  C   UNL     1       1.135   8.691  -3.729  0.00  0.00    +0.048 C 
ATOM      4  C   UNL     1      -0.155   8.502  -2.926  0.00  0.00    -0.004 C 
ATOM      5  C   UNL     1       0.177   7.850  -1.582  0.00  0.00    -0.077 C 
ATOM      6  N   UNL     1       0.806   6.535  -1.830  0.00  0.00    +0.384 N 
ATOM      7  H   UNL     1       0.178   5.970  -2.412  0.00  0.00    -0.081 HD
ENDROOT
BRANCH   6   8
ATOM      8  C   UNL     1       1.033   5.835  -0.548  0.00  0.00    -0.019 C 
BRANCH   8  11
ATOM      9  C   UNL     1       1.398   2.303  -1.239  0.00  0.00    +0.264 A 
ATOM     10  N   UNL     1       0.658   3.365  -1.006  0.00  0.00    -0.213 NA
ATOM     11  C   UNL     1       1.468   4.422  -0.838  0.00  0.00    +0.066 A 
ATOM     12  C   UNL     1       2.736   3.997  -0.981  0.00  0.00    +0.124 A 
ATOM     13  O   UNL     1       2.691   2.673  -1.231  0.00  0.00    -0.438 OA
ATOM     14  C   UNL     1       3.978   4.845  -0.880  0.00  0.00    +0.088 C 
BRANCH   9  19
ATOM     15  C   UNL     1      -1.754  -1.551  -1.823  0.00  0.00    +0.086 C 
ATOM     16  C   UNL     1      -0.480  -0.751  -1.731  0.00  0.00    +0.103 A 
ATOM     17  C   UNL     1       0.768  -1.240  -1.884  0.00  0.00    +0.045 A 
ATOM     18  C   UNL     1       1.657  -0.162  -1.721  0.00  0.00    +0.055 A 
ATOM     19  C   UNL     1       0.895   0.941  -1.474  0.00  0.00    +0.190 A 
ATOM     20  O   UNL     1      -0.399   0.566  -1.483  0.00  0.00    -0.455 OA
ENDBRANCH   9  19
ENDBRANCH   8  11
ENDBRANCH   6   8
BRANCH   3  21
ATOM     21  S   UNL     1       0.741   9.400  -5.352  0.00  0.00    -0.122 S 
BRANCH  21  22
ATOM     22  C   UNL     1       2.314   9.814  -6.029  0.00  0.00    +0.008 A 
ATOM     23  C   UNL     1       3.460   9.696  -5.252  0.00  0.00    +0.017 A 
ATOM     24  C   UNL     1       4.692  10.015  -5.787  0.00  0.00    +0.039 A 
ATOM     25  C   UNL     1       4.785  10.464  -7.093  0.00  0.00    +0.123 A 
ATOM     26  C   UNL     1       3.645  10.588  -7.869  0.00  0.00    +0.039 A 
ATOM     27  C   UNL     1       2.411  10.264  -7.340  0.00  0.00    +0.017 A 
ATOM     28  F   UNL     1       5.991  10.782  -7.613  0.00  0.00    -0.205 F 
ENDBRANCH  21  22
ENDBRANCH   3  21
TORSDOF 5
