REMARK  Name = ZINC08686053
REMARK  5 active torsions:
REMARK  status: ('A' for Active; 'I' for Inactive)
REMARK    1  A    between atoms: C_1  and  C_2
REMARK    2  A    between atoms: C_3  and  C_31
REMARK    3  A    between atoms: C_8  and  C_25
REMARK    4  A    between atoms: C_16  and  C_17
REMARK    5  A    between atoms: N_33  and  C_34
REMARK                            x       y       z     vdW  Elec       q    Type
REMARK                         _______ _______ _______ _____ _____    ______ ____
ROOT
ATOM      1  C   UNL     1      -1.436   0.787  -0.227  0.00  0.00    +0.067 C 
ATOM      2  C   UNL     1      -0.903  -0.620  -0.139  0.00  0.00    +0.060 A 
ATOM      3  C   UNL     1      -0.665  -1.384  -1.273  0.00  0.00    +0.098 A 
ATOM      4  S   UNL     1      -0.066  -2.894  -0.532  0.00  0.00    -0.046 S 
ATOM      5  C   UNL     1      -0.173  -2.422   1.080  0.00  0.00    +0.182 A 
ATOM      6  N   UNL     1      -0.635  -1.185   1.010  0.00  0.00    -0.228 NA
ATOM      7  N   UNL     1       0.148  -3.150   2.205  0.00  0.00    -0.193 N 
ATOM      8  C   UNL     1       0.676  -4.533   2.230  0.00  0.00    +0.139 C 
ATOM      9  C   UNL     1       1.353  -4.582   3.610  0.00  0.00    +0.066 C 
ATOM     10  C   UNL     1       1.076  -5.903   4.330  0.00  0.00    +0.012 C 
ATOM     11  C   UNL     1       1.625  -5.797   5.752  0.00  0.00    +0.005 C 
ATOM     12  C   UNL     1       0.941  -4.729   6.581  0.00  0.00    +0.037 C 
ATOM     13  C   UNL     1       0.496  -3.532   5.796  0.00  0.00    -0.024 C 
ATOM     14  C   UNL     1      -0.003  -2.459   6.444  0.00  0.00    +0.013 C 
ATOM     15  C   UNL     1       0.602  -3.503   4.380  0.00  0.00    +0.068 C 
ATOM     16  N   UNL     1       0.041  -2.713   3.530  0.00  0.00    -0.181 NA
ENDROOT
BRANCH  14  17
ATOM     17  C   UNL     1      -0.265  -2.529   7.891  0.00  0.00    -0.025 A 
ATOM     18  C   UNL     1       0.100  -1.467   8.724  0.00  0.00    +0.008 A 
ATOM     19  C   UNL     1      -0.149  -1.541  10.078  0.00  0.00    +0.001 A 
ATOM     20  C   UNL     1      -0.759  -2.662  10.613  0.00  0.00    +0.000 A 
ATOM     21  C   UNL     1      -1.124  -3.717   9.795  0.00  0.00    +0.001 A 
ATOM     22  C   UNL     1      -0.887  -3.656   8.438  0.00  0.00    +0.008 A 
ENDBRANCH  14  17
BRANCH   8  23
ATOM     23  C   UNL     1       1.681  -4.748   1.127  0.00  0.00    -0.024 A 
ATOM     24  C   UNL     1       2.575  -3.745   0.802  0.00  0.00    +0.005 A 
ATOM     25  C   UNL     1       3.497  -3.942  -0.209  0.00  0.00    +0.000 A 
ATOM     26  C   UNL     1       3.524  -5.141  -0.896  0.00  0.00    +0.000 A 
ATOM     27  C   UNL     1       2.630  -6.144  -0.571  0.00  0.00    +0.000 A 
ATOM     28  C   UNL     1       1.711  -5.949   0.444  0.00  0.00    +0.005 A 
ENDBRANCH   8  23
BRANCH   3  29
ATOM     29  C   UNL     1      -0.854  -1.047  -2.683  0.00  0.00    +0.252 C 
ATOM     30  O   UNL     1      -1.280   0.050  -2.995  0.00  0.00    -0.270 OA
ATOM     31  N   UNL     1      -0.555  -1.950  -3.638  0.00  0.00    -0.314 N 
ATOM     32  C   UNL     1      -0.744  -1.612  -5.051  0.00  0.00    +0.128 C 
ATOM     33  H   UNL     1      -0.215  -2.824  -3.390  0.00  0.00    +0.149 HD
ENDBRANCH   3  29
TORSDOF 3
