REMARK  Name = ZINC44938193
REMARK  7 active torsions:
REMARK  status: ('A' for Active; 'I' for Inactive)
REMARK    1  A    between atoms: C_1  and  C_2
REMARK    2  A    between atoms: C_5  and  C_8
REMARK    3  A    between atoms: C_8  and  C_10
REMARK    4  A    between atoms: C_8  and  N_16
REMARK    5  A    between atoms: C_17  and  C_19
REMARK    6  A    between atoms: N_24  and  C_26
REMARK    7  A    between atoms: C_26  and  C_27
REMARK                            x       y       z     vdW  Elec       q    Type
REMARK                         _______ _______ _______ _____ _____    ______ ____
ROOT
ATOM      1  N   UNL     1      -0.816  -4.781   1.039  0.00  0.00    -0.304 N 
ATOM      2  C   UNL     1      -1.361  -6.009   0.935  0.00  0.00    +0.215 C 
ATOM      3  O   UNL     1      -1.125  -6.696  -0.037  0.00  0.00    -0.276 OA
ATOM      4  H   UNL     1      -1.004  -4.231   1.816  0.00  0.00    +0.150 HD
ENDROOT
BRANCH   2   5
ATOM      5  C   UNL     1      -2.261  -6.529   2.025  0.00  0.00    +0.058 C 
ATOM      6  C   UNL     1      -1.488  -6.581   3.346  0.00  0.00    +0.009 C 
ATOM      7  C   UNL     1      -2.387  -7.183   4.429  0.00  0.00    -0.018 C 
ATOM      8  C   UNL     1      -2.860  -8.567   3.980  0.00  0.00    -0.078 C 
ATOM      9  N   UNL     1      -3.615  -8.448   2.727  0.00  0.00    +0.383 N 
ATOM     10  C   UNL     1      -2.740  -7.937   1.665  0.00  0.00    -0.066 C 
ATOM     11  H   UNL     1      -4.386  -7.811   2.860  0.00  0.00    -0.081 HD
BRANCH   9  12
ATOM     12  C   UNL     1      -4.133  -9.767   2.341  0.00  0.00    -0.042 C 
BRANCH  12  13
ATOM     13  C   UNL     1      -5.133 -10.234   3.367  0.00  0.00    -0.056 A 
ATOM     14  C   UNL     1      -4.763 -11.123   4.329  0.00  0.00    +0.002 A 
ATOM     15  C   UNL     1      -5.674 -11.566   5.286  0.00  0.00    +0.001 A 
ATOM     16  C   UNL     1      -6.961 -11.122   5.286  0.00  0.00    +0.008 A 
ATOM     17  C   UNL     1      -7.380 -10.204   4.308  0.00  0.00    -0.018 A 
ATOM     18  C   UNL     1      -6.452  -9.748   3.339  0.00  0.00    -0.017 A 
ATOM     19  C   UNL     1      -6.869  -8.825   2.365  0.00  0.00    +0.009 A 
ATOM     20  C   UNL     1      -8.154  -8.378   2.369  0.00  0.00    +0.001 A 
ATOM     21  C   UNL     1      -9.066  -8.820   3.326  0.00  0.00    +0.001 A 
ATOM     22  C   UNL     1      -8.701  -9.724   4.276  0.00  0.00    +0.008 A 
ENDBRANCH  12  13
ENDBRANCH   9  12
ENDBRANCH   2   5
BRANCH   1  23
ATOM     23  C   UNL     1       0.059  -4.275  -0.021  0.00  0.00    +0.134 C 
BRANCH  23  28
ATOM     24  C   UNL     1      -0.018   1.503   0.010  0.00  0.00    +0.044 C 
ATOM     25  C   UNL     1       0.002  -0.004   0.002  0.00  0.00    -0.050 A 
ATOM     26  C   UNL     1       0.006  -0.689  -1.199  0.00  0.00    +0.004 A 
ATOM     27  C   UNL     1       0.025  -2.071  -1.206  0.00  0.00    +0.006 A 
ATOM     28  C   UNL     1       0.040  -2.768  -0.013  0.00  0.00    -0.023 A 
ATOM     29  C   UNL     1       0.037  -2.084   1.188  0.00  0.00    +0.006 A 
ATOM     30  C   UNL     1       0.023  -0.702   1.195  0.00  0.00    +0.004 A 
ENDBRANCH  23  28
BRANCH  23  31
ATOM     31  C   UNL     1       1.466  -4.761   0.215  0.00  0.00    -0.023 A 
ATOM     32  C   UNL     1       1.977  -4.801   1.499  0.00  0.00    +0.006 A 
ATOM     33  C   UNL     1       3.268  -5.246   1.715  0.00  0.00    +0.000 A 
ATOM     34  C   UNL     1       4.047  -5.652   0.648  0.00  0.00    +0.000 A 
ATOM     35  C   UNL     1       3.536  -5.613  -0.635  0.00  0.00    +0.000 A 
ATOM     36  C   UNL     1       2.244  -5.171  -0.852  0.00  0.00    +0.006 A 
ENDBRANCH  23  31
ENDBRANCH   1  23
TORSDOF 6
