REMARK  Name = ZINC44021542
REMARK  7 active torsions:
REMARK  status: ('A' for Active; 'I' for Inactive)
REMARK    1  A    between atoms: C_1  and  C_2
REMARK    2  A    between atoms: C_2  and  C_3
REMARK    3  A    between atoms: C_2  and  C_4
REMARK    4  A    between atoms: C_4  and  N_5
REMARK    5  A    between atoms: C_9  and  N_14
REMARK    6  A    between atoms: N_14  and  C_15
REMARK    7  A    between atoms: C_20  and  N_21
REMARK                            x       y       z     vdW  Elec       q    Type
REMARK                         _______ _______ _______ _____ _____    ______ ____
ROOT
ATOM      1  N   UNL     1      -0.099  -0.181   2.350  0.00  0.00    -0.261 N 
ATOM      2  C   UNL     1       0.181   0.990   2.954  0.00  0.00    +0.258 A 
ATOM      3  O   UNL     1       1.027   1.734   2.489  0.00  0.00    -0.267 OA
ATOM      4  C   UNL     1      -0.508   1.349   4.124  0.00  0.00    +0.112 A 
ATOM      5  C   UNL     1      -1.453   0.498   4.625  0.00  0.00    +0.109 A 
ATOM      6  N   UNL     1      -1.707  -0.686   3.976  0.00  0.00    -0.296 N 
ATOM      7  H   UNL     1      -2.376  -1.295   4.327  0.00  0.00    +0.172 HD
ATOM      8  C   UNL     1      -1.036  -1.004   2.854  0.00  0.00    +0.331 A 
ATOM      9  O   UNL     1      -1.277  -2.054   2.289  0.00  0.00    -0.246 OA
ENDROOT
BRANCH   5  10
ATOM     10  N   UNL     1      -2.142   0.823   5.767  0.00  0.00    -0.299 N 
ATOM     11  H   UNL     1      -1.913   1.627   6.259  0.00  0.00    +0.154 HD
BRANCH  10  12
ATOM     12  C   UNL     1      -3.173  -0.005   6.221  0.00  0.00    +0.064 A 
ATOM     13  C   UNL     1      -4.498   0.362   6.024  0.00  0.00    +0.045 A 
ATOM     14  C   UNL     1      -5.515  -0.459   6.474  0.00  0.00    +0.043 A 
ATOM     15  C   UNL     1      -5.213  -1.645   7.121  0.00  0.00    +0.022 A 
ATOM     16  C   UNL     1      -3.895  -2.012   7.319  0.00  0.00    +0.036 A 
ATOM     17  C   UNL     1      -2.874  -1.199   6.866  0.00  0.00    +0.147 A 
ATOM     18 CL   UNL     1      -7.171  -0.001   6.229  0.00  0.00    -0.083 Cl
BRANCH  17  19
ATOM     19  N   UNL     1      -1.464  -1.596   7.072  0.00  0.00    +0.058 N 
ATOM     20  O   UNL     1      -1.203  -2.683   7.532  0.00  0.00    -0.126 OA
ATOM     21  O   UNL     1      -0.572  -0.833   6.782  0.00  0.00    -0.126 OA
ENDBRANCH  17  19
ENDBRANCH  10  12
ENDBRANCH   5  10
BRANCH   1  22
ATOM     22  C   UNL     1       0.619  -0.558   1.129  0.00  0.00    +0.133 C 
BRANCH  22  24
ATOM     23  C   UNL     1      -0.132   1.499  -0.074  0.00  0.00    +0.009 C 
ATOM     24  C   UNL     1      -0.139  -0.031  -0.091  0.00  0.00    +0.003 C 
ATOM     25  C   UNL     1       0.541  -0.529  -1.368  0.00  0.00    +0.009 C 
ENDBRANCH  22  24
ENDBRANCH   1  22
TORSDOF 5
