REMARK  Name = ZINC06283158
REMARK  6 active torsions:
REMARK  status: ('A' for Active; 'I' for Inactive)
REMARK    1  A    between atoms: C_1  and  C_2
REMARK    2  A    between atoms: C_8  and  C_10
REMARK    3  A    between atoms: C_8  and  C_26
REMARK    4  A    between atoms: C_8  and  N_63
REMARK    5  A    between atoms: N_30  and  C_31
REMARK    6  A    between atoms: C_31  and  C_32
REMARK                            x       y       z     vdW  Elec       q    Type
REMARK                         _______ _______ _______ _____ _____    ______ ____
ROOT
ATOM      1  C   UNL     1      -2.317  -0.396  -1.476  0.00  0.00    +0.039 C 
ENDROOT
BRANCH   1   2
ATOM      2  C   UNL     1      -1.828  -1.438  -2.448  0.00  0.00    +0.011 A 
ATOM      3  C   UNL     1      -1.040  -2.454  -2.011  0.00  0.00    +0.017 A 
ATOM      4  C   UNL     1      -0.586  -3.453  -2.978  0.00  0.00    +0.002 A 
ATOM      5  C   UNL     1       0.222  -4.525  -2.583  0.00  0.00    +0.059 A 
ATOM      6  C   UNL     1       0.640  -5.449  -3.518  0.00  0.00    +0.163 A 
ATOM      7  C   UNL     1       0.258  -5.318  -4.856  0.00  0.00    +0.164 A 
ATOM      8  C   UNL     1      -0.541  -4.260  -5.255  0.00  0.00    +0.075 A 
ATOM      9  C   UNL     1      -0.970  -3.321  -4.326  0.00  0.00    +0.053 A 
ATOM     10  N   UNL     1      -1.767  -2.261  -4.707  0.00  0.00    -0.322 N 
ATOM     11  H   UNL     1      -2.031  -2.171  -5.636  0.00  0.00    +0.169 HD
ATOM     12  C   UNL     1      -2.184  -1.352  -3.809  0.00  0.00    +0.251 A 
ATOM     13  O   UNL     1      -2.889  -0.429  -4.181  0.00  0.00    -0.268 OA
ATOM     14  O   UNL     1       0.662  -6.227  -5.784  0.00  0.00    -0.485 OA
ATOM     15  C   UNL     1       1.767  -7.064  -5.427  0.00  0.00    +0.270 C 
ATOM     16  C   UNL     1       1.526  -7.601  -4.010  0.00  0.00    +0.270 C 
ATOM     17  O   UNL     1       1.430  -6.484  -3.119  0.00  0.00    -0.485 OA
ENDBRANCH   1   2
BRANCH   1  24
ATOM     18  C   UNL     1      -6.361   1.731   0.346  0.00  0.00    +0.005 C 
ATOM     19  C   UNL     1      -5.812   0.789  -0.728  0.00  0.00    -0.031 C 
ATOM     20  C   UNL     1      -6.501  -0.574  -0.612  0.00  0.00    -0.001 C 
ATOM     21  C   UNL     1      -5.904  -1.529  -1.649  0.00  0.00    -0.018 C 
ATOM     22  C   UNL     1      -4.394  -1.639  -1.426  0.00  0.00    -0.077 C 
ATOM     23  C   UNL     1      -4.305   0.612  -0.530  0.00  0.00    -0.074 C 
ATOM     24  N   UNL     1      -3.788  -0.298  -1.575  0.00  0.00    +0.389 N 
ATOM     25  H   UNL     1      -4.036   0.079  -2.497  0.00  0.00    -0.080 HD
ENDBRANCH   1  24
BRANCH   1  26
ATOM     26  C   UNL     1      -1.717   0.941  -1.829  0.00  0.00    +0.143 A 
ATOM     27  N   UNL     1      -2.066   1.717  -2.825  0.00  0.00    -0.115 NA
ATOM     28  N   UNL     1      -1.318   2.765  -2.795  0.00  0.00    -0.023 NA
ATOM     29  N   UNL     1      -0.504   2.680  -1.801  0.00  0.00    -0.044 NA
ATOM     30  N   UNL     1      -0.721   1.571  -1.179  0.00  0.00    -0.226 N 
BRANCH  30  31
ATOM     31  C   UNL     1      -0.013   1.086   0.008  0.00  0.00    +0.182 C 
BRANCH  31  32
ATOM     32  C   UNL     1      -0.718   1.572   1.248  0.00  0.00    -0.026 A 
ATOM     33  C   UNL     1      -0.359   2.779   1.818  0.00  0.00    +0.008 A 
ATOM     34  C   UNL     1      -1.009   3.228   2.953  0.00  0.00    +0.038 A 
ATOM     35  C   UNL     1      -2.012   2.463   3.524  0.00  0.00    +0.123 A 
ATOM     36  C   UNL     1      -2.367   1.252   2.955  0.00  0.00    +0.038 A 
ATOM     37  C   UNL     1      -1.719   0.807   1.817  0.00  0.00    +0.008 A 
ATOM     38  F   UNL     1      -2.644   2.899   4.635  0.00  0.00    -0.205 F 
ENDBRANCH  31  32
ENDBRANCH  30  31
ENDBRANCH   1  26
TORSDOF 5
