REMARK  Name = ZINC65616701
REMARK  7 active torsions:
REMARK  status: ('A' for Active; 'I' for Inactive)
REMARK    1  A    between atoms: C_1  and  C_2
REMARK    2  A    between atoms: C_4  and  C_8
REMARK    3  A    between atoms: C_5  and  C_7
REMARK    4  A    between atoms: C_8  and  C_9
REMARK    5  A    between atoms: C_8  and  N_10
REMARK    6  A    between atoms: C_11  and  C_13
REMARK    7  A    between atoms: N_15  and  C_16
REMARK                            x       y       z     vdW  Elec       q    Type
REMARK                         _______ _______ _______ _____ _____    ______ ____
ROOT
ATOM      1  C   UNL     1      -4.814  -3.790  -1.739  0.00  0.00    +0.303 C 
ATOM      2  O   UNL     1      -5.258  -2.662  -1.697  0.00  0.00    -0.265 OA
ATOM      3  N   UNL     1      -5.533  -4.777  -2.309  0.00  0.00    -0.278 N 
ATOM      4  H   UNL     1      -5.151  -5.664  -2.404  0.00  0.00    +0.155 HD
ENDROOT
BRANCH   3   5
ATOM      5  C   UNL     1      -6.831  -4.523  -2.765  0.00  0.00    +0.038 A 
ATOM      6  C   UNL     1      -7.808  -5.504  -2.662  0.00  0.00    +0.027 A 
ATOM      7  C   UNL     1      -9.091  -5.256  -3.113  0.00  0.00    +0.051 A 
ATOM      8  C   UNL     1      -9.404  -4.027  -3.668  0.00  0.00    +0.167 A 
ATOM      9  C   UNL     1      -8.425  -3.039  -3.772  0.00  0.00    +0.169 A 
ATOM     10  C   UNL     1      -7.143  -3.286  -3.317  0.00  0.00    +0.073 A 
ATOM     11  O   UNL     1      -8.991  -1.932  -4.349  0.00  0.00    -0.447 OA
ATOM     12  C   UNL     1     -10.146  -2.450  -5.025  0.00  0.00    +0.254 C 
ATOM     13  O   UNL     1     -10.573  -3.530  -4.184  0.00  0.00    -0.448 OA
ATOM     14  C   UNL     1      -9.790  -2.946  -6.431  0.00  0.00    +0.093 C 
ATOM     15  C   UNL     1     -11.048  -2.611  -7.275  0.00  0.00    +0.008 C 
ATOM     16  C   UNL     1     -11.509  -1.254  -6.684  0.00  0.00    +0.008 C 
ATOM     17  C   UNL     1     -11.234  -1.386  -5.169  0.00  0.00    +0.093 C 
ENDBRANCH   3   5
BRANCH   1  19
ATOM     18  N   UNL     1      -2.750  -3.099  -0.589  0.00  0.00    -0.301 N 
ATOM     19  C   UNL     1      -3.470  -4.085  -1.160  0.00  0.00    +0.300 C 
ATOM     20  O   UNL     1      -3.025  -5.214  -1.202  0.00  0.00    -0.265 OA
ATOM     21  H   UNL     1      -3.105  -2.197  -0.555  0.00  0.00    +0.150 HD
BRANCH  18  22
ATOM     22  C   UNL     1      -1.431  -3.388  -0.021  0.00  0.00    +0.104 C 
ATOM     23  C   UNL     1      -1.595  -3.898   1.413  0.00  0.00    +0.033 C 
BRANCH  22  27
ATOM     24  C   UNL     1      -0.029   1.509   0.018  0.00  0.00    +0.086 C 
ATOM     25  C   UNL     1      -0.004   0.003   0.002  0.00  0.00    +0.103 A 
ATOM     26  C   UNL     1      -1.081  -0.802   0.003  0.00  0.00    +0.050 A 
ATOM     27  C   UNL     1      -0.600  -2.131  -0.015  0.00  0.00    +0.013 A 
ATOM     28  C   UNL     1       0.744  -2.059  -0.027  0.00  0.00    +0.107 A 
ATOM     29  O   UNL     1       1.099  -0.764  -0.022  0.00  0.00    -0.465 OA
ATOM     30  C   UNL     1       1.689  -3.232  -0.048  0.00  0.00    +0.086 C 
ENDBRANCH  22  27
ENDBRANCH  18  22
ENDBRANCH   1  19
TORSDOF 4
