REMARK  Name = ZINC39531383
REMARK  3 active torsions:
REMARK  status: ('A' for Active; 'I' for Inactive)
REMARK    1  A    between atoms: C_10  and  C_12
REMARK    2  A    between atoms: C_12  and  N_13
REMARK    3  A    between atoms: C_14  and  C_16
REMARK                            x       y       z     vdW  Elec       q    Type
REMARK                         _______ _______ _______ _____ _____    ______ ____
ROOT
ATOM      1  C   UNL     1       4.804   0.752  -0.257  0.00  0.00    +0.137 C 
ENDROOT
BRANCH   1  11
ATOM      2  C   UNL     1      -0.018   1.504   0.010  0.00  0.00    +0.001 C 
ATOM      3  C   UNL     1       1.322   2.199   0.001  0.00  0.00    +0.004 C 
ATOM      4  C   UNL     1       1.993   2.070  -1.377  0.00  0.00    +0.035 C 
ATOM      5  C   UNL     1       2.605   0.687  -1.442  0.00  0.00    -0.019 C 
ATOM      6  C   UNL     1       1.932  -0.456  -1.452  0.00  0.00    +0.065 C 
ATOM      7  C   UNL     1       0.415  -0.549  -1.372  0.00  0.00    +0.057 C 
ATOM      8  C   UNL     1       0.002  -0.004   0.002  0.00  0.00    +0.006 C 
ATOM      9  N   UNL     1       2.791  -1.498  -1.538  0.00  0.00    -0.158 NA
ATOM     10  N   UNL     1       3.985  -1.177  -1.575  0.00  0.00    -0.178 NA
ATOM     11  C   UNL     1       4.057   0.297  -1.512  0.00  0.00    +0.173 C 
ENDBRANCH   1  11
BRANCH   1  12
ATOM     12  N   UNL     1       6.182   0.255  -0.301  0.00  0.00    -0.313 N 
ATOM     13  C   UNL     1       7.032   0.535   0.707  0.00  0.00    +0.216 C 
ATOM     14  O   UNL     1       6.656   1.198   1.650  0.00  0.00    -0.276 OA
ATOM     15  H   UNL     1       6.482  -0.275  -1.056  0.00  0.00    +0.149 HD
BRANCH  13  16
ATOM     16  C   UNL     1       8.449   0.024   0.661  0.00  0.00    +0.079 C 
ATOM     17  C   UNL     1       9.198   0.469   1.923  0.00  0.00    +0.017 C 
ATOM     18  C   UNL     1      10.673   0.093   1.768  0.00  0.00    +0.027 C 
ATOM     19  C   UNL     1      10.799  -1.341   1.341  0.00  0.00    -0.031 C 
ATOM     20  C   UNL     1       9.830  -2.034   0.836  0.00  0.00    -0.030 C 
ATOM     21  C   UNL     1       8.443  -1.505   0.610  0.00  0.00    +0.039 C 
ENDBRANCH  13  16
ENDBRANCH   1  12
TORSDOF 3
