REMARK  Name = ZINC17021133
REMARK  7 active torsions:
REMARK  status: ('A' for Active; 'I' for Inactive)
REMARK    1  A    between atoms: C_1  and  S_2
REMARK    2  A    between atoms: S_2  and  C_3
REMARK    3  A    between atoms: C_6  and  N_10
REMARK    4  A    between atoms: C_7  and  O_9
REMARK    5  A    between atoms: N_11  and  C_12
REMARK    6  A    between atoms: C_15  and  S_18
REMARK    7  A    between atoms: S_18  and  N_21
REMARK                            x       y       z     vdW  Elec       q    Type
REMARK                         _______ _______ _______ _____ _____    ______ ____
ROOT
ATOM      1  C   UNL     1       2.385   1.407  -0.013  0.00  0.00    +0.086 A 
ATOM      2  C   UNL     1       1.166   2.089   0.002  0.00  0.00    +0.031 A 
ATOM      3  C   UNL     1      -0.017   1.380   0.010  0.00  0.00    +0.031 A 
ATOM      4  C   UNL     1       0.002  -0.004   0.002  0.00  0.00    +0.109 A 
ATOM      5  C   UNL     1       1.206  -0.686  -0.013  0.00  0.00    +0.031 A 
ATOM      6  C   UNL     1       2.397   0.009  -0.020  0.00  0.00    +0.031 A 
ENDROOT
BRANCH   4   7
ATOM      7  S   UNL     1      -1.514  -0.901   0.012  0.00  0.00    +0.074 S 
ATOM      8  O   UNL     1      -1.224  -2.183   0.553  0.00  0.00    -0.150 OA
ATOM      9  O   UNL     1      -2.493  -0.040   0.577  0.00  0.00    -0.150 OA
BRANCH   7  10
ATOM     10  N   UNL     1      -1.951  -1.142  -1.567  0.00  0.00    -0.194 N 
ATOM     11  C   UNL     1      -1.164  -1.932  -2.391  0.00  0.00    +0.177 A 
ATOM     12  N   UNL     1      -0.041  -2.564  -2.108  0.00  0.00    -0.232 NA
ATOM     13  C   UNL     1       0.586  -3.284  -3.019  0.00  0.00    +0.120 A 
ATOM     14  C   UNL     1       0.057  -3.353  -4.264  0.00  0.00    +0.068 A 
ATOM     15  S   UNL     1      -1.398  -2.336  -4.064  0.00  0.00    -0.059 S 
ATOM     16  H   UNL     1      -2.757  -0.731  -1.916  0.00  0.00    +0.176 HD
ENDBRANCH   7  10
ENDBRANCH   4   7
BRANCH   1  18
ATOM     17  N   UNL     1       3.549   3.393  -0.013  0.00  0.00    -0.140 NA
ATOM     18  N   UNL     1       3.563   2.103  -0.019  0.00  0.00    -0.149 NA
BRANCH  17  22
ATOM     19  C   UNL     1       7.036   5.457  -0.032  0.00  0.00    +0.193 A 
ATOM     20  N   UNL     1       5.894   6.131  -0.019  0.00  0.00    -0.205 NA
ATOM     21  C   UNL     1       4.727   5.497  -0.018  0.00  0.00    +0.152 A 
ATOM     22  C   UNL     1       4.718   4.085  -0.019  0.00  0.00    +0.187 A 
ATOM     23  C   UNL     1       5.957   3.415  -0.034  0.00  0.00    +0.246 A 
ATOM     24  N   UNL     1       7.073   4.131  -0.039  0.00  0.00    -0.185 NA
ATOM     25  N   UNL     1       3.542   6.206  -0.011  0.00  0.00    -0.341 N 
ATOM     26  H   UNL     1       2.695   5.735  -0.006  0.00  0.00    +0.144 HD
ATOM     27  H   UNL     1       3.558   7.176  -0.010  0.00  0.00    +0.144 HD
BRANCH  19  29
ATOM     28  C   UNL     1       9.730   4.977  -0.057  0.00  0.00    +0.093 C 
ATOM     29  S   UNL     1       8.553   6.352  -0.040  0.00  0.00    -0.089 S 
ENDBRANCH  19  29
BRANCH  23  30
ATOM     30  O   UNL     1       6.007   2.062  -0.040  0.00  0.00    -0.491 OA
ATOM     31  H   UNL     1       6.014   1.674  -0.926  0.00  0.00    +0.294 HD
ENDBRANCH  23  30
ENDBRANCH  17  22
ENDBRANCH   1  18
TORSDOF 6
