REMARK  Name = ZINC11115965
REMARK  6 active torsions:
REMARK  status: ('A' for Active; 'I' for Inactive)
REMARK    1  A    between atoms: C_1  and  C_2
REMARK    2  A    between atoms: C_2  and  C_4
REMARK    3  A    between atoms: C_2  and  S_16
REMARK    4  A    between atoms: S_16  and  C_17
REMARK    5  A    between atoms: C_20  and  C_25
REMARK    6  A    between atoms: N_21  and  C_22
REMARK                            x       y       z     vdW  Elec       q    Type
REMARK                         _______ _______ _______ _____ _____    ______ ____
ROOT
ATOM      1  S   UNL     1       5.838  -2.092  -0.127  0.00  0.00    -0.073 S 
ENDROOT
BRANCH   1   2
ATOM      2  C   UNL     1       7.218  -1.109  -0.613  0.00  0.00    +0.193 A 
ATOM      3  N   UNL     1       7.268   0.205  -0.642  0.00  0.00    -0.122 NA
ATOM      4  N   UNL     1       8.425   0.593  -1.045  0.00  0.00    -0.128 NA
ATOM      5  C   UNL     1       9.183  -0.448  -1.299  0.00  0.00    +0.165 A 
ATOM      6  N   UNL     1       8.435  -1.570  -1.024  0.00  0.00    -0.299 N 
BRANCH   5   7
ATOM      7  C   UNL     1      10.580  -0.420  -1.782  0.00  0.00    +0.022 A 
ATOM      8  C   UNL     1      11.177  -1.566  -2.321  0.00  0.00    +0.031 A 
ATOM      9  C   UNL     1      12.481  -1.494  -2.765  0.00  0.00    +0.111 A 
ATOM     10  N   UNL     1      13.166  -0.369  -2.676  0.00  0.00    -0.263 NA
ATOM     11  C   UNL     1      12.643   0.732  -2.171  0.00  0.00    +0.111 A 
ATOM     12  C   UNL     1      11.344   0.751  -1.708  0.00  0.00    +0.031 A 
ENDBRANCH   5   7
BRANCH   6  13
ATOM     13  C   UNL     1       8.856  -2.967  -1.150  0.00  0.00    +0.091 C 
ATOM     14  C   UNL     1       8.520  -3.913   0.005  0.00  0.00    +0.027 C 
ATOM     15  C   UNL     1       9.964  -3.457  -0.216  0.00  0.00    +0.027 C 
ENDBRANCH   6  13
ENDBRANCH   1   2
BRANCH   1  17
ATOM     16  C   UNL     1       5.155   0.013   1.474  0.00  0.00    +0.029 C 
ATOM     17  C   UNL     1       4.649  -0.788   0.273  0.00  0.00    +0.137 C 
BRANCH  17  18
ATOM     18  C   UNL     1       3.317  -1.408   0.608  0.00  0.00    +0.233 C 
ATOM     19  O   UNL     1       3.267  -2.540   1.041  0.00  0.00    -0.274 OA
ATOM     20  N   UNL     1       2.181  -0.705   0.427  0.00  0.00    -0.270 N 
ATOM     21  C   UNL     1       2.233   0.707   0.024  0.00  0.00    +0.114 C 
ATOM     22  C   UNL     1       1.226   1.478   0.888  0.00  0.00    +0.024 C 
ATOM     23  C   UNL     1      -0.180   0.957   0.592  0.00  0.00    +0.038 C 
ATOM     24  C   UNL     1      -0.222  -0.544   0.706  0.00  0.00    -0.026 A 
ATOM     25  C   UNL     1       0.931  -1.309   0.620  0.00  0.00    +0.039 A 
ATOM     26  C   UNL     1       0.857  -2.693   0.726  0.00  0.00    +0.024 A 
ATOM     27  C   UNL     1      -0.365  -3.307   0.919  0.00  0.00    +0.002 A 
ATOM     28  C   UNL     1      -1.514  -2.543   1.007  0.00  0.00    +0.000 A 
ATOM     29  C   UNL     1      -1.442  -1.167   0.901  0.00  0.00    +0.005 A 
ENDBRANCH  17  18
ENDBRANCH   1  17
TORSDOF 5
