REMARK  Name = ZINC38681099
REMARK  16 active torsions:
REMARK  status: ('A' for Active; 'I' for Inactive)
REMARK    1  A    between atoms: C_1  and  C_2
REMARK    2  A    between atoms: C_2  and  C_3
REMARK    3  A    between atoms: C_2  and  C_4
REMARK    4  A    between atoms: C_4  and  O_5
REMARK    5  A    between atoms: O_5  and  C_6
REMARK    6  A    between atoms: C_9  and  C_12
REMARK    7  A    between atoms: C_12  and  O_14
REMARK    8  A    between atoms: O_14  and  C_15
REMARK    9  A    between atoms: C_22  and  N_40
REMARK   10  A    between atoms: C_23  and  C_38
REMARK   11  A    between atoms: C_24  and  C_26
REMARK   12  A    between atoms: C_29  and  O_34
REMARK   13  A    between atoms: C_30  and  O_32
REMARK   14  A    between atoms: O_32  and  C_33
REMARK   15  A    between atoms: O_34  and  C_35
REMARK   16  A    between atoms: C_35  and  C_36
REMARK                            x       y       z     vdW  Elec       q    Type
REMARK                         _______ _______ _______ _____ _____    ______ ____
ROOT
ATOM      1  C   UNL     1      -7.694  -6.404  -0.280  0.00  0.00    +0.135 A 
ATOM      2  C   UNL     1      -8.781  -5.542  -0.244  0.00  0.00    +0.047 A 
ATOM      3  C   UNL     1     -10.065  -6.049  -0.272  0.00  0.00    +0.012 A 
ATOM      4  C   UNL     1     -10.275  -7.415  -0.336  0.00  0.00    +0.008 A 
ATOM      5  C   UNL     1      -9.193  -8.281  -0.371  0.00  0.00    +0.138 A 
ATOM      6  C   UNL     1      -7.901  -7.773  -0.348  0.00  0.00    +0.093 A 
ATOM      7  O   UNL     1      -9.378  -9.623  -0.433  0.00  0.00    -0.441 OA
ATOM      8  C   UNL     1     -10.560 -10.153  -0.079  0.00  0.00    +0.199 C 
ATOM      9  C   UNL     1     -11.692  -9.412  -0.026  0.00  0.00    +0.098 C 
ATOM     10  C   UNL     1     -11.683  -7.948  -0.365  0.00  0.00    +0.098 C 
ENDROOT
BRANCH  10  11
ATOM     11  C   UNL     1     -12.262  -7.750  -1.743  0.00  0.00    -0.031 A 
ATOM     12  C   UNL     1     -11.659  -8.344  -2.836  0.00  0.00    +0.008 A 
ATOM     13  C   UNL     1     -12.186  -8.166  -4.101  0.00  0.00    +0.050 A 
ATOM     14  C   UNL     1     -13.322  -7.391  -4.276  0.00  0.00    +0.162 A 
ATOM     15  C   UNL     1     -13.929  -6.794  -3.175  0.00  0.00    +0.162 A 
ATOM     16  C   UNL     1     -13.398  -6.981  -1.909  0.00  0.00    +0.054 A 
BRANCH  15  17
ATOM     17  O   UNL     1     -15.044  -6.033  -3.342  0.00  0.00    -0.491 OA
ATOM     18  C   UNL     1     -15.613  -5.451  -2.167  0.00  0.00    +0.277 C 
ENDBRANCH  15  17
BRANCH  14  19
ATOM     19  O   UNL     1     -13.842  -7.215  -5.520  0.00  0.00    -0.484 OA
BRANCH  19  20
ATOM     20  C   UNL     1     -13.166  -7.857  -6.603  0.00  0.00    +0.256 C 
BRANCH  20  21
ATOM     21  C   UNL     1     -13.880  -7.550  -7.894  0.00  0.00    +0.006 C 
ATOM     22  C   UNL     1     -13.195  -7.207  -8.956  0.00  0.00    +0.007 C 
ENDBRANCH  20  21
ENDBRANCH  19  20
ENDBRANCH  14  19
ENDBRANCH  10  11
BRANCH   8  23
ATOM     23  N   UNL     1     -10.623 -11.487   0.239  0.00  0.00    -0.328 N 
ATOM     24  H   UNL     1      -9.821 -12.032   0.206  0.00  0.00    +0.145 HD
ATOM     25  H   UNL     1     -11.469 -11.885   0.496  0.00  0.00    +0.145 HD
ENDBRANCH   8  23
BRANCH   9  26
ATOM     26  C   UNL     1     -12.922 -10.035   0.359  0.00  0.00    +0.101 C 
ATOM     27  N   UNL     1     -13.898 -10.530   0.665  0.00  0.00    -0.191 NA
ENDBRANCH   9  26
BRANCH   1  28
ATOM     28  O   UNL     1      -6.430  -5.907  -0.252  0.00  0.00    -0.422 OA
BRANCH  28  29
ATOM     29  C   UNL     1      -5.740  -5.868  -1.409  0.00  0.00    +0.344 C 
ATOM     30  O   UNL     1      -6.217  -6.351  -2.417  0.00  0.00    -0.245 OA
BRANCH  29  34
ATOM     31  C   UNL     1      -1.903  -4.055  -1.534  0.00  0.00    +0.121 A 
ATOM     32  C   UNL     1      -2.447  -4.608  -2.688  0.00  0.00    +0.046 A 
ATOM     33  C   UNL     1      -3.691  -5.197  -2.652  0.00  0.00    +0.018 A 
ATOM     34  C   UNL     1      -4.407  -5.239  -1.453  0.00  0.00    +0.060 A 
ATOM     35  C   UNL     1      -3.857  -4.682  -0.294  0.00  0.00    +0.018 A 
ATOM     36  C   UNL     1      -2.610  -4.100  -0.338  0.00  0.00    +0.046 A 
BRANCH  31  37
ATOM     37  O   UNL     1      -0.677  -3.476  -1.574  0.00  0.00    -0.492 OA
BRANCH  37  38
ATOM     38  C   UNL     1      -0.005  -3.465  -2.835  0.00  0.00    +0.232 C 
BRANCH  38  40
ATOM     39  C   UNL     1       2.123  -2.873  -4.002  0.00  0.00    +0.010 C 
ATOM     40  C   UNL     1       1.352  -2.775  -2.684  0.00  0.00    +0.020 C 
ATOM     41  C   UNL     1       1.139  -1.303  -2.325  0.00  0.00    +0.010 C 
ENDBRANCH  38  40
ENDBRANCH  37  38
ENDBRANCH  31  37
ENDBRANCH  29  34
ENDBRANCH  28  29
ENDBRANCH   1  28
TORSDOF 13
