REMARK  Name = ZINC00547954
REMARK  6 active torsions:
REMARK  status: ('A' for Active; 'I' for Inactive)
REMARK    1  A    between atoms: C_1  and  C_2
REMARK    2  A    between atoms: C_2  and  C_3
REMARK    3  A    between atoms: C_2  and  C_4
REMARK    4  A    between atoms: C_4  and  C_5
REMARK    5  A    between atoms: C_11  and  N_15
REMARK    6  A    between atoms: N_15  and  N_16
REMARK                            x       y       z     vdW  Elec       q    Type
REMARK                         _______ _______ _______ _____ _____    ______ ____
ROOT
ATOM      1  C   UNL     1      -1.300   3.772  -2.293  0.00  0.00    +0.046 A 
ATOM      2  C   UNL     1      -0.985   3.082  -1.125  0.00  0.00    -0.022 A 
ATOM      3  C   UNL     1      -0.892   3.762   0.062  0.00  0.00    -0.031 A 
ATOM      4  C   UNL     1      -1.125   5.159   0.078  0.00  0.00    +0.037 A 
ATOM      5  C   UNL     1      -1.075   6.063   1.242  0.00  0.00    +0.093 A 
ATOM      6  C   UNL     1      -1.348   7.412   0.982  0.00  0.00    +0.081 A 
ATOM      7  C   UNL     1      -1.330   8.353   2.002  0.00  0.00    +0.150 A 
ATOM      8  N   UNL     1      -1.047   7.941   3.237  0.00  0.00    -0.219 NA
ATOM      9  C   UNL     1      -0.791   6.666   3.466  0.00  0.00    +0.224 A 
ATOM     10  N   UNL     1      -0.798   5.752   2.528  0.00  0.00    -0.234 NA
ATOM     11  S   UNL     1      -1.661   7.477  -0.761  0.00  0.00    -0.064 S 
ATOM     12  C   UNL     1      -1.438   5.759  -1.153  0.00  0.00    +0.111 A 
ATOM     13  N   UNL     1      -1.515   5.071  -2.272  0.00  0.00    -0.244 NA
ATOM     14  C   UNL     1      -0.545   3.096   1.364  0.00  0.00    +0.036 C 
ATOM     15  C   UNL     1      -0.738   1.584   1.263  0.00  0.00    +0.005 C 
ATOM     16  C   UNL     1      -0.013   1.086   0.008  0.00  0.00    +0.005 C 
ATOM     17  C   UNL     1      -0.759   1.596  -1.223  0.00  0.00    +0.037 C 
ENDROOT
BRANCH   7  18
ATOM     18  N   UNL     1      -1.601   9.688   1.742  0.00  0.00    -0.267 N 
ATOM     19  H   UNL     1      -1.806   9.974   0.838  0.00  0.00    +0.167 HD
BRANCH  18  20
ATOM     20  N   UNL     1      -1.578  10.600   2.759  0.00  0.00    -0.255 NA
ATOM     21  H   UNL     1      -1.794  11.525   2.420  0.00  0.00    +0.140 HD
ATOM     22  H   UNL     1      -2.207  10.331   3.500  0.00  0.00    +0.140 HD
ENDBRANCH  18  20
ENDBRANCH   7  18
BRANCH   1  23
ATOM     23  C   UNL     1      -1.397   3.023  -3.597  0.00  0.00    +0.058 C 
BRANCH  23  25
ATOM     24  C   UNL     1      -2.961   1.882  -5.177  0.00  0.00    +0.007 C 
ATOM     25  C   UNL     1      -2.833   2.534  -3.798  0.00  0.00    -0.011 C 
ATOM     26  C   UNL     1      -3.180   1.510  -2.716  0.00  0.00    +0.007 C 
ENDBRANCH  23  25
ENDBRANCH   1  23
TORSDOF 4
