REMARK  Name = ZINC51057074
REMARK  12 active torsions:
REMARK  status: ('A' for Active; 'I' for Inactive)
REMARK    1  A    between atoms: C_1  and  C_2
REMARK    2  A    between atoms: C_2  and  C_3
REMARK    3  A    between atoms: C_3  and  C_4
REMARK    4  A    between atoms: C_4  and  C_6
REMARK    5  A    between atoms: C_4  and  N_7
REMARK    6  A    between atoms: C_8  and  C_10
REMARK    7  A    between atoms: N_15  and  C_17
REMARK    8  A    between atoms: C_17  and  C_18
REMARK    9  A    between atoms: C_18  and  C_20
REMARK   10  A    between atoms: C_21  and  N_30
REMARK   11  A    between atoms: N_22  and  C_29
REMARK   12  A    between atoms: N_25  and  C_28
REMARK                            x       y       z     vdW  Elec       q    Type
REMARK                         _______ _______ _______ _____ _____    ______ ____
ROOT
ATOM      1  C   UNL     1       0.272  -4.269  -2.627  0.00  0.00    +0.058 C 
ATOM      2  C   UNL     1       1.380  -3.300  -3.050  0.00  0.00    +0.009 C 
ATOM      3  C   UNL     1       2.054  -3.834  -4.317  0.00  0.00    -0.018 C 
ATOM      4  C   UNL     1       2.587  -5.243  -4.050  0.00  0.00    -0.078 C 
ATOM      5  N   UNL     1       1.477  -6.127  -3.675  0.00  0.00    +0.385 N 
ATOM      6  C   UNL     1       0.870  -5.662  -2.422  0.00  0.00    -0.066 C 
ATOM      7  H   UNL     1       0.782  -6.121  -4.406  0.00  0.00    -0.081 HD
ENDROOT
BRANCH   1   9
ATOM      8  N   UNL     1      -0.937  -2.582  -1.280  0.00  0.00    -0.313 N 
ATOM      9  C   UNL     1      -0.347  -3.793  -1.338  0.00  0.00    +0.215 C 
ATOM     10  O   UNL     1      -0.315  -4.499  -0.352  0.00  0.00    -0.276 OA
ATOM     11  H   UNL     1      -0.962  -2.017  -2.068  0.00  0.00    +0.149 HD
BRANCH   8  12
ATOM     12  C   UNL     1      -1.539  -2.119  -0.027  0.00  0.00    +0.070 C 
ATOM     13  C   UNL     1      -2.967  -2.657   0.082  0.00  0.00    +0.028 C 
BRANCH  12  14
ATOM     14  C   UNL     1      -1.567  -0.590  -0.010  0.00  0.00    +0.022 C 
BRANCH  14  16
ATOM     15  C   UNL     1      -0.163   1.476   0.025  0.00  0.00    +0.004 C 
ATOM     16  C   UNL     1      -0.134  -0.053   0.007  0.00  0.00    -0.002 C 
ENDBRANCH  14  16
ENDBRANCH  12  14
ENDBRANCH   8  12
ENDBRANCH   1   9
BRANCH   5  17
ATOM     17  C   UNL     1       1.982  -7.495  -3.495  0.00  0.00    +0.002 C 
BRANCH  17  18
ATOM     18  C   UNL     1       2.485  -8.022  -4.814  0.00  0.00    +0.155 C 
ATOM     19  O   UNL     1       2.429  -7.326  -5.808  0.00  0.00    -0.294 OA
BRANCH  18  20
ATOM     20  C   UNL     1       3.022  -9.325  -4.895  0.00  0.00    +0.118 A 
ATOM     21  C   UNL     1       3.385  -9.885  -6.132  0.00  0.00    +0.116 A 
ATOM     22  N   UNL     1       3.900 -11.149  -6.159  0.00  0.00    -0.284 N 
ATOM     23  C   UNL     1       4.064 -11.860  -5.032  0.00  0.00    +0.333 A 
ATOM     24  O   UNL     1       4.527 -12.981  -5.110  0.00  0.00    -0.246 OA
ATOM     25  N   UNL     1       3.736 -11.378  -3.823  0.00  0.00    -0.263 N 
ATOM     26  C   UNL     1       3.224 -10.137  -3.688  0.00  0.00    +0.269 A 
ATOM     27  O   UNL     1       2.932  -9.702  -2.590  0.00  0.00    -0.267 OA
ATOM     28  C   UNL     1       3.941 -12.209  -2.634  0.00  0.00    +0.157 C 
ATOM     29  C   UNL     1       4.282 -11.741  -7.444  0.00  0.00    +0.155 C 
BRANCH  21  30
ATOM     30  N   UNL     1       3.224  -9.178  -7.284  0.00  0.00    -0.344 N 
ATOM     31  H   UNL     1       2.931  -8.255  -7.249  0.00  0.00    +0.144 HD
ATOM     32  H   UNL     1       3.404  -9.599  -8.139  0.00  0.00    +0.144 HD
ENDBRANCH  21  30
ENDBRANCH  18  20
ENDBRANCH  17  18
ENDBRANCH   5  17
TORSDOF 8
