REMARK  Name = ZINC21240722
REMARK  7 active torsions:
REMARK  status: ('A' for Active; 'I' for Inactive)
REMARK    1  A    between atoms: C_1  and  C_2
REMARK    2  A    between atoms: C_2  and  C_3
REMARK    3  A    between atoms: C_2  and  O_4
REMARK    4  A    between atoms: O_4  and  C_5
REMARK    5  A    between atoms: C_8  and  C_11
REMARK    6  A    between atoms: C_16  and  C_26
REMARK    7  A    between atoms: C_31  and  O_32
REMARK                            x       y       z     vdW  Elec       q    Type
REMARK                         _______ _______ _______ _____ _____    ______ ____
ROOT
ATOM      1  C   UNL     1       0.418   7.379  -3.982  0.00  0.00    +0.032 C 
ATOM      2  C   UNL     1       1.734   6.603  -3.982  0.00  0.00    +0.059 C 
ATOM      3  C   UNL     1       2.122   6.244  -2.557  0.00  0.00    +0.017 C 
ATOM      4  C   UNL     1       1.175   5.981  -1.641  0.00  0.00    +0.037 C 
ATOM      5  C   UNL     1       1.418   5.575  -0.207  0.00  0.00    +0.139 C 
ATOM      6  N   UNL     1       2.787   5.732   0.236  0.00  0.00    -0.331 N 
ATOM      7  C   UNL     1       3.818   4.982  -0.327  0.00  0.00    +0.049 A 
ATOM      8  C   UNL     1       4.490   4.014   0.403  0.00  0.00    +0.025 A 
ATOM      9  C   UNL     1       5.433   3.220  -0.226  0.00  0.00    +0.002 A 
ATOM     10  C   UNL     1       5.705   3.389  -1.572  0.00  0.00    +0.002 A 
ATOM     11  C   UNL     1       5.050   4.369  -2.299  0.00  0.00    +0.025 A 
ATOM     12  C   UNL     1       4.119   5.175  -1.667  0.00  0.00    +0.052 A 
ATOM     13  N   UNL     1       3.459   6.205  -2.326  0.00  0.00    -0.316 N 
ATOM     14  C   UNL     1      -0.194   6.076  -1.984  0.00  0.00    +0.163 C 
ATOM     15  O   UNL     1      -1.029   5.820  -1.139  0.00  0.00    -0.292 OA
ATOM     16  C   UNL     1      -0.653   6.482  -3.352  0.00  0.00    +0.088 C 
ATOM     17  H   UNL     1       3.029   6.454   1.030  0.00  0.00    +0.147 HD
ATOM     18  H   UNL     1       4.100   7.030  -2.671  0.00  0.00    +0.152 HD
ENDROOT
BRANCH   1  22
ATOM     19  C   UNL     1      -0.686   8.355  -7.994  0.00  0.00    +0.121 A 
ATOM     20  C   UNL     1      -0.474   9.365  -7.066  0.00  0.00    +0.046 A 
ATOM     21  C   UNL     1      -0.116   9.047  -5.771  0.00  0.00    +0.007 A 
ATOM     22  C   UNL     1       0.029   7.723  -5.397  0.00  0.00    -0.043 A 
ATOM     23  C   UNL     1      -0.177   6.715  -6.321  0.00  0.00    +0.007 A 
ATOM     24  C   UNL     1      -0.540   7.028  -7.617  0.00  0.00    +0.046 A 
BRANCH  19  25
ATOM     25  O   UNL     1      -1.038   8.665  -9.269  0.00  0.00    -0.489 OA
BRANCH  25  27
ATOM     26  C   UNL     1       0.032  10.746  -9.876  0.00  0.00    +0.051 C 
ATOM     27  C   UNL     1      -1.289  10.043  -9.556  0.00  0.00    +0.167 C 
ATOM     28  C   UNL     1      -2.228  10.150 -10.759  0.00  0.00    +0.051 C 
ENDBRANCH  25  27
ENDBRANCH  19  25
ENDBRANCH   1  22
BRANCH   5  29
ATOM     29  C   UNL     1       1.027   4.128  -0.047  0.00  0.00    +0.019 A 
ATOM     30  C   UNL     1       0.883   3.324  -1.161  0.00  0.00    +0.009 A 
ATOM     31  C   UNL     1       0.524   1.996  -1.014  0.00  0.00    +0.001 A 
ATOM     32  C   UNL     1       0.308   1.471   0.246  0.00  0.00    +0.004 A 
ATOM     33  C   UNL     1       0.445   2.273   1.363  0.00  0.00    +0.046 A 
ATOM     34  C   UNL     1       0.811   3.603   1.219  0.00  0.00    +0.122 A 
BRANCH  34  35
ATOM     35  O   UNL     1       0.951   4.393   2.316  0.00  0.00    -0.506 OA
ATOM     36  H   UNL     1       0.780   3.976   3.320  0.00  0.00    +0.292 HD
ENDBRANCH  34  35
ENDBRANCH   5  29
TORSDOF 5
