REMARK  Name = ZINC22467583
REMARK  7 active torsions:
REMARK  status: ('A' for Active; 'I' for Inactive)
REMARK    1  A    between atoms: C_4  and  C_7
REMARK    2  A    between atoms: C_8  and  C_9
REMARK    3  A    between atoms: C_9  and  N_10
REMARK    4  A    between atoms: N_13  and  C_16
REMARK    5  A    between atoms: N_21  and  C_24
REMARK    6  A    between atoms: C_24  and  C_25
REMARK    7  A    between atoms: C_28  and  N_31
REMARK                            x       y       z     vdW  Elec       q    Type
REMARK                         _______ _______ _______ _____ _____    ______ ____
ROOT
ATOM      1  C   UNL     1       6.392  -5.621   4.572  0.00  0.00    +0.152 C 
ATOM      2  C   UNL     1       7.693  -6.444   4.480  0.00  0.00    +0.124 C 
ATOM      3  C   UNL     1       8.449  -6.055   5.731  0.00  0.00    +0.224 C 
ATOM      4  O   UNL     1       9.538  -6.478   6.053  0.00  0.00    -0.275 OA
ATOM      5  N   UNL     1       7.725  -5.169   6.426  0.00  0.00    -0.236 N 
ATOM      6  C   UNL     1       6.546  -4.853   5.867  0.00  0.00    +0.240 C 
ATOM      7  O   UNL     1       5.735  -4.076   6.324  0.00  0.00    -0.273 OA
ENDROOT
BRANCH   1  11
ATOM      8  N   UNL     1       5.020  -3.632   1.104  0.00  0.00    +0.384 N 
ATOM      9  C   UNL     1       5.023  -2.888   2.371  0.00  0.00    -0.063 C 
ATOM     10  C   UNL     1       5.070  -3.873   3.541  0.00  0.00    +0.066 C 
ATOM     11  N   UNL     1       6.282  -4.699   3.434  0.00  0.00    -0.295 NA
ATOM     12  C   UNL     1       6.305  -5.430   2.160  0.00  0.00    +0.066 C 
ATOM     13  C   UNL     1       6.248  -4.432   1.001  0.00  0.00    -0.063 C 
ATOM     14  H   UNL     1       4.218  -4.242   1.075  0.00  0.00    -0.081 HD
BRANCH   8  15
ATOM     15  C   UNL     1       4.957  -2.686  -0.018  0.00  0.00    -0.051 C 
BRANCH  15  17
ATOM     16  C   UNL     1       3.624  -0.626   0.034  0.00  0.00    +0.002 C 
ATOM     17  C   UNL     1       3.642  -1.951   0.018  0.00  0.00    -0.045 C 
BRANCH  16  21
ATOM     18  C   UNL     1      -0.082   1.446   0.133  0.00  0.00    +0.000 A 
ATOM     19  C   UNL     1       1.104   2.158   0.118  0.00  0.00    +0.001 A 
ATOM     20  C   UNL     1       2.312   1.490   0.086  0.00  0.00    +0.008 A 
ATOM     21  C   UNL     1       2.334   0.096   0.069  0.00  0.00    -0.025 A 
ATOM     22  C   UNL     1       1.134  -0.616   0.085  0.00  0.00    +0.008 A 
ATOM     23  C   UNL     1      -0.067   0.063   0.117  0.00  0.00    +0.001 A 
ENDBRANCH  16  21
ENDBRANCH  15  17
ENDBRANCH   8  15
ENDBRANCH   1  11
BRANCH   5  24
ATOM     24  C   UNL     1       8.180  -4.593   7.694  0.00  0.00    +0.151 C 
BRANCH  24  25
ATOM     25  C   UNL     1       8.958  -3.332   7.421  0.00  0.00    -0.030 A 
ATOM     26  C   UNL     1      10.325  -3.394   7.218  0.00  0.00    +0.007 A 
ATOM     27  C   UNL     1      11.041  -2.240   6.969  0.00  0.00    +0.024 A 
ATOM     28  C   UNL     1      10.387  -1.016   6.921  0.00  0.00    +0.036 A 
ATOM     29  C   UNL     1       9.015  -0.956   7.124  0.00  0.00    +0.024 A 
ATOM     30  C   UNL     1       8.304  -2.115   7.369  0.00  0.00    +0.007 A 
BRANCH  28  31
ATOM     31  N   UNL     1      11.110   0.155   6.668  0.00  0.00    -0.271 N 
ATOM     32  C   UNL     1      10.504   1.479   6.485  0.00  0.00    +0.114 C 
ATOM     33  C   UNL     1      11.657   2.490   6.672  0.00  0.00    +0.029 C 
ATOM     34  C   UNL     1      12.890   1.635   6.298  0.00  0.00    +0.098 C 
ATOM     35  C   UNL     1      12.450   0.213   6.569  0.00  0.00    +0.220 C 
ATOM     36  O   UNL     1      13.196  -0.736   6.677  0.00  0.00    -0.275 OA
ENDBRANCH  28  31
ENDBRANCH  24  25
ENDBRANCH   5  24
TORSDOF 7
