REMARK  Name = ZINC28698116
REMARK  6 active torsions:
REMARK  status: ('A' for Active; 'I' for Inactive)
REMARK    1  A    between atoms: C_2  and  C_3
REMARK    2  A    between atoms: C_3  and  N_4
REMARK    3  A    between atoms: C_8  and  C_10
REMARK    4  A    between atoms: C_10  and  S_11
REMARK    5  A    between atoms: S_11  and  C_12
REMARK    6  A    between atoms: N_22  and  C_23
REMARK                            x       y       z     vdW  Elec       q    Type
REMARK                         _______ _______ _______ _____ _____    ______ ____
ROOT
ATOM      1  C   UNL     1       2.411   0.741   0.072  0.00  0.00    +0.173 A 
ATOM      2  N   UNL     1       3.661   1.135   0.068  0.00  0.00    -0.223 NA
ATOM      3  C   UNL     1       3.990   2.440  -0.011  0.00  0.00    +0.079 A 
ATOM      4  C   UNL     1       5.323   2.861  -0.015  0.00  0.00    +0.028 A 
ATOM      5  C   UNL     1       5.611   4.194  -0.096  0.00  0.00    +0.002 A 
ATOM      6  C   UNL     1       4.598   5.141  -0.176  0.00  0.00    +0.001 A 
ATOM      7  C   UNL     1       3.284   4.761  -0.174  0.00  0.00    +0.015 A 
ATOM      8  C   UNL     1       2.961   3.407  -0.092  0.00  0.00    +0.065 A 
ATOM      9  C   UNL     1       1.569   2.940  -0.091  0.00  0.00    +0.263 A 
ATOM     10  O   UNL     1       0.639   3.723  -0.163  0.00  0.00    -0.267 OA
ATOM     11  N   UNL     1       1.357   1.606  -0.002  0.00  0.00    -0.284 N 
ENDROOT
BRANCH  11  12
ATOM     12  C   UNL     1      -0.013   1.086   0.008  0.00  0.00    +0.093 C 
ATOM     13  C   UNL     1      -0.743   1.544   1.287  0.00  0.00    +0.025 C 
ATOM     14  C   UNL     1      -1.518   2.812   0.848  0.00  0.00    +0.002 C 
ATOM     15  C   UNL     1      -1.988   2.448  -0.583  0.00  0.00    +0.002 C 
ATOM     16  C   UNL     1      -0.804   1.660  -1.181  0.00  0.00    +0.025 C 
ENDBRANCH  11  12
BRANCH   1  17
ATOM     17  S   UNL     1       2.076  -0.985   0.179  0.00  0.00    -0.078 S 
BRANCH  17  18
ATOM     18  C   UNL     1       3.765  -1.630   0.249  0.00  0.00    +0.173 C 
BRANCH  18  23
ATOM     19  N   UNL     1       5.988  -5.881   0.564  0.00  0.00    -0.296 N 
ATOM     20  C   UNL     1       4.839  -5.180   0.499  0.00  0.00    +0.306 C 
ATOM     21  O   UNL     1       3.771  -5.759   0.518  0.00  0.00    -0.252 OA
ATOM     22  N   UNL     1       4.875  -3.835   0.412  0.00  0.00    -0.239 N 
ATOM     23  C   UNL     1       3.726  -3.134   0.347  0.00  0.00    +0.231 C 
ATOM     24  O   UNL     1       2.660  -3.712   0.366  0.00  0.00    -0.274 OA
ATOM     25  H   UNL     1       6.955  -5.357   0.546  0.00  0.00    +0.151 HD
ATOM     26  H   UNL     1       5.841  -3.310   0.394  0.00  0.00    +0.159 HD
BRANCH  19  27
ATOM     27  C   UNL     1       5.949  -7.343   0.658  0.00  0.00    +0.132 C 
BRANCH  27  29
ATOM     28  C   UNL     1       7.719  -8.659   1.706  0.00  0.00    +0.005 C 
ATOM     29  C   UNL     1       7.356  -7.880   0.717  0.00  0.00    -0.016 C 
ENDBRANCH  27  29
ENDBRANCH  19  27
ENDBRANCH  18  23
ENDBRANCH  17  18
ENDBRANCH   1  17
TORSDOF 6
