REMARK  Name = ZINC40826428
REMARK  11 active torsions:
REMARK  status: ('A' for Active; 'I' for Inactive)
REMARK    1  A    between atoms: C_1  and  C_2
REMARK    2  A    between atoms: C_2  and  C_3
REMARK    3  A    between atoms: C_3  and  C_4
REMARK    4  A    between atoms: C_4  and  O_5
REMARK    5  A    between atoms: O_5  and  C_6
REMARK    6  A    between atoms: C_9  and  N_12
REMARK    7  A    between atoms: C_13  and  C_15
REMARK    8  A    between atoms: C_16  and  C_35
REMARK    9  A    between atoms: N_24  and  N_25
REMARK   10  A    between atoms: C_26  and  C_28
REMARK   11  A    between atoms: C_33  and  O_34
REMARK                            x       y       z     vdW  Elec       q    Type
REMARK                         _______ _______ _______ _____ _____    ______ ____
ROOT
ATOM      1  C   UNL     1       2.387  -9.913  -4.456  0.00  0.00    +0.193 A 
ATOM      2  C   UNL     1       2.901 -10.546  -5.553  0.00  0.00    +0.009 A 
ATOM      3  C   UNL     1       2.702 -11.916  -5.343  0.00  0.00    +0.042 A 
ATOM      4  C   UNL     1       2.074 -12.060  -4.128  0.00  0.00    +0.115 A 
ATOM      5  O   UNL     1       1.900 -10.847  -3.608  0.00  0.00    -0.454 OA
ATOM      6  C   UNL     1       1.687 -13.402  -3.558  0.00  0.00    +0.075 C 
ATOM      7  C   UNL     1       1.615 -14.432  -4.688  0.00  0.00    +0.014 C 
ATOM      8  C   UNL     1       2.914 -14.436  -5.500  0.00  0.00    +0.058 C 
ATOM      9  C   UNL     1       3.053 -13.083  -6.183  0.00  0.00    +0.070 C 
ATOM     10  N   UNL     1       3.450 -12.961  -7.412  0.00  0.00    -0.184 NA
ATOM     11  C   UNL     1       3.551  -9.900  -6.749  0.00  0.00    +0.048 C 
ENDROOT
BRANCH   1  13
ATOM     12  N   UNL     1       1.839  -7.960  -3.102  0.00  0.00    -0.279 N 
ATOM     13  C   UNL     1       2.372  -8.463  -4.233  0.00  0.00    +0.284 C 
ATOM     14  O   UNL     1       2.842  -7.713  -5.069  0.00  0.00    -0.266 OA
ATOM     15  H   UNL     1       1.534  -8.559  -2.402  0.00  0.00    +0.155 HD
BRANCH  12  19
ATOM     16  C   UNL     1       1.498  -3.834  -2.611  0.00  0.00    +0.121 A 
ATOM     17  C   UNL     1       1.743  -4.645  -1.513  0.00  0.00    +0.047 A 
ATOM     18  C   UNL     1       1.856  -6.012  -1.674  0.00  0.00    +0.027 A 
ATOM     19  C   UNL     1       1.724  -6.575  -2.937  0.00  0.00    +0.034 A 
ATOM     20  C   UNL     1       1.479  -5.762  -4.036  0.00  0.00    +0.027 A 
ATOM     21  C   UNL     1       1.361  -4.396  -3.872  0.00  0.00    +0.047 A 
BRANCH  16  22
ATOM     22  O   UNL     1       1.387  -2.489  -2.451  0.00  0.00    -0.492 OA
BRANCH  22  23
ATOM     23  C   UNL     1       1.540  -1.978  -1.125  0.00  0.00    +0.229 C 
BRANCH  23  24
ATOM     24  C   UNL     1       1.383  -0.456  -1.144  0.00  0.00    +0.041 C 
BRANCH  24  26
ATOM     25  C   UNL     1       1.391   1.612   0.257  0.00  0.00    +0.004 C 
ATOM     26  C   UNL     1       1.547   0.090   0.276  0.00  0.00    -0.000 C 
ENDBRANCH  24  26
ENDBRANCH  23  24
ENDBRANCH  22  23
ENDBRANCH  16  22
ENDBRANCH  12  19
ENDBRANCH   1  13
BRANCH  10  27
ATOM     27  N   UNL     1       3.770 -14.101  -8.161  0.00  0.00    -0.203 N 
ATOM     28  C   UNL     1       4.182 -13.974  -9.438  0.00  0.00    +0.267 C 
ATOM     29  O   UNL     1       4.276 -12.870  -9.940  0.00  0.00    -0.268 OA
ATOM     30  H   UNL     1       3.694 -14.981  -7.761  0.00  0.00    +0.178 HD
BRANCH  28  31
ATOM     31  C   UNL     1       4.518 -15.174 -10.227  0.00  0.00    +0.080 A 
ATOM     32  C   UNL     1       4.406 -16.444  -9.656  0.00  0.00    +0.017 A 
ATOM     33  C   UNL     1       4.721 -17.561 -10.399  0.00  0.00    +0.001 A 
ATOM     34  C   UNL     1       5.150 -17.431 -11.710  0.00  0.00    +0.004 A 
ATOM     35  C   UNL     1       5.266 -16.182 -12.286  0.00  0.00    +0.046 A 
ATOM     36  C   UNL     1       4.947 -15.047 -11.555  0.00  0.00    +0.129 A 
BRANCH  36  37
ATOM     37  O   UNL     1       5.056 -13.819 -12.122  0.00  0.00    -0.506 OA
ATOM     38  H   UNL     1       5.925 -13.410 -12.010  0.00  0.00    +0.292 HD
ENDBRANCH  36  37
ENDBRANCH  28  31
ENDBRANCH  10  27
TORSDOF 9
