REMARK  Name = ZINC21257948
REMARK  3 active torsions:
REMARK  status: ('A' for Active; 'I' for Inactive)
REMARK    1  A    between atoms: C_1  and  C_2
REMARK    2  A    between atoms: C_5  and  C_8
REMARK    3  A    between atoms: C_13  and  C_19
REMARK                            x       y       z     vdW  Elec       q    Type
REMARK                         _______ _______ _______ _____ _____    ______ ____
ROOT
ATOM      1  C   UNL     1       2.351   1.374  -0.698  0.00  0.00    +0.032 C 
ATOM      2  C   UNL     1       2.489   0.030   0.020  0.00  0.00    +0.059 C 
ATOM      3  C   UNL     1       1.164  -0.691   0.003  0.00  0.00    +0.018 C 
ATOM      4  C   UNL     1       0.002  -0.004   0.002  0.00  0.00    +0.020 C 
ATOM      5  C   UNL     1      -1.313  -0.748  -0.009  0.00  0.00    +0.063 C 
ATOM      6  C   UNL     1      -1.175  -2.035   0.804  0.00  0.00    +0.109 C 
ATOM      7  C   UNL     1       0.076  -2.759   0.376  0.00  0.00    +0.218 C 
ATOM      8  O   UNL     1       0.104  -3.971   0.377  0.00  0.00    -0.275 OA
ATOM      9  N   UNL     1       1.160  -2.063  -0.009  0.00  0.00    -0.289 N 
ATOM     10  C   UNL     1      -0.017   1.401   0.010  0.00  0.00    +0.162 C 
ATOM     11  O   UNL     1      -1.082   1.984   0.018  0.00  0.00    -0.292 OA
ATOM     12  C   UNL     1       1.262   2.194   0.002  0.00  0.00    +0.088 C 
ATOM     13  H   UNL     1       2.054  -2.612  -0.339  0.00  0.00    +0.155 HD
ENDROOT
BRANCH   1  18
ATOM     14  C   UNL     1       7.374   4.222  -0.464  0.00  0.00    +0.044 C 
ATOM     15  C   UNL     1       6.064   3.479  -0.525  0.00  0.00    -0.050 A 
ATOM     16  C   UNL     1       5.515   3.146  -1.749  0.00  0.00    +0.003 A 
ATOM     17  C   UNL     1       4.314   2.464  -1.805  0.00  0.00    +0.004 A 
ATOM     18  C   UNL     1       3.661   2.116  -0.637  0.00  0.00    -0.043 A 
ATOM     19  C   UNL     1       4.208   2.454   0.587  0.00  0.00    +0.004 A 
ATOM     20  C   UNL     1       5.412   3.131   0.643  0.00  0.00    +0.003 A 
ENDBRANCH   1  18
BRANCH   5  21
ATOM     21  C   UNL     1      -1.686  -1.088  -1.428  0.00  0.00    -0.038 A 
ATOM     22  C   UNL     1      -0.846  -1.875  -2.195  0.00  0.00    +0.004 A 
ATOM     23  C   UNL     1      -1.191  -2.192  -3.495  0.00  0.00    +0.001 A 
ATOM     24  C   UNL     1      -2.371  -1.713  -4.034  0.00  0.00    +0.015 A 
ATOM     25  C   UNL     1      -3.209  -0.922  -3.269  0.00  0.00    +0.018 A 
ATOM     26  C   UNL     1      -2.866  -0.609  -1.966  0.00  0.00    +0.019 A 
ATOM     27 BR   UNL     1      -4.822  -0.266  -4.006  0.00  0.00    -0.050 Br
ENDBRANCH   5  21
TORSDOF 2
