REMARK  Name = ZINC32666311
REMARK  5 active torsions:
REMARK  status: ('A' for Active; 'I' for Inactive)
REMARK    1  A    between atoms: C_6  and  C_7
REMARK    2  A    between atoms: N_8  and  N_9
REMARK    3  A    between atoms: C_10  and  C_12
REMARK    4  A    between atoms: C_15  and  S_18
REMARK    5  A    between atoms: S_18  and  N_21
REMARK                            x       y       z     vdW  Elec       q    Type
REMARK                         _______ _______ _______ _____ _____    ______ ____
ROOT
ATOM      1  C   UNL     1       1.145   6.216   0.332  0.00  0.00    +0.038 A 
ATOM      2  C   UNL     1       2.356   5.554   0.118  0.00  0.00    +0.015 A 
ATOM      3  C   UNL     1       3.537   6.268   0.112  0.00  0.00    +0.029 A 
ATOM      4  C   UNL     1       3.523   7.635   0.328  0.00  0.00    +0.106 A 
ATOM      5  C   UNL     1       2.327   8.296   0.546  0.00  0.00    +0.029 A 
ATOM      6  C   UNL     1       1.139   7.595   0.549  0.00  0.00    +0.015 A 
ENDROOT
BRANCH   1   8
ATOM      7  N   UNL     1      -0.115   4.127   0.123  0.00  0.00    -0.203 N 
ATOM      8  C   UNL     1      -0.124   5.459   0.333  0.00  0.00    +0.263 C 
ATOM      9  O   UNL     1      -1.177   6.037   0.524  0.00  0.00    -0.268 OA
ATOM     10  H   UNL     1       0.838   3.604  -0.049  0.00  0.00    +0.178 HD
BRANCH   7  12
ATOM     11  C   UNL     1      -1.301   2.114   0.051  0.00  0.00    +0.138 C 
ATOM     12  N   UNL     1      -1.318   3.409   0.125  0.00  0.00    -0.187 NA
BRANCH  11  18
ATOM     13  C   UNL     1       0.040   0.021   0.181  0.00  0.00    +0.010 A 
ATOM     14  C   UNL     1       1.139  -0.676   0.637  0.00  0.00    +0.016 A 
ATOM     15  C   UNL     1       2.077  -0.049   1.439  0.00  0.00    +0.018 A 
ATOM     16  C   UNL     1       1.920   1.282   1.788  0.00  0.00    +0.016 A 
ATOM     17  C   UNL     1       0.826   1.991   1.339  0.00  0.00    +0.010 A 
ATOM     18  C   UNL     1      -0.125   1.364   0.530  0.00  0.00    -0.005 A 
ATOM     19 BR   UNL     1       3.581  -1.014   2.060  0.00  0.00    -0.050 Br
ENDBRANCH  11  18
ENDBRANCH   7  12
ENDBRANCH   1   8
BRANCH   4  20
ATOM     20  S   UNL     1       5.037   8.537   0.327  0.00  0.00    +0.061 S 
ATOM     21  O   UNL     1       5.961   7.779  -0.440  0.00  0.00    -0.153 OA
ATOM     22  O   UNL     1       4.707   9.883   0.010  0.00  0.00    -0.153 OA
BRANCH  20  23
ATOM     23  N   UNL     1       5.605   8.543   1.882  0.00  0.00    -0.177 NA
ATOM     24  C   UNL     1       5.229   9.617   2.812  0.00  0.00    +0.109 C 
ATOM     25  C   UNL     1       4.647   8.981   4.083  0.00  0.00    +0.017 C 
ATOM     26  C   UNL     1       5.654   7.980   4.654  0.00  0.00    +0.003 C 
ATOM     27  C   UNL     1       5.906   6.869   3.632  0.00  0.00    +0.017 C 
ATOM     28  C   UNL     1       6.498   7.478   2.357  0.00  0.00    +0.109 C 
ENDBRANCH  20  23
ENDBRANCH   4  20
TORSDOF 5
