REMARK  Name = ZINC02927162
REMARK  6 active torsions:
REMARK  status: ('A' for Active; 'I' for Inactive)
REMARK    1  A    between atoms: C_1  and  C_2
REMARK    2  A    between atoms: C_3  and  C_29
REMARK    3  A    between atoms: C_4  and  C_22
REMARK    4  A    between atoms: C_10  and  C_15
REMARK    5  A    between atoms: C_29  and  O_31
REMARK    6  A    between atoms: O_31  and  C_32
REMARK                            x       y       z     vdW  Elec       q    Type
REMARK                         _______ _______ _______ _____ _____    ______ ____
ROOT
ATOM      1  C   UNL     1       4.801   4.114  -0.757  0.00  0.00    +0.061 C 
ATOM      2  C   UNL     1       3.587   3.307  -0.373  0.00  0.00    +0.016 C 
ATOM      3  C   UNL     1       3.557   1.987  -0.624  0.00  0.00    +0.065 C 
ATOM      4  C   UNL     1       2.369   1.150  -0.248  0.00  0.00    +0.094 C 
ATOM      5  C   UNL     1       1.157   2.012   0.002  0.00  0.00    +0.024 C 
ATOM      6  C   UNL     1       1.287   3.337   0.226  0.00  0.00    +0.016 C 
ATOM      7  N   UNL     1       2.525   3.922   0.228  0.00  0.00    -0.321 N 
ATOM      8  C   UNL     1       0.079   4.206   0.473  0.00  0.00    +0.059 C 
ATOM      9  C   UNL     1      -1.016   3.383   1.155  0.00  0.00    +0.032 C 
ATOM     10  C   UNL     1      -1.360   2.192   0.251  0.00  0.00    +0.088 C 
ATOM     11  C   UNL     1      -0.108   1.398  -0.004  0.00  0.00    +0.162 C 
ATOM     12  O   UNL     1      -0.191   0.206  -0.224  0.00  0.00    -0.292 OA
ATOM     13  H   UNL     1       2.660   4.897   0.719  0.00  0.00    +0.152 HD
ENDROOT
BRANCH   9  14
ATOM     14  C   UNL     1      -2.241   4.237   1.354  0.00  0.00    -0.043 A 
ATOM     15  C   UNL     1      -2.875   4.801   0.263  0.00  0.00    +0.005 A 
ATOM     16  C   UNL     1      -4.002   5.580   0.444  0.00  0.00    +0.020 A 
ATOM     17  C   UNL     1      -4.490   5.805   1.719  0.00  0.00    +0.041 A 
ATOM     18  C   UNL     1      -3.851   5.245   2.812  0.00  0.00    +0.020 A 
ATOM     19  C   UNL     1      -2.728   4.462   2.629  0.00  0.00    +0.005 A 
ATOM     20 CL   UNL     1      -5.902   6.788   1.948  0.00  0.00    -0.084 Cl
ENDBRANCH   9  14
BRANCH   4  21
ATOM     21  C   UNL     1       2.688   0.371   1.002  0.00  0.00    -0.017 A 
ATOM     22  C   UNL     1       2.984   1.039   2.176  0.00  0.00    +0.006 A 
ATOM     23  C   UNL     1       3.277   0.325   3.323  0.00  0.00    +0.000 A 
ATOM     24  C   UNL     1       3.274  -1.057   3.297  0.00  0.00    +0.001 A 
ATOM     25  C   UNL     1       2.979  -1.726   2.124  0.00  0.00    +0.020 A 
ATOM     26  C   UNL     1       2.680  -1.012   0.977  0.00  0.00    +0.045 A 
ATOM     27 CL   UNL     1       2.302  -1.851  -0.495  0.00  0.00    -0.083 Cl
ENDBRANCH   4  21
BRANCH   3  28
ATOM     28  C   UNL     1       4.665   1.374  -1.254  0.00  0.00    +0.338 C 
ATOM     29  O   UNL     1       5.580   2.058  -1.675  0.00  0.00    -0.245 OA
BRANCH  28  30
ATOM     30  O   UNL     1       4.707   0.032  -1.390  0.00  0.00    -0.458 OA
BRANCH  30  31
ATOM     31  C   UNL     1       5.856  -0.518  -2.037  0.00  0.00    +0.177 C 
ATOM     32  C   UNL     1       5.601  -0.607  -3.543  0.00  0.00    +0.044 C 
ATOM     33  C   UNL     1       6.831  -1.196  -4.235  0.00  0.00    +0.004 C 
ATOM     34  C   UNL     1       7.106  -2.596  -3.682  0.00  0.00    +0.000 C 
ATOM     35  C   UNL     1       7.362  -2.507  -2.176  0.00  0.00    +0.004 C 
ATOM     36  C   UNL     1       6.132  -1.918  -1.483  0.00  0.00    +0.044 C 
ENDBRANCH  30  31
ENDBRANCH  28  30
ENDBRANCH   3  28
TORSDOF 5
