REMARK  Name = ZINC15978937
REMARK  8 active torsions:
REMARK  status: ('A' for Active; 'I' for Inactive)
REMARK    1  A    between atoms: C_1  and  C_2
REMARK    2  A    between atoms: C_5  and  S_8
REMARK    3  A    between atoms: S_8  and  C_9
REMARK    4  A    between atoms: C_9  and  C_10
REMARK    5  A    between atoms: C_15  and  N_17
REMARK    6  A    between atoms: N_20  and  C_21
REMARK    7  A    between atoms: C_26  and  S_27
REMARK    8  A    between atoms: S_27  and  C_28
REMARK                            x       y       z     vdW  Elec       q    Type
REMARK                         _______ _______ _______ _____ _____    ______ ____
ROOT
ATOM      1  N   UNL     1      -2.098  -9.150   1.977  0.00  0.00    -0.179 NA
ATOM      2  C   UNL     1      -2.175 -10.455   2.174  0.00  0.00    +0.203 C 
ATOM      3  N   UNL     1      -1.072 -11.150   2.584  0.00  0.00    -0.369 N 
ATOM      4  N   UNL     1      -3.356 -11.109   1.968  0.00  0.00    -0.325 N 
ATOM      5  H   UNL     1      -0.522 -10.805   3.305  0.00  0.00    +0.159 HD
ATOM      6  H   UNL     1      -3.392 -12.077   2.027  0.00  0.00    +0.169 HD
ATOM      7  H   UNL     1      -0.839 -11.988   2.154  0.00  0.00    +0.159 HD
ENDROOT
BRANCH   1  13
ATOM      8  C   UNL     1       0.379  -6.561   1.742  0.00  0.00    +0.034 A 
ATOM      9  C   UNL     1       1.493  -7.258   2.051  0.00  0.00    +0.094 A 
ATOM     10  C   UNL     1       1.381  -8.642   2.345  0.00  0.00    +0.275 A 
ATOM     11  O   UNL     1       2.377  -9.291   2.628  0.00  0.00    -0.266 OA
ATOM     12  N   UNL     1       0.181  -9.231   2.311  0.00  0.00    -0.173 NA
ATOM     13  C   UNL     1      -0.904  -8.536   2.006  0.00  0.00    +0.234 A 
ATOM     14  N   UNL     1      -0.828  -7.201   1.724  0.00  0.00    -0.327 N 
ATOM     15  H   UNL     1      -1.633  -6.706   1.507  0.00  0.00    +0.169 HD
BRANCH   8  16
ATOM     16  C   UNL     1       0.465  -5.090   1.425  0.00  0.00    +0.127 C 
BRANCH  16  17
ATOM     17  S   UNL     1       0.275  -4.844  -0.362  0.00  0.00    -0.119 S 
BRANCH  17  22
ATOM     18  C   UNL     1       0.691   1.137  -1.065  0.00  0.00    +0.044 C 
ATOM     19  C   UNL     1       0.588  -0.357  -0.889  0.00  0.00    -0.050 A 
ATOM     20  C   UNL     1       0.390  -1.169  -1.991  0.00  0.00    +0.004 A 
ATOM     21  C   UNL     1       0.294  -2.537  -1.834  0.00  0.00    +0.015 A 
ATOM     22  C   UNL     1       0.397  -3.098  -0.567  0.00  0.00    +0.008 A 
ATOM     23  C   UNL     1       0.596  -2.279   0.538  0.00  0.00    +0.015 A 
ATOM     24  C   UNL     1       0.696  -0.912   0.372  0.00  0.00    +0.004 A 
ENDBRANCH  17  22
ENDBRANCH  16  17
ENDBRANCH   8  16
ENDBRANCH   1  13
BRANCH   4  25
ATOM     25  C   UNL     1      -4.517 -10.383   1.671  0.00  0.00    +0.056 A 
ATOM     26  C   UNL     1      -4.455  -9.291   0.818  0.00  0.00    +0.027 A 
ATOM     27  C   UNL     1      -5.601  -8.575   0.527  0.00  0.00    +0.002 A 
ATOM     28  C   UNL     1      -6.812  -8.944   1.084  0.00  0.00    +0.001 A 
ATOM     29  C   UNL     1      -6.883 -10.030   1.936  0.00  0.00    +0.017 A 
ATOM     30  C   UNL     1      -5.739 -10.758   2.229  0.00  0.00    +0.036 A 
BRANCH  30  31
ATOM     31  S   UNL     1      -5.829 -12.148   3.308  0.00  0.00    -0.087 S 
BRANCH  31  32
ATOM     32  C   UNL     1      -7.551 -12.323   3.636  0.00  0.00    +0.013 A 
ATOM     33  C   UNL     1      -8.329 -13.161   2.846  0.00  0.00    +0.015 A 
ATOM     34  C   UNL     1      -9.678 -13.296   3.107  0.00  0.00    +0.001 A 
ATOM     35  C   UNL     1     -10.256 -12.598   4.152  0.00  0.00    +0.000 A 
ATOM     36  C   UNL     1      -9.485 -11.762   4.940  0.00  0.00    +0.001 A 
ATOM     37  C   UNL     1      -8.133 -11.627   4.689  0.00  0.00    +0.015 A 
ENDBRANCH  31  32
ENDBRANCH  30  31
ENDBRANCH   4  25
TORSDOF 7
