REMARK  Name = ZINC65076176
REMARK  5 active torsions:
REMARK  status: ('A' for Active; 'I' for Inactive)
REMARK    1  A    between atoms: C_10  and  C_12
REMARK    2  A    between atoms: N_18  and  C_20
REMARK    3  A    between atoms: C_20  and  C_21
REMARK    4  A    between atoms: N_23  and  C_24
REMARK    5  A    between atoms: C_24  and  C_25
REMARK                            x       y       z     vdW  Elec       q    Type
REMARK                         _______ _______ _______ _____ _____    ______ ____
ROOT
ATOM      1  C   UNL     1       5.137   1.002  -0.158  0.00  0.00    +0.182 C 
ATOM      2  C   UNL     1       4.470   1.583  -1.380  0.00  0.00    +0.007 C 
ATOM      3  C   UNL     1       5.015   2.657  -1.958  0.00  0.00    +0.066 C 
ATOM      4  C   UNL     1       6.247   3.209  -1.361  0.00  0.00    +0.253 C 
ATOM      5  O   UNL     1       6.607   4.341  -1.621  0.00  0.00    -0.269 OA
ATOM      6  N   UNL     1       6.966   2.436  -0.522  0.00  0.00    -0.224 N 
ATOM      7  N   UNL     1       6.591   1.153  -0.264  0.00  0.00    -0.221 NA
ATOM      8  H   UNL     1       6.971   0.518  -0.950  0.00  0.00    +0.146 HD
ENDROOT
BRANCH   1  18
ATOM      9  C   UNL     1       1.926  -4.605   1.014  0.00  0.00    +0.000 A 
ATOM     10  C   UNL     1       3.118  -4.539   0.314  0.00  0.00    +0.002 A 
ATOM     11  C   UNL     1       3.747  -3.327   0.128  0.00  0.00    +0.024 A 
ATOM     12  C   UNL     1       3.187  -2.157   0.643  0.00  0.00    +0.040 A 
ATOM     13  C   UNL     1       1.993  -2.233   1.342  0.00  0.00    -0.024 A 
ATOM     14  C   UNL     1       1.366  -3.450   1.527  0.00  0.00    +0.005 A 
ATOM     15  C   UNL     1       1.606  -0.841   1.788  0.00  0.00    +0.056 C 
ATOM     16  C   UNL     1       2.732   0.062   1.258  0.00  0.00    +0.118 C 
ATOM     17  N   UNL     1       3.656  -0.842   0.568  0.00  0.00    -0.269 N 
ATOM     18  C   UNL     1       4.793  -0.461  -0.049  0.00  0.00    +0.242 C 
ATOM     19  O   UNL     1       5.538  -1.296  -0.515  0.00  0.00    -0.273 OA
ENDBRANCH   1  18
BRANCH   6  20
ATOM     20  C   UNL     1       8.166   2.983   0.116  0.00  0.00    +0.222 C 
BRANCH  20  21
ATOM     21  C   UNL     1       9.344   2.827  -0.811  0.00  0.00    +0.232 C 
ATOM     22  O   UNL     1       9.195   2.311  -1.899  0.00  0.00    -0.274 OA
ATOM     23  N   UNL     1      10.562   3.263  -0.432  0.00  0.00    -0.310 N 
ATOM     24  H   UNL     1      10.680   3.676   0.437  0.00  0.00    +0.149 HD
BRANCH  23  25
ATOM     25  C   UNL     1      11.706   3.112  -1.334  0.00  0.00    +0.151 C 
BRANCH  25  26
ATOM     26  C   UNL     1      12.959   3.683  -0.667  0.00  0.00    +0.191 C 
ATOM     27  N   UNL     1      13.193   3.017   0.621  0.00  0.00    -0.362 N 
ATOM     28  C   UNL     1      13.143   3.930   1.547  0.00  0.00    +0.060 A 
ATOM     29  C   UNL     1      13.297   3.881   3.007  0.00  0.00    +0.027 A 
ATOM     30  C   UNL     1      13.191   5.016   3.726  0.00  0.00    +0.002 A 
ATOM     31  C   UNL     1      12.935   6.266   3.135  0.00  0.00    +0.002 A 
ATOM     32  C   UNL     1      12.777   6.423   1.806  0.00  0.00    +0.027 A 
ATOM     33  C   UNL     1      12.872   5.253   0.921  0.00  0.00    +0.060 A 
ATOM     34  N   UNL     1      12.766   5.108  -0.368  0.00  0.00    -0.362 N 
ATOM     35  H   UNL     1      13.355   2.071   0.756  0.00  0.00    +0.162 HD
ATOM     36  H   UNL     1      12.591   5.811  -1.012  0.00  0.00    +0.162 HD
ENDBRANCH  25  26
ENDBRANCH  23  25
ENDBRANCH  20  21
ENDBRANCH   6  20
TORSDOF 5
