REMARK  Name = ZINC51893704
REMARK  5 active torsions:
REMARK  status: ('A' for Active; 'I' for Inactive)
REMARK    1  A    between atoms: C_3  and  N_18
REMARK    2  A    between atoms: C_5  and  C_6
REMARK    3  A    between atoms: C_12  and  C_15
REMARK    4  A    between atoms: C_15  and  C_16
REMARK    5  A    between atoms: C_16  and  O_17
REMARK                            x       y       z     vdW  Elec       q    Type
REMARK                         _______ _______ _______ _____ _____    ______ ____
ROOT
ATOM      1  C   UNL     1      -1.123  -0.943   0.008  0.00  0.00    +0.253 C 
ATOM      2  O   UNL     1      -2.260  -0.530   0.142  0.00  0.00    -0.269 OA
ATOM      3  N   UNL     1      -0.896  -2.267  -0.103  0.00  0.00    -0.297 N 
ATOM      4  C   UNL     1       0.475  -2.793  -0.115  0.00  0.00    +0.108 C 
ATOM      5  C   UNL     1       0.599  -3.873   0.965  0.00  0.00    +0.019 C 
ATOM      6  C   UNL     1      -0.483  -4.933   0.748  0.00  0.00    +0.006 C 
ATOM      7  C   UNL     1      -1.865  -4.286   0.867  0.00  0.00    +0.009 C 
ATOM      8  C   UNL     1      -2.017  -3.212  -0.208  0.00  0.00    +0.111 C 
ENDROOT
BRANCH   1  13
ATOM      9  C   UNL     1       0.066   1.300   0.442  0.00  0.00    +0.023 A 
ATOM     10  C   UNL     1       1.268   1.941   0.259  0.00  0.00    +0.041 A 
ATOM     11  C   UNL     1       2.280   1.280  -0.355  0.00  0.00    +0.164 A 
ATOM     12  S   UNL     1       1.635  -0.231  -0.703  0.00  0.00    -0.060 S 
ATOM     13  C   UNL     1      -0.001  -0.002  -0.032  0.00  0.00    +0.076 A 
BRANCH  11  14
ATOM     14  N   UNL     1       3.643   1.778  -0.650  0.00  0.00    +0.063 N 
ATOM     15  O   UNL     1       3.958   2.901  -0.334  0.00  0.00    -0.126 OA
ATOM     16  O   UNL     1       4.440   1.060  -1.208  0.00  0.00    -0.126 OA
ENDBRANCH  11  14
ENDBRANCH   1  13
BRANCH   7  17
ATOM     17  C   UNL     1      -2.946  -5.353   0.683  0.00  0.00    +0.033 C 
BRANCH  17  18
ATOM     18  C   UNL     1      -4.322  -4.732   0.925  0.00  0.00    +0.156 C 
BRANCH  18  19
ATOM     19  O   UNL     1      -5.332  -5.729   0.753  0.00  0.00    -0.395 OA
ATOM     20  H   UNL     1      -6.232  -5.404   0.892  0.00  0.00    +0.209 HD
ENDBRANCH  18  19
ENDBRANCH  17  18
ENDBRANCH   7  17
TORSDOF 5
