REMARK  Name = ZINC20886413
REMARK  8 active torsions:
REMARK  status: ('A' for Active; 'I' for Inactive)
REMARK    1  A    between atoms: C_1  and  C_2
REMARK    2  A    between atoms: C_2  and  O_3
REMARK    3  A    between atoms: O_3  and  C_4
REMARK    4  A    between atoms: C_7  and  C_12
REMARK    5  A    between atoms: C_9  and  O_10
REMARK    6  A    between atoms: O_10  and  C_11
REMARK    7  A    between atoms: C_17  and  C_22
REMARK    8  A    between atoms: C_25  and  C_28
REMARK                            x       y       z     vdW  Elec       q    Type
REMARK                         _______ _______ _______ _____ _____    ______ ____
ROOT
ATOM      1  C   UNL     1       1.137  -2.178   0.677  0.00  0.00    +0.136 C 
ATOM      2  C   UNL     1       0.919  -0.692   0.511  0.00  0.00    +0.036 C 
ATOM      3  C   UNL     1      -0.122  -0.114  -0.112  0.00  0.00    +0.017 C 
ATOM      4  C   UNL     1      -0.221   1.400  -0.203  0.00  0.00    +0.059 C 
ATOM      5  C   UNL     1       1.178   2.009  -0.286  0.00  0.00    +0.032 C 
ATOM      6  C   UNL     1       1.940   1.600   0.980  0.00  0.00    +0.088 C 
ATOM      7  C   UNL     1       1.944   0.104   1.073  0.00  0.00    +0.163 C 
ATOM      8  O   UNL     1       2.861  -0.445   1.653  0.00  0.00    -0.292 OA
ATOM      9  N   UNL     1      -1.153  -0.787  -0.684  0.00  0.00    -0.316 N 
ATOM     10  C   UNL     1      -1.015  -1.887  -1.523  0.00  0.00    +0.052 A 
ATOM     11  C   UNL     1      -1.389  -1.855  -2.855  0.00  0.00    +0.025 A 
ATOM     12  C   UNL     1      -1.269  -3.001  -3.622  0.00  0.00    +0.002 A 
ATOM     13  C   UNL     1      -0.783  -4.168  -3.061  0.00  0.00    +0.002 A 
ATOM     14  C   UNL     1      -0.393  -4.197  -1.733  0.00  0.00    +0.025 A 
ATOM     15  C   UNL     1      -0.491  -3.046  -0.970  0.00  0.00    +0.049 A 
ATOM     16  N   UNL     1      -0.007  -2.996   0.337  0.00  0.00    -0.331 N 
ATOM     17  H   UNL     1      -2.189  -0.471  -0.496  0.00  0.00    +0.152 HD
ATOM     18  H   UNL     1      -0.508  -3.591   1.114  0.00  0.00    +0.147 HD
ENDROOT
BRANCH   5  19
ATOM     19  C   UNL     1       1.077   3.510  -0.360  0.00  0.00    -0.043 A 
ATOM     20  C   UNL     1       0.468   4.214   0.662  0.00  0.00    +0.004 A 
ATOM     21  C   UNL     1       0.379   5.591   0.596  0.00  0.00    +0.003 A 
ATOM     22  C   UNL     1       0.893   6.266  -0.496  0.00  0.00    -0.050 A 
ATOM     23  C   UNL     1       1.498   5.562  -1.520  0.00  0.00    +0.003 A 
ATOM     24  C   UNL     1       1.590   4.185  -1.452  0.00  0.00    +0.004 A 
ATOM     25  C   UNL     1       0.793   7.768  -0.569  0.00  0.00    +0.044 C 
ENDBRANCH   5  19
BRANCH   1  29
ATOM     26  C   UNL     1       4.418  -3.336  -1.809  0.00  0.00    +0.162 A 
ATOM     27  C   UNL     1       3.248  -2.859  -2.378  0.00  0.00    +0.050 A 
ATOM     28  C   UNL     1       2.189  -2.486  -1.572  0.00  0.00    +0.009 A 
ATOM     29  C   UNL     1       2.295  -2.587  -0.197  0.00  0.00    -0.019 A 
ATOM     30  C   UNL     1       3.461  -3.057   0.377  0.00  0.00    +0.055 A 
ATOM     31  C   UNL     1       4.524  -3.438  -0.426  0.00  0.00    +0.162 A 
BRANCH  31  32
ATOM     32  O   UNL     1       5.670  -3.905   0.138  0.00  0.00    -0.491 OA
ATOM     33  C   UNL     1       5.707  -3.982   1.564  0.00  0.00    +0.277 C 
ENDBRANCH  31  32
BRANCH  26  34
ATOM     34  O   UNL     1       5.461  -3.703  -2.601  0.00  0.00    -0.489 OA
BRANCH  34  36
ATOM     35  C   UNL     1       6.551  -4.029  -4.734  0.00  0.00    +0.048 C 
ATOM     36  C   UNL     1       5.282  -3.571  -4.013  0.00  0.00    +0.226 C 
ENDBRANCH  34  36
ENDBRANCH  26  34
ENDBRANCH   1  29
TORSDOF 5
