REMARK  Name = ZINC12136589
REMARK  8 active torsions:
REMARK  status: ('A' for Active; 'I' for Inactive)
REMARK    1  A    between atoms: C_1  and  C_2
REMARK    2  A    between atoms: C_8  and  N_10
REMARK    3  A    between atoms: C_14  and  C_16
REMARK    4  A    between atoms: C_16  and  S_17
REMARK    5  A    between atoms: S_17  and  C_18
REMARK    6  A    between atoms: C_21  and  C_30
REMARK    7  A    between atoms: N_22  and  C_23
REMARK    8  A    between atoms: C_30  and  N_67
REMARK                            x       y       z     vdW  Elec       q    Type
REMARK                         _______ _______ _______ _____ _____    ______ ____
ROOT
ATOM      1  C   UNL     1       8.455   7.532  -2.873  0.00  0.00    +0.197 A 
ATOM      2  N   UNL     1       9.385   6.744  -2.386  0.00  0.00    -0.122 NA
ATOM      3  N   UNL     1      10.532   7.318  -2.467  0.00  0.00    -0.135 NA
ATOM      4  C   UNL     1      10.404   8.502  -2.996  0.00  0.00    +0.122 A 
ATOM      5  N   UNL     1       9.075   8.683  -3.274  0.00  0.00    -0.276 N 
ENDROOT
BRANCH   5   6
ATOM      6  C   UNL     1       8.476   9.813  -3.851  0.00  0.00    +0.050 A 
ATOM      7  C   UNL     1       8.787  10.176  -5.154  0.00  0.00    +0.029 A 
ATOM      8  C   UNL     1       8.191  11.285  -5.722  0.00  0.00    +0.040 A 
ATOM      9  C   UNL     1       7.293  12.041  -4.988  0.00  0.00    +0.124 A 
ATOM     10  C   UNL     1       6.986  11.684  -3.686  0.00  0.00    +0.040 A 
ATOM     11  C   UNL     1       7.575  10.572  -3.117  0.00  0.00    +0.029 A 
ATOM     12  F   UNL     1       6.715  13.129  -5.544  0.00  0.00    -0.205 F 
ENDBRANCH   5   6
BRANCH   1  13
ATOM     13  S   UNL     1       6.732   7.178  -2.981  0.00  0.00    -0.076 S 
BRANCH  13  14
ATOM     14  C   UNL     1       6.708   5.514  -2.268  0.00  0.00    +0.173 C 
BRANCH  14  19
ATOM     15  N   UNL     1       3.507   2.069  -1.270  0.00  0.00    -0.296 N 
ATOM     16  C   UNL     1       3.769   3.297  -1.759  0.00  0.00    +0.306 C 
ATOM     17  O   UNL     1       2.864   3.984  -2.191  0.00  0.00    -0.252 OA
ATOM     18  N   UNL     1       5.033   3.764  -1.768  0.00  0.00    -0.239 N 
ATOM     19  C   UNL     1       5.295   4.992  -2.258  0.00  0.00    +0.231 C 
ATOM     20  O   UNL     1       4.392   5.678  -2.689  0.00  0.00    -0.274 OA
ATOM     21  H   UNL     1       4.229   1.521  -0.924  0.00  0.00    +0.151 HD
ATOM     22  H   UNL     1       5.755   3.216  -1.423  0.00  0.00    +0.159 HD
BRANCH  15  29
ATOM     23  C   UNL     1       2.870  -0.461  -2.526  0.00  0.00    +0.009 C 
ATOM     24  C   UNL     1       2.154   0.032  -1.268  0.00  0.00    +0.006 C 
ATOM     25  C   UNL     1       0.718  -0.497  -1.257  0.00  0.00    +0.005 C 
ATOM     26  C   UNL     1       0.002  -0.004   0.002  0.00  0.00    +0.000 C 
ATOM     27  C   UNL     1      -0.019   1.526   0.010  0.00  0.00    +0.002 C 
ATOM     28  C   UNL     1       1.417   2.055  -0.000  0.00  0.00    +0.022 C 
ATOM     29  C   UNL     1       2.133   1.562  -1.259  0.00  0.00    +0.077 C 
ENDBRANCH  15  29
ENDBRANCH  14  19
ENDBRANCH  13  14
ENDBRANCH   1  13
BRANCH   4  30
ATOM     30  C   UNL     1      11.513   9.490  -3.253  0.00  0.00    -0.001 C 
BRANCH  30  36
ATOM     31  C   UNL     1      10.498  11.196  -1.867  0.00  0.00    -0.078 C 
ATOM     32  C   UNL     1      10.648  11.972  -0.556  0.00  0.00    -0.019 C 
ATOM     33  C   UNL     1      11.909  12.838  -0.623  0.00  0.00    -0.004 C 
ATOM     34  C   UNL     1      13.121  11.942  -0.891  0.00  0.00    -0.019 C 
ATOM     35  C   UNL     1      12.899  11.167  -2.191  0.00  0.00    -0.078 C 
ATOM     36  N   UNL     1      11.685  10.335  -2.053  0.00  0.00    +0.384 N 
ATOM     37  H   UNL     1      11.789   9.728  -1.231  0.00  0.00    -0.081 HD
ENDBRANCH  30  36
ENDBRANCH   4  30
TORSDOF 7
