REMARK  Name = ZINC07960221
REMARK  9 active torsions:
REMARK  status: ('A' for Active; 'I' for Inactive)
REMARK    1  A    between atoms: C_1  and  C_2
REMARK    2  A    between atoms: C_3  and  C_23
REMARK    3  A    between atoms: C_4  and  C_13
REMARK    4  A    between atoms: N_9  and  C_10
REMARK    5  A    between atoms: C_16  and  C_19
REMARK    6  A    between atoms: C_19  and  O_21
REMARK    7  A    between atoms: O_21  and  C_22
REMARK    8  A    between atoms: C_23  and  O_25
REMARK    9  A    between atoms: O_25  and  C_26
REMARK                            x       y       z     vdW  Elec       q    Type
REMARK                         _______ _______ _______ _____ _____    ______ ____
ROOT
ATOM      1  C   UNL     1       1.259   3.560   0.583  0.00  0.00    +0.061 C 
ATOM      2  C   UNL     1       1.240   2.086   0.272  0.00  0.00    +0.022 C 
ATOM      3  C   UNL     1       2.398   1.452  -0.016  0.00  0.00    +0.078 C 
ATOM      4  C   UNL     1       2.333  -0.031  -0.322  0.00  0.00    +0.141 C 
ATOM      5  N   UNL     1       1.004  -0.663  -0.281  0.00  0.00    -0.315 N 
ATOM      6  C   UNL     1      -0.062   0.104   0.023  0.00  0.00    +0.138 C 
ATOM      7  S   UNL     1      -1.613  -0.617   0.075  0.00  0.00    -0.018 S 
ATOM      8  N   UNL     1       0.053   1.412   0.286  0.00  0.00    -0.283 N 
ATOM      9  H   UNL     1       0.898  -1.609  -0.468  0.00  0.00    +0.149 HD
ENDROOT
BRANCH   4  10
ATOM     10  C   UNL     1       2.908  -0.246  -1.698  0.00  0.00    -0.023 A 
ATOM     11  C   UNL     1       2.089  -0.148  -2.809  0.00  0.00    +0.006 A 
ATOM     12  C   UNL     1       2.609  -0.338  -4.073  0.00  0.00    +0.015 A 
ATOM     13  C   UNL     1       3.963  -0.643  -4.228  0.00  0.00    +0.059 A 
ATOM     14  C   UNL     1       4.782  -0.746  -3.102  0.00  0.00    +0.015 A 
ATOM     15  C   UNL     1       4.250  -0.547  -1.845  0.00  0.00    +0.006 A 
BRANCH  13  16
ATOM     16  C   UNL     1       4.525  -0.855  -5.577  0.00  0.00    +0.339 C 
ATOM     17  O   UNL     1       5.703  -1.120  -5.709  0.00  0.00    -0.245 OA
BRANCH  16  18
ATOM     18  O   UNL     1       3.732  -0.755  -6.662  0.00  0.00    -0.464 OA
ATOM     19  C   UNL     1       4.353  -0.976  -7.955  0.00  0.00    +0.280 C 
ENDBRANCH  16  18
ENDBRANCH  13  16
ENDBRANCH   4  10
BRANCH   8  20
ATOM     20  C   UNL     1      -1.164   2.164   0.601  0.00  0.00    +0.080 C 
ATOM     21  C   UNL     1      -2.364   1.986  -0.331  0.00  0.00    +0.025 C 
ATOM     22  C   UNL     1      -1.565   3.291  -0.353  0.00  0.00    +0.025 C 
ENDBRANCH   8  20
BRANCH   3  23
ATOM     23  C   UNL     1       3.629   2.148  -0.030  0.00  0.00    +0.339 C 
ATOM     24  O   UNL     1       3.645   3.357   0.109  0.00  0.00    -0.245 OA
BRANCH  23  25
ATOM     25  O   UNL     1       4.785   1.473  -0.197  0.00  0.00    -0.465 OA
ATOM     26  C   UNL     1       5.990   2.240  -0.202  0.00  0.00    +0.280 C 
ENDBRANCH  23  25
ENDBRANCH   3  23
TORSDOF 6
