REMARK  Name = ZINC63830734
REMARK  8 active torsions:
REMARK  status: ('A' for Active; 'I' for Inactive)
REMARK    1  A    between atoms: C_7  and  C_10
REMARK    2  A    between atoms: C_10  and  C_11
REMARK    3  A    between atoms: C_11  and  C_12
REMARK    4  A    between atoms: C_12  and  C_13
REMARK    5  A    between atoms: N_18  and  C_21
REMARK    6  A    between atoms: C_21  and  C_22
REMARK    7  A    between atoms: N_24  and  C_25
REMARK    8  A    between atoms: C_30  and  C_31
REMARK                            x       y       z     vdW  Elec       q    Type
REMARK                         _______ _______ _______ _____ _____    ______ ____
ROOT
ATOM      1  C   UNL     1      -0.750  -5.312  -2.851  0.00  0.00    +0.216 C 
ATOM      2  O   UNL     1      -0.196  -4.739  -3.766  0.00  0.00    -0.276 OA
ATOM      3  N   UNL     1      -1.560  -6.358  -3.103  0.00  0.00    -0.299 N 
ATOM      4  C   UNL     1      -2.246  -7.063  -2.009  0.00  0.00    +0.123 C 
ATOM      5  C   UNL     1      -1.977  -8.564  -2.152  0.00  0.00    +0.104 C 
ATOM      6  N   UNL     1      -2.355  -8.999  -3.504  0.00  0.00    -0.291 NA
ATOM      7  C   UNL     1      -1.533  -8.338  -4.526  0.00  0.00    +0.104 C 
ATOM      8  C   UNL     1      -1.788  -6.823  -4.479  0.00  0.00    +0.123 C 
ENDROOT
BRANCH   1   9
ATOM      9  C   UNL     1      -0.531  -4.852  -1.432  0.00  0.00    +0.096 C 
BRANCH   9  10
ATOM     10  C   UNL     1       0.424  -3.657  -1.425  0.00  0.00    +0.014 C 
BRANCH  10  11
ATOM     11  C   UNL     1       0.647  -3.191   0.015  0.00  0.00    +0.033 C 
BRANCH  11  18
ATOM     12  C   UNL     1      -0.061   1.343   0.048  0.00  0.00    +0.001 A 
ATOM     13  C   UNL     1       1.121   2.096   0.051  0.00  0.00    +0.002 A 
ATOM     14  C   UNL     1       2.346   1.530   0.046  0.00  0.00    +0.026 A 
ATOM     15  C   UNL     1       2.485   0.115   0.036  0.00  0.00    +0.043 A 
ATOM     16  N   UNL     1       3.543  -0.659   0.028  0.00  0.00    -0.380 N 
ATOM     17  C   UNL     1       3.099  -2.058   0.019  0.00  0.00    +0.144 C 
ATOM     18  C   UNL     1       1.588  -2.014   0.022  0.00  0.00    -0.042 C 
ATOM     19  C   UNL     1       1.251  -0.704   0.032  0.00  0.00    -0.001 A 
ATOM     20  C   UNL     1      -0.042  -0.010   0.039  0.00  0.00    +0.010 A 
ATOM     21  H   UNL     1       4.465  -0.357   0.028  0.00  0.00    +0.160 HD
ENDBRANCH  11  18
ENDBRANCH  10  11
ENDBRANCH   9  10
ENDBRANCH   1   9
BRANCH   6  22
ATOM     22  C   UNL     1      -2.275 -10.460  -3.628  0.00  0.00    +0.180 C 
BRANCH  22  23
ATOM     23  C   UNL     1      -2.898 -10.888  -4.932  0.00  0.00    +0.231 C 
ATOM     24  O   UNL     1      -3.363 -10.057  -5.684  0.00  0.00    -0.274 OA
ATOM     25  N   UNL     1      -2.938 -12.194  -5.263  0.00  0.00    -0.284 N 
ATOM     26  H   UNL     1      -2.497 -12.851  -4.702  0.00  0.00    +0.155 HD
BRANCH  25  27
ATOM     27  C   UNL     1      -3.618 -12.603  -6.416  0.00  0.00    +0.045 A 
ATOM     28  C   UNL     1      -4.647 -11.825  -6.931  0.00  0.00    +0.024 A 
ATOM     29  C   UNL     1      -5.315 -12.231  -8.069  0.00  0.00    +0.002 A 
ATOM     30  C   UNL     1      -4.961 -13.411  -8.696  0.00  0.00    +0.001 A 
ATOM     31  C   UNL     1      -3.937 -14.188  -8.187  0.00  0.00    +0.014 A 
ATOM     32  C   UNL     1      -3.260 -13.784  -7.052  0.00  0.00    +0.076 A 
BRANCH  32  33
ATOM     33  C   UNL     1      -2.140 -14.628  -6.502  0.00  0.00    +0.419 C 
ATOM     34  F   UNL     1      -1.968 -15.759  -7.308  0.00  0.00    -0.166 F 
ATOM     35  F   UNL     1      -0.957 -13.881  -6.488  0.00  0.00    -0.166 F 
ATOM     36  F   UNL     1      -2.454 -15.028  -5.199  0.00  0.00    -0.166 F 
ENDBRANCH  32  33
ENDBRANCH  25  27
ENDBRANCH  22  23
ENDBRANCH   6  22
TORSDOF 8
