REMARK  Name = ZINC20567554
REMARK  3 active torsions:
REMARK  status: ('A' for Active; 'I' for Inactive)
REMARK    1  A    between atoms: C_1  and  C_2
REMARK    2  A    between atoms: C_2  and  N_3
REMARK    3  A    between atoms: N_22  and  C_24
REMARK                            x       y       z     vdW  Elec       q    Type
REMARK                         _______ _______ _______ _____ _____    ______ ____
ROOT
ATOM      1  N   UNL     1      -3.221   0.434   0.924  0.00  0.00    +0.382 N 
ATOM      2  C   UNL     1      -4.627   0.016   0.989  0.00  0.00    -0.060 C 
ATOM      3  C   UNL     1      -4.713  -1.508   0.851  0.00  0.00    +0.088 C 
ATOM      4  N   UNL     1      -4.018  -1.904  -0.384  0.00  0.00    -0.319 N 
ATOM      5  C   UNL     1      -2.657  -1.393  -0.608  0.00  0.00    +0.088 C 
ATOM      6  C   UNL     1      -2.668   0.125  -0.401  0.00  0.00    -0.060 C 
ATOM      7  C   UNL     1      -4.630  -2.738  -1.310  0.00  0.00    +0.125 A 
ATOM      8  C   UNL     1      -4.423  -4.122  -1.227  0.00  0.00    -0.020 A 
ATOM      9  C   UNL     1      -5.023  -4.940  -2.135  0.00  0.00    -0.030 A 
ATOM     10  C   UNL     1      -5.827  -4.362  -3.128  0.00  0.00    +0.063 A 
ATOM     11  C   UNL     1      -6.607  -4.898  -4.243  0.00  0.00    +0.147 A 
ATOM     12  N   UNL     1      -7.169  -3.887  -4.851  0.00  0.00    -0.157 NA
ATOM     13  N   UNL     1      -6.818  -2.692  -4.216  0.00  0.00    -0.258 N 
ATOM     14  H   UNL     1      -7.112  -1.807  -4.484  0.00  0.00    +0.191 HD
ATOM     15  C   UNL     1      -5.996  -2.966  -3.159  0.00  0.00    +0.160 A 
ATOM     16  N   UNL     1      -5.396  -2.209  -2.245  0.00  0.00    -0.213 NA
ATOM     17  N   UNL     1      -6.730  -6.245  -4.594  0.00  0.00    -0.341 N 
ATOM     18  C   UNL     1      -4.849  -6.434  -2.094  0.00  0.00    +0.018 C 
ATOM     19  C   UNL     1      -3.649  -6.792  -1.216  0.00  0.00    -0.073 C 
ATOM     20  N   UNL     1      -3.786  -6.091   0.070  0.00  0.00    +0.385 N 
ATOM     21  C   UNL     1      -3.538  -4.661  -0.136  0.00  0.00    -0.039 C 
ATOM     22  H   UNL     1      -6.271  -6.925  -4.076  0.00  0.00    +0.144 HD
ATOM     23  H   UNL     1      -7.274  -6.500  -5.355  0.00  0.00    +0.144 HD
ATOM     24  H   UNL     1      -4.720  -6.224   0.429  0.00  0.00    -0.081 HD
ATOM     25  H   UNL     1      -2.693  -0.058   1.629  0.00  0.00    -0.082 HD
ENDROOT
BRANCH  20  26
ATOM     26  C   UNL     1      -2.809  -6.626   1.028  0.00  0.00    -0.068 C 
ATOM     27  C   UNL     1      -3.143  -8.087   1.336  0.00  0.00    -0.015 C 
ATOM     28  C   UNL     1      -2.125  -8.644   2.333  0.00  0.00    -0.002 C 
ATOM     29  C   UNL     1      -2.177  -7.826   3.625  0.00  0.00    -0.000 C 
ATOM     30  C   UNL     1      -1.842  -6.365   3.317  0.00  0.00    -0.002 C 
ATOM     31  C   UNL     1      -2.860  -5.808   2.320  0.00  0.00    -0.015 C 
ENDBRANCH  20  26
BRANCH   1  33
ATOM     32  C   UNL     1      -3.590   2.188   2.592  0.00  0.00    -0.017 C 
ATOM     33  C   UNL     1      -3.130   1.880   1.165  0.00  0.00    -0.082 C 
ENDBRANCH   1  33
TORSDOF 2
