REMARK  Name = ZINC32529176
REMARK  8 active torsions:
REMARK  status: ('A' for Active; 'I' for Inactive)
REMARK    1  A    between atoms: C_1  and  C_2
REMARK    2  A    between atoms: C_4  and  C_31
REMARK    3  A    between atoms: C_8  and  C_30
REMARK    4  A    between atoms: C_10  and  S_12
REMARK    5  A    between atoms: S_12  and  C_13
REMARK    6  A    between atoms: C_13  and  C_15
REMARK    7  A    between atoms: C_13  and  C_16
REMARK    8  A    between atoms: C_16  and  C_18
REMARK                            x       y       z     vdW  Elec       q    Type
REMARK                         _______ _______ _______ _____ _____    ______ ____
ROOT
ATOM      1  C   UNL     1      -2.691   0.736   0.019  0.00  0.00    +0.121 C 
ATOM      2  C   UNL     1      -2.537  -0.035  -1.294  0.00  0.00    +0.028 C 
ENDROOT
BRANCH   1   3
ATOM      3  C   UNL     1      -4.111   1.222   0.152  0.00  0.00    +0.176 C 
ATOM      4  O   UNL     1      -4.404   2.344  -0.205  0.00  0.00    -0.291 OA
BRANCH   3   5
ATOM      5  C   UNL     1      -5.140   0.338   0.714  0.00  0.00    +0.021 A 
ATOM      6  C   UNL     1      -4.803  -0.958   1.127  0.00  0.00    +0.013 A 
ATOM      7  C   UNL     1      -5.756  -1.783   1.651  0.00  0.00    +0.028 A 
ATOM      8  C   UNL     1      -7.069  -1.343   1.778  0.00  0.00    +0.067 A 
ATOM      9  C   UNL     1      -7.419  -0.051   1.369  0.00  0.00    +0.067 A 
ATOM     10  C   UNL     1      -6.458   0.790   0.844  0.00  0.00    +0.039 A 
ATOM     11  N   UNL     1      -8.783   0.093   1.619  0.00  0.00    -0.306 N 
ATOM     12  H   UNL     1      -9.289   1.038   1.375  0.00  0.00    +0.170 HD
ATOM     13  C   UNL     1      -9.237  -1.057   2.153  0.00  0.00    +0.325 A 
ATOM     14  O   UNL     1     -10.388  -1.266   2.488  0.00  0.00    -0.247 OA
ATOM     15  N   UNL     1      -8.226  -1.939   2.260  0.00  0.00    -0.306 N 
ATOM     16  H   UNL     1      -8.196  -2.970   2.642  0.00  0.00    +0.170 HD
ENDBRANCH   3   5
ENDBRANCH   1   3
BRANCH   1  17
ATOM     17  S   UNL     1      -1.565   2.154   0.021  0.00  0.00    -0.095 S 
BRANCH  17  27
ATOM     18  C   UNL     1       4.861  -2.830  -0.057  0.00  0.00    +0.044 C 
ATOM     19  C   UNL     1       3.566  -2.061  -0.041  0.00  0.00    -0.050 A 
ATOM     20  C   UNL     1       2.356  -2.752  -0.034  0.00  0.00    +0.008 A 
ATOM     21  C   UNL     1       1.168  -2.087  -0.020  0.00  0.00    -0.024 A 
ATOM     22  C   UNL     1       1.155  -0.682  -0.013  0.00  0.00    +0.075 A 
ATOM     23  C   UNL     1       2.386   0.018  -0.021  0.00  0.00    +0.004 A 
ATOM     24  C   UNL     1       3.592  -0.699  -0.035  0.00  0.00    +0.013 A 
ATOM     25  C   UNL     1       2.374   1.428  -0.013  0.00  0.00    -0.039 A 
ATOM     26  C   UNL     1       1.170   2.064   0.002  0.00  0.00    +0.038 A 
ATOM     27  C   UNL     1      -0.016   1.314   0.009  0.00  0.00    +0.099 A 
ATOM     28  N   UNL     1       0.002  -0.004   0.002  0.00  0.00    -0.240 NA
ATOM     29  C   UNL     1       3.661   2.212  -0.021  0.00  0.00    +0.044 C 
ATOM     30  C   UNL     1      -0.128  -2.856  -0.012  0.00  0.00    +0.046 C 
ENDBRANCH  17  27
ENDBRANCH   1  17
TORSDOF 4
