REMARK  Name = ZINC13399465
REMARK  8 active torsions:
REMARK  status: ('A' for Active; 'I' for Inactive)
REMARK    1  A    between atoms: C_1  and  C_2
REMARK    2  A    between atoms: C_2  and  C_4
REMARK    3  A    between atoms: C_2  and  O_30
REMARK    4  A    between atoms: C_4  and  O_29
REMARK    5  A    between atoms: C_12  and  C_28
REMARK    6  A    between atoms: C_14  and  O_27
REMARK    7  A    between atoms: C_18  and  C_26
REMARK    8  A    between atoms: C_23  and  C_25
REMARK                            x       y       z     vdW  Elec       q    Type
REMARK                         _______ _______ _______ _____ _____    ______ ____
ROOT
ATOM      1  C   UNL     1       1.465  -7.576  -2.223  0.00  0.00    +0.092 C 
ATOM      2  C   UNL     1       1.593  -6.120  -1.726  0.00  0.00    +0.041 C 
ATOM      3  C   UNL     1       0.430  -5.971  -0.722  0.00  0.00    +0.001 C 
ATOM      4  C   UNL     1       0.135  -4.517  -0.445  0.00  0.00    -0.004 C 
ATOM      5  C   UNL     1      -0.691  -4.327   0.825  0.00  0.00    +0.004 C 
ATOM      6  C   UNL     1      -0.780  -2.834   1.140  0.00  0.00    +0.007 C 
ATOM      7  C   UNL     1      -1.443  -2.072  -0.006  0.00  0.00    -0.024 C 
ATOM      8  C   UNL     1      -1.434  -0.575   0.338  0.00  0.00    +0.038 C 
ATOM      9  C   UNL     1      -0.012  -0.027   0.361  0.00  0.00    +0.115 C 
ATOM     10  C   UNL     1       0.614  -0.223  -1.023  0.00  0.00    +0.032 C 
ATOM     11  C   UNL     1       0.655  -1.712  -1.342  0.00  0.00    +0.010 C 
ATOM     12  C   UNL     1      -0.749  -2.339  -1.330  0.00  0.00    -0.023 C 
ATOM     13  C   UNL     1      -0.550  -3.825  -1.619  0.00  0.00    -0.001 C 
ATOM     14  C   UNL     1      -1.815  -4.585  -1.984  0.00  0.00    +0.005 C 
ATOM     15  C   UNL     1      -1.402  -5.980  -2.472  0.00  0.00    +0.007 C 
ATOM     16  C   UNL     1      -0.717  -6.766  -1.355  0.00  0.00    -0.026 C 
ATOM     17  C   UNL     1      -0.009  -7.972  -2.034  0.00  0.00    +0.044 C 
ATOM     18  C   UNL     1      -1.725  -7.261  -0.310  0.00  0.00    +0.011 C 
ATOM     19  C   UNL     1      -1.561  -1.713  -2.472  0.00  0.00    +0.012 C 
ATOM     20  C   UNL     1      -2.926  -2.472  -0.089  0.00  0.00    +0.012 C 
ENDROOT
BRANCH   1  22
ATOM     21  C   UNL     1       3.315  -7.266  -3.874  0.00  0.00    +0.040 C 
ATOM     22  C   UNL     1       1.847  -7.663  -3.703  0.00  0.00    +0.143 C 
BRANCH  22  23
ATOM     23  O   UNL     1       1.022  -6.776  -4.460  0.00  0.00    -0.389 OA
ATOM     24  H   UNL     1       1.099  -5.848  -4.200  0.00  0.00    +0.210 HD
ENDBRANCH  22  23
ENDBRANCH   1  22
BRANCH   9  25
ATOM     25  O   UNL     1      -0.039   1.368   0.674  0.00  0.00    -0.392 OA
ATOM     26  H   UNL     1       0.835   1.781   0.705  0.00  0.00    +0.210 HD
ENDBRANCH   9  25
BRANCH   1  27
ATOM     27  O   UNL     1       2.308  -8.434  -1.452  0.00  0.00    -0.386 OA
ATOM     28  H   UNL     1       3.251  -8.233  -1.531  0.00  0.00    +0.210 HD
ENDBRANCH   1  27
TORSDOF 4
