REMARK  Name = ZINC20898565
REMARK  8 active torsions:
REMARK  status: ('A' for Active; 'I' for Inactive)
REMARK    1  A    between atoms: C_1  and  C_2
REMARK    2  A    between atoms: C_7  and  C_8
REMARK    3  A    between atoms: C_10  and  C_33
REMARK    4  A    between atoms: C_14  and  C_17
REMARK    5  A    between atoms: C_19  and  O_24
REMARK    6  A    between atoms: C_22  and  O_23
REMARK    7  A    between atoms: N_25  and  C_32
REMARK    8  A    between atoms: N_28  and  C_31
REMARK                            x       y       z     vdW  Elec       q    Type
REMARK                         _______ _______ _______ _____ _____    ______ ____
ROOT
ATOM      1  C   UNL     1       2.053   2.158   3.350  0.00  0.00    +0.044 C 
ATOM      2  C   UNL     1       0.770   1.757   2.668  0.00  0.00    -0.046 A 
ATOM      3  C   UNL     1      -0.227   2.695   2.475  0.00  0.00    +0.028 A 
ATOM      4  C   UNL     1      -1.410   2.329   1.853  0.00  0.00    +0.052 A 
ATOM      5  C   UNL     1      -1.585   1.006   1.431  0.00  0.00    +0.068 A 
ATOM      6  C   UNL     1      -0.581   0.076   1.621  0.00  0.00    +0.031 A 
ATOM      7  C   UNL     1       0.598   0.454   2.239  0.00  0.00    -0.045 A 
ATOM      8  C   UNL     1       1.697  -0.557   2.444  0.00  0.00    +0.044 C 
ATOM      9  N   UNL     1      -2.807   0.660   0.837  0.00  0.00    -0.306 N 
ATOM     10  C   UNL     1      -3.127  -0.477   0.162  0.00  0.00    +0.069 A 
ATOM     11  C   UNL     1      -4.417  -0.343  -0.288  0.00  0.00    +0.089 A 
ATOM     12  C   UNL     1      -4.893   0.983   0.184  0.00  0.00    +0.082 A 
ATOM     13  C   UNL     1      -3.891   1.527   0.858  0.00  0.00    +0.073 A 
ATOM     14  C   UNL     1      -3.825   2.859   1.573  0.00  0.00    +0.154 C 
ATOM     15  N   UNL     1      -2.415   3.275   1.624  0.00  0.00    -0.330 N 
ATOM     16  N   UNL     1      -6.197   1.386  -0.138  0.00  0.00    -0.294 N 
ATOM     17  C   UNL     1      -6.948   0.530  -0.867  0.00  0.00    +0.332 A 
ATOM     18  O   UNL     1      -8.078   0.881  -1.147  0.00  0.00    -0.246 OA
ATOM     19  N   UNL     1      -6.553  -0.669  -1.304  0.00  0.00    -0.263 N 
ATOM     20  C   UNL     1      -5.322  -1.192  -1.069  0.00  0.00    +0.266 A 
ATOM     21  O   UNL     1      -4.992  -2.288  -1.480  0.00  0.00    -0.267 OA
ATOM     22  C   UNL     1      -7.505  -1.468  -2.081  0.00  0.00    +0.157 C 
ATOM     23  C   UNL     1      -6.724   2.682   0.296  0.00  0.00    +0.154 C 
ATOM     24  H   UNL     1      -2.148   4.333   1.483  0.00  0.00    +0.147 HD
ENDROOT
BRANCH  14  25
ATOM     25  C   UNL     1      -4.366   2.716   2.972  0.00  0.00    +0.023 A 
ATOM     26  C   UNL     1      -4.538   1.460   3.521  0.00  0.00    +0.054 A 
ATOM     27  C   UNL     1      -5.032   1.329   4.810  0.00  0.00    +0.117 A 
ATOM     28  C   UNL     1      -5.362   2.458   5.545  0.00  0.00    +0.049 A 
ATOM     29  C   UNL     1      -5.195   3.713   4.994  0.00  0.00    +0.049 A 
ATOM     30  C   UNL     1      -4.696   3.845   3.706  0.00  0.00    +0.122 A 
BRANCH  30  31
ATOM     31  O   UNL     1      -4.531   5.081   3.164  0.00  0.00    -0.506 OA
ATOM     32  H   UNL     1      -4.793   5.977   3.747  0.00  0.00    +0.292 HD
ENDBRANCH  30  31
BRANCH  27  33
ATOM     33  O   UNL     1      -5.198   0.092   5.352  0.00  0.00    -0.507 OA
ATOM     34  H   UNL     1      -5.590  -0.012   6.374  0.00  0.00    +0.292 HD
ENDBRANCH  27  33
ENDBRANCH  14  25
BRANCH  10  35
ATOM     35  C   UNL     1      -2.247  -1.643  -0.050  0.00  0.00    -0.000 A 
ATOM     36  C   UNL     1      -1.020  -1.487  -0.699  0.00  0.00    +0.010 A 
ATOM     37  C   UNL     1      -0.200  -2.580  -0.889  0.00  0.00    +0.001 A 
ATOM     38  C   UNL     1      -0.596  -3.831  -0.447  0.00  0.00    +0.000 A 
ATOM     39  C   UNL     1      -1.812  -3.993   0.192  0.00  0.00    +0.001 A 
ATOM     40  C   UNL     1      -2.640  -2.908   0.393  0.00  0.00    +0.010 A 
ENDBRANCH  10  35
TORSDOF 4
