REMARK  Name = ZINC36535450
REMARK  14 active torsions:
REMARK  status: ('A' for Active; 'I' for Inactive)
REMARK    1  A    between atoms: C_1  and  C_2
REMARK    2  A    between atoms: C_2  and  C_3
REMARK    3  A    between atoms: C_3  and  C_4
REMARK    4  A    between atoms: N_6  and  C_7
REMARK    5  A    between atoms: N_6  and  C_8
REMARK    6  A    between atoms: C_8  and  C_10
REMARK    7  A    between atoms: C_8  and  C_19
REMARK    8  A    between atoms: C_11  and  O_18
REMARK    9  A    between atoms: C_13  and  O_17
REMARK   10  A    between atoms: C_15  and  O_16
REMARK   11  A    between atoms: N_21  and  C_22
REMARK   12  A    between atoms: C_22  and  C_23
REMARK   13  A    between atoms: C_22  and  C_24
REMARK   14  A    between atoms: C_22  and  C_25
REMARK                            x       y       z     vdW  Elec       q    Type
REMARK                         _______ _______ _______ _____ _____    ______ ____
ROOT
ATOM      1  C   UNL     1       1.720  -4.446  -2.647  0.00  0.00    +0.199 C 
ENDROOT
BRANCH   1   2
ATOM      2  C   UNL     1       3.213  -4.426  -2.854  0.00  0.00    +0.065 A 
ATOM      3  C   UNL     1       3.758  -4.929  -4.025  0.00  0.00    +0.129 A 
ATOM      4  C   UNL     1       5.131  -4.911  -4.215  0.00  0.00    +0.091 A 
ATOM      5  C   UNL     1       5.960  -4.388  -3.233  0.00  0.00    +0.124 A 
ATOM      6  C   UNL     1       5.415  -3.884  -2.062  0.00  0.00    +0.091 A 
ATOM      7  C   UNL     1       4.041  -3.898  -1.874  0.00  0.00    +0.129 A 
BRANCH   7   8
ATOM      8  O   UNL     1       3.507  -3.400  -0.729  0.00  0.00    -0.506 OA
ATOM      9  H   UNL     1       3.415  -4.052  -0.021  0.00  0.00    +0.292 HD
ENDBRANCH   7   8
BRANCH   5  10
ATOM     10  O   UNL     1       7.306  -4.371  -3.419  0.00  0.00    -0.507 OA
ATOM     11  H   UNL     1       7.634  -3.568  -3.846  0.00  0.00    +0.292 HD
ENDBRANCH   5  10
BRANCH   3  12
ATOM     12  O   UNL     1       2.946  -5.441  -4.987  0.00  0.00    -0.506 OA
ATOM     13  H   UNL     1       2.725  -4.815  -5.690  0.00  0.00    +0.292 HD
ENDBRANCH   3  12
ENDBRANCH   1   2
BRANCH   1  16
ATOM     14  C   UNL     1       0.481  -2.925  -1.202  0.00  0.00    +0.216 C 
ATOM     15  O   UNL     1       0.164  -3.877  -0.521  0.00  0.00    -0.276 OA
ATOM     16  N   UNL     1       1.259  -3.102  -2.288  0.00  0.00    -0.289 N 
ATOM     17  C   UNL     1       1.643  -1.952  -3.110  0.00  0.00    +0.133 C 
BRANCH  14  18
ATOM     18  C   UNL     1       0.007  -1.543  -0.832  0.00  0.00    +0.096 C 
BRANCH  18  20
ATOM     19  C   UNL     1      -1.334  -0.217   0.807  0.00  0.00    +0.004 C 
ATOM     20  C   UNL     1      -0.853  -1.620   0.432  0.00  0.00    +0.006 C 
ENDBRANCH  18  20
ENDBRANCH  14  18
ENDBRANCH   1  16
BRANCH   1  21
ATOM     21  C   UNL     1       1.043  -4.886  -3.920  0.00  0.00    +0.239 C 
ATOM     22  O   UNL     1       0.681  -4.060  -4.731  0.00  0.00    -0.273 OA
ATOM     23  N   UNL     1       0.840  -6.197  -4.156  0.00  0.00    -0.309 N 
ATOM     24  H   UNL     1       1.086  -6.854  -3.486  0.00  0.00    +0.149 HD
BRANCH  23  25
ATOM     25  C   UNL     1       0.247  -6.629  -5.424  0.00  0.00    +0.026 C 
ATOM     26  C   UNL     1       1.045  -6.037  -6.588  0.00  0.00    +0.031 C 
ATOM     27  C   UNL     1       0.281  -8.157  -5.508  0.00  0.00    +0.031 C 
ATOM     28  C   UNL     1      -1.202  -6.146  -5.501  0.00  0.00    +0.031 C 
ENDBRANCH  23  25
ENDBRANCH   1  21
TORSDOF 9
