REMARK  Name = ZINC00662442
REMARK  12 active torsions:
REMARK  status: ('A' for Active; 'I' for Inactive)
REMARK    1  A    between atoms: C_1  and  C_2
REMARK    2  A    between atoms: C_2  and  C_3
REMARK    3  A    between atoms: C_3  and  N_4
REMARK    4  A    between atoms: C_11  and  C_23
REMARK    5  A    between atoms: C_13  and  C_19
REMARK    6  A    between atoms: C_13  and  C_21
REMARK    7  A    between atoms: C_14  and  N_18
REMARK    8  A    between atoms: C_15  and  C_16
REMARK    9  A    between atoms: C_26  and  C_29
REMARK   10  A    between atoms: C_29  and  C_30
REMARK   11  A    between atoms: C_29  and  C_31
REMARK   12  A    between atoms: C_29  and  C_32
REMARK                            x       y       z     vdW  Elec       q    Type
REMARK                         _______ _______ _______ _____ _____    ______ ____
ROOT
ATOM      1  N   UNL     1      -0.394  -0.420  -3.226  0.00  0.00    -0.298 NA
ATOM      2  C   UNL     1       0.132  -1.701  -3.731  0.00  0.00    +0.112 C 
ATOM      3  C   UNL     1       0.470  -2.560  -2.538  0.00  0.00    -0.007 C 
ATOM      4  C   UNL     1      -0.230  -2.447  -1.439  0.00  0.00    -0.026 C 
ATOM      5  C   UNL     1      -1.431  -1.558  -1.296  0.00  0.00    +0.044 C 
ATOM      6  C   UNL     1      -1.637  -0.642  -2.482  0.00  0.00    +0.093 C 
ATOM      7  C   UNL     1      -1.293  -0.775   0.011  0.00  0.00    +0.067 C 
ATOM      8  C   UNL     1      -1.296  -1.757   1.183  0.00  0.00    +0.188 C 
ATOM      9  C   UNL     1      -0.305  -2.866   0.977  0.00  0.00    +0.054 C 
ATOM     10  C   UNL     1       0.194  -3.210  -0.238  0.00  0.00    +0.074 C 
ENDROOT
BRANCH   7  11
ATOM     11  C   UNL     1       0.002  -0.004   0.002  0.00  0.00    -0.041 A 
ATOM     12  C   UNL     1       1.149  -0.574   0.522  0.00  0.00    +0.004 A 
ATOM     13  C   UNL     1       2.337   0.134   0.513  0.00  0.00    +0.004 A 
ATOM     14  C   UNL     1       2.377   1.411  -0.014  0.00  0.00    -0.042 A 
ATOM     15  C   UNL     1       1.230   1.980  -0.534  0.00  0.00    +0.004 A 
ATOM     16  C   UNL     1       0.043   1.273  -0.526  0.00  0.00    +0.004 A 
BRANCH  14  17
ATOM     17  C   UNL     1       3.672   2.182  -0.023  0.00  0.00    -0.013 C 
ATOM     18  C   UNL     1       3.503   3.473   0.779  0.00  0.00    +0.015 C 
ATOM     19  C   UNL     1       4.777   1.331   0.606  0.00  0.00    +0.015 C 
ATOM     20  C   UNL     1       4.051   2.524  -1.466  0.00  0.00    +0.015 C 
ENDBRANCH  14  17
ENDBRANCH   7  11
BRANCH   9  21
ATOM     21  N   UNL     1       0.117  -3.567   2.072  0.00  0.00    -0.358 N 
ATOM     22  H   UNL     1       0.842  -4.386   1.955  0.00  0.00    +0.142 HD
ATOM     23  H   UNL     1      -0.269  -3.313   3.070  0.00  0.00    +0.142 HD
ENDBRANCH   9  21
BRANCH  10  24
ATOM     24  C   UNL     1       1.119  -4.296  -0.359  0.00  0.00    +0.101 C 
ATOM     25  N   UNL     1       1.853  -5.158  -0.456  0.00  0.00    -0.191 NA
ENDBRANCH  10  24
BRANCH   8  26
ATOM     26  C   UNL     1      -0.959  -1.031   2.418  0.00  0.00    +0.091 C 
ATOM     27  N   UNL     1      -0.699  -0.471   3.371  0.00  0.00    -0.194 NA
ENDBRANCH   8  26
BRANCH   8  28
ATOM     28  C   UNL     1      -2.642  -2.336   1.320  0.00  0.00    +0.091 C 
ATOM     29  N   UNL     1      -3.681  -2.783   1.427  0.00  0.00    -0.194 NA
ENDBRANCH   8  28
BRANCH   1  30
ATOM     30  C   UNL     1      -0.601   0.533  -4.325  0.00  0.00    +0.084 C 
BRANCH  30  32
ATOM     31  C   UNL     1       0.537   1.923  -6.061  0.00  0.00    +0.005 C 
ATOM     32  C   UNL     1       0.752   0.930  -4.917  0.00  0.00    +0.012 C 
ENDBRANCH  30  32
ENDBRANCH   1  30
TORSDOF 8
