REMARK  Name = ZINC04743237
REMARK  8 active torsions:
REMARK  status: ('A' for Active; 'I' for Inactive)
REMARK    1  A    between atoms: C_1  and  C_2
REMARK    2  A    between atoms: C_4  and  O_27
REMARK    3  A    between atoms: C_6  and  C_26
REMARK    4  A    between atoms: C_7  and  C_13
REMARK    5  A    between atoms: C_13  and  C_14
REMARK    6  A    between atoms: N_16  and  C_17
REMARK    7  A    between atoms: C_17  and  C_18
REMARK    8  A    between atoms: C_18  and  C_19
REMARK                            x       y       z     vdW  Elec       q    Type
REMARK                         _______ _______ _______ _____ _____    ______ ____
ROOT
ATOM      1  C   UNL     1      -4.776   3.296 -10.665  0.00  0.00    +0.044 C 
ATOM      2  C   UNL     1      -3.935   2.615  -9.615  0.00  0.00    -0.043 A 
ATOM      3  C   UNL     1      -4.339   1.395  -9.100  0.00  0.00    +0.049 A 
ATOM      4  C   UNL     1      -3.578   0.758  -8.136  0.00  0.00    +0.128 A 
ATOM      5  C   UNL     1      -2.393   1.359  -7.684  0.00  0.00    +0.062 A 
ATOM      6  C   UNL     1      -1.558   0.714  -6.670  0.00  0.00    -0.026 A 
ATOM      7  C   UNL     1      -0.426   1.350  -6.270  0.00  0.00    +0.049 A 
ATOM      8  C   UNL     1      -0.082   2.592  -6.842  0.00  0.00    +0.341 A 
ATOM      9  O   UNL     1       0.938   3.150  -6.478  0.00  0.00    -0.245 OA
ATOM     10  O   UNL     1      -0.850   3.176  -7.775  0.00  0.00    -0.422 OA
ATOM     11  C   UNL     1      -1.990   2.599  -8.212  0.00  0.00    +0.143 A 
ATOM     12  C   UNL     1      -2.772   3.216  -9.178  0.00  0.00    +0.050 A 
ATOM     13  C   UNL     1      -1.947  -0.618  -6.081  0.00  0.00    +0.045 C 
ENDROOT
BRANCH   4  14
ATOM     14  O   UNL     1      -3.974  -0.438  -7.632  0.00  0.00    -0.506 OA
ATOM     15  H   UNL     1      -3.635  -1.202  -8.119  0.00  0.00    +0.292 HD
ENDBRANCH   4  14
BRANCH   7  16
ATOM     16  C   UNL     1       0.462   0.727  -5.224  0.00  0.00    +0.138 C 
BRANCH  16  17
ATOM     17  C   UNL     1       0.029   1.189  -3.857  0.00  0.00    +0.218 C 
ATOM     18  O   UNL     1      -0.908   1.950  -3.743  0.00  0.00    -0.275 OA
ATOM     19  N   UNL     1       0.684   0.758  -2.761  0.00  0.00    -0.315 N 
ATOM     20  H   UNL     1       1.433   0.149  -2.852  0.00  0.00    +0.149 HD
BRANCH  19  21
ATOM     21  C   UNL     1       0.263   1.208  -1.432  0.00  0.00    +0.109 C 
BRANCH  21  22
ATOM     22  C   UNL     1       1.165   0.575  -0.370  0.00  0.00    +0.054 C 
BRANCH  22  23
ATOM     23  C   UNL     1       0.732   1.038   0.997  0.00  0.00    -0.046 A 
ATOM     24  C   UNL     1       1.284   2.179   1.547  0.00  0.00    +0.006 A 
ATOM     25  C   UNL     1       0.885   2.607   2.799  0.00  0.00    +0.038 A 
ATOM     26  C   UNL     1      -0.062   1.887   3.507  0.00  0.00    +0.123 A 
ATOM     27  C   UNL     1      -0.612   0.741   2.957  0.00  0.00    +0.038 A 
ATOM     28  C   UNL     1      -0.214   0.318   1.703  0.00  0.00    +0.006 A 
ATOM     29  F   UNL     1      -0.451   2.302   4.732  0.00  0.00    -0.205 F 
ENDBRANCH  22  23
ENDBRANCH  21  22
ENDBRANCH  19  21
ENDBRANCH  16  17
ENDBRANCH   7  16
TORSDOF 6
