REMARK  Name = ZINC25256123
REMARK  7 active torsions:
REMARK  status: ('A' for Active; 'I' for Inactive)
REMARK    1  A    between atoms: C_1  and  C_2
REMARK    2  A    between atoms: C_2  and  C_4
REMARK    3  A    between atoms: C_2  and  S_12
REMARK    4  A    between atoms: N_6  and  C_7
REMARK    5  A    between atoms: C_7  and  C_8
REMARK    6  A    between atoms: S_12  and  C_13
REMARK    7  A    between atoms: N_21  and  C_24
REMARK                            x       y       z     vdW  Elec       q    Type
REMARK                         _______ _______ _______ _____ _____    ______ ____
ROOT
ATOM      1  C   UNL     1      -2.806   6.764  -1.820  0.00  0.00    +0.172 A 
ATOM      2  N   UNL     1      -2.504   8.075  -1.592  0.00  0.00    -0.301 N 
ATOM      3  H   UNL     1      -3.139   8.868  -2.015  0.00  0.00    +0.171 HD
ATOM      4  C   UNL     1      -1.426   8.408  -0.847  0.00  0.00    +0.263 A 
ATOM      5  O   UNL     1      -1.147   9.575  -0.637  0.00  0.00    -0.267 OA
ATOM      6  C   UNL     1      -0.629   7.363  -0.317  0.00  0.00    +0.103 A 
ATOM      7  C   UNL     1       0.534   7.322   0.480  0.00  0.00    +0.150 A 
ATOM      8  N   UNL     1       0.854   6.074   0.679  0.00  0.00    -0.172 NA
ATOM      9  N   UNL     1      -0.070   5.244   0.032  0.00  0.00    -0.214 N 
ATOM     10  C   UNL     1      -0.989   6.033  -0.592  0.00  0.00    +0.171 A 
ATOM     11  N   UNL     1      -2.075   5.785  -1.335  0.00  0.00    -0.204 NA
ENDROOT
BRANCH   9  12
ATOM     12  C   UNL     1      -0.050   3.843   0.024  0.00  0.00    +0.069 A 
ATOM     13  C   UNL     1      -1.242   3.130   0.031  0.00  0.00    +0.028 A 
ATOM     14  C   UNL     1      -1.220   1.750   0.017  0.00  0.00    +0.003 A 
ATOM     15  C   UNL     1      -0.013   1.076   0.008  0.00  0.00    +0.020 A 
ATOM     16  C   UNL     1       1.177   1.783   0.000  0.00  0.00    +0.043 A 
ATOM     17  C   UNL     1       1.161   3.165   0.008  0.00  0.00    +0.047 A 
ATOM     18 CL   UNL     1       2.691   0.933  -0.019  0.00  0.00    -0.083 Cl
ENDBRANCH   9  12
BRANCH   1  19
ATOM     19  S   UNL     1      -4.220   6.371  -2.796  0.00  0.00    -0.075 S 
BRANCH  19  21
ATOM     20  C   UNL     1      -2.865   4.102  -3.488  0.00  0.00    +0.029 C 
ATOM     21  C   UNL     1      -4.131   4.564  -2.764  0.00  0.00    +0.137 C 
BRANCH  21  22
ATOM     22  C   UNL     1      -5.342   3.989  -3.454  0.00  0.00    +0.226 C 
ATOM     23  O   UNL     1      -5.930   4.642  -4.289  0.00  0.00    -0.275 OA
ATOM     24  N   UNL     1      -5.770   2.750  -3.142  0.00  0.00    -0.306 N 
ATOM     25  H   UNL     1      -5.236   2.158  -2.384  0.00  0.00    +0.149 HD
BRANCH  24  26
ATOM     26  C   UNL     1      -6.947   2.191  -3.812  0.00  0.00    +0.217 C 
BRANCH  26  27
ATOM     27  C   UNL     1      -7.217   0.783  -3.278  0.00  0.00    +0.405 C 
ATOM     28  F   UNL     1      -7.450   0.843  -1.900  0.00  0.00    -0.169 F 
ATOM     29  F   UNL     1      -8.341   0.250  -3.918  0.00  0.00    -0.169 F 
ATOM     30  F   UNL     1      -6.108  -0.031  -3.529  0.00  0.00    -0.169 F 
ENDBRANCH  26  27
ENDBRANCH  24  26
ENDBRANCH  21  22
ENDBRANCH  19  21
ENDBRANCH   1  19
TORSDOF 6
