REMARK  Name = ZINC44855346
REMARK  7 active torsions:
REMARK  status: ('A' for Active; 'I' for Inactive)
REMARK    1  A    between atoms: C_1  and  C_2
REMARK    2  A    between atoms: C_9  and  C_32
REMARK    3  A    between atoms: C_9  and  C_33
REMARK    4  A    between atoms: C_11  and  N_13
REMARK    5  A    between atoms: C_14  and  C_16
REMARK    6  A    between atoms: N_21  and  C_23
REMARK    7  A    between atoms: C_23  and  C_24
REMARK                            x       y       z     vdW  Elec       q    Type
REMARK                         _______ _______ _______ _____ _____    ______ ____
ROOT
ATOM      1  N   UNL     1      -0.851  -4.753  -1.100  0.00  0.00    -0.308 N 
ATOM      2  C   UNL     1      -0.438  -4.833  -2.381  0.00  0.00    +0.215 C 
ATOM      3  O   UNL     1       0.695  -4.515  -2.673  0.00  0.00    -0.276 OA
ATOM      4  H   UNL     1      -1.758  -5.007  -0.867  0.00  0.00    +0.149 HD
ENDROOT
BRANCH   1  15
ATOM      5  C   UNL     1      -0.018   1.503   0.010  0.00  0.00    +0.044 C 
ATOM      6  C   UNL     1       0.002  -0.004   0.002  0.00  0.00    -0.047 A 
ATOM      7  C   UNL     1       0.006  -0.689  -1.199  0.00  0.00    +0.004 A 
ATOM      8  C   UNL     1       0.026  -2.070  -1.206  0.00  0.00    +0.009 A 
ATOM      9  C   UNL     1       0.042  -2.775  -0.014  0.00  0.00    +0.015 A 
ATOM     10  C   UNL     1       0.035  -2.092   1.190  0.00  0.00    +0.126 A 
ATOM     11  C   UNL     1       0.023  -0.701   1.193  0.00  0.00    +0.049 A 
ATOM     12  O   UNL     1       0.038  -2.743   2.382  0.00  0.00    -0.486 OA
ATOM     13  C   UNL     1       0.424  -4.118   2.391  0.00  0.00    +0.107 C 
ATOM     14  C   UNL     1      -0.361  -4.848   1.294  0.00  0.00    +0.074 C 
ATOM     15  C   UNL     1       0.068  -4.282  -0.062  0.00  0.00    +0.110 C 
ATOM     16  C   UNL     1       1.924  -4.234   2.116  0.00  0.00    +0.055 C 
ATOM     17  C   UNL     1       0.100  -4.735   3.753  0.00  0.00    +0.055 C 
ENDBRANCH   1  15
BRANCH   2  18
ATOM     18  C   UNL     1      -1.384  -5.317  -3.449  0.00  0.00    +0.058 C 
ATOM     19  C   UNL     1      -1.841  -6.741  -3.120  0.00  0.00    +0.009 C 
ATOM     20  C   UNL     1      -2.739  -7.253  -4.250  0.00  0.00    -0.018 C 
ATOM     21  C   UNL     1      -1.974  -7.180  -5.574  0.00  0.00    -0.078 C 
ATOM     22  N   UNL     1      -1.589  -5.790  -5.845  0.00  0.00    +0.383 N 
ATOM     23  C   UNL     1      -0.670  -5.315  -4.803  0.00  0.00    -0.066 C 
ATOM     24  H   UNL     1      -2.413  -5.208  -5.854  0.00  0.00    -0.081 HD
BRANCH  22  25
ATOM     25  C   UNL     1      -0.924  -5.713  -7.153  0.00  0.00    -0.040 C 
BRANCH  25  26
ATOM     26  C   UNL     1      -1.907  -6.073  -8.237  0.00  0.00    -0.027 A 
ATOM     27  C   UNL     1      -2.044  -7.390  -8.637  0.00  0.00    +0.044 A 
ATOM     28  C   UNL     1      -2.947  -7.720  -9.633  0.00  0.00    +0.020 A 
ATOM     29  C   UNL     1      -3.710  -6.734 -10.228  0.00  0.00    +0.003 A 
ATOM     30  C   UNL     1      -3.574  -5.417  -9.829  0.00  0.00    +0.020 A 
ATOM     31  C   UNL     1      -2.676  -5.087  -8.829  0.00  0.00    +0.044 A 
ATOM     32 CL   UNL     1      -2.510  -3.435  -8.322  0.00  0.00    -0.083 Cl
ATOM     33 CL   UNL     1      -1.084  -8.629  -7.890  0.00  0.00    -0.083 Cl
ENDBRANCH  25  26
ENDBRANCH  22  25
ENDBRANCH   2  18
TORSDOF 4
