REMARK  Name = ZINC01642587
REMARK  18 active torsions:
REMARK  status: ('A' for Active; 'I' for Inactive)
REMARK    1  A    between atoms: C_1  and  C_2
REMARK    2  A    between atoms: C_3  and  C_40
REMARK    3  A    between atoms: C_4  and  C_38
REMARK    4  A    between atoms: N_7  and  C_10
REMARK    5  A    between atoms: C_8  and  C_9
REMARK    6  A    between atoms: C_12  and  O_34
REMARK    7  A    between atoms: C_14  and  O_30
REMARK    8  A    between atoms: C_16  and  O_26
REMARK    9  A    between atoms: C_18  and  C_21
REMARK   10  A    between atoms: C_21  and  O_22
REMARK   11  A    between atoms: O_22  and  C_23
REMARK   12  A    between atoms: C_23  and  C_25
REMARK   13  A    between atoms: O_26  and  C_27
REMARK   14  A    between atoms: C_27  and  C_29
REMARK   15  A    between atoms: O_30  and  C_31
REMARK   16  A    between atoms: C_31  and  C_33
REMARK   17  A    between atoms: O_34  and  C_35
REMARK   18  A    between atoms: C_35  and  C_37
REMARK                            x       y       z     vdW  Elec       q    Type
REMARK                         _______ _______ _______ _____ _____    ______ ____
ROOT
ATOM      1  C   UNL     1       1.825  -2.926   1.045  0.00  0.00    +0.265 C 
ATOM      2  C   UNL     1       0.393  -2.474   1.342  0.00  0.00    +0.270 C 
ATOM      3  C   UNL     1      -0.129  -3.228   2.569  0.00  0.00    +0.264 C 
ATOM      4  C   UNL     1      -0.036  -4.734   2.307  0.00  0.00    +0.253 C 
ATOM      5  C   UNL     1       1.413  -5.098   1.974  0.00  0.00    +0.203 C 
ATOM      6  O   UNL     1       1.845  -4.340   0.842  0.00  0.00    -0.342 OA
ENDROOT
BRANCH   1  13
ATOM      7  C   UNL     1       4.662   0.538  -0.980  0.00  0.00    +0.046 C 
ATOM      8  C   UNL     1       3.672  -0.588  -1.141  0.00  0.00    -0.027 A 
ATOM      9  C   UNL     1       3.244  -0.962  -2.416  0.00  0.00    -0.026 A 
ATOM     10  C   UNL     1       2.330  -2.005  -2.542  0.00  0.00    +0.086 A 
ATOM     11  C   UNL     1       1.869  -2.655  -1.368  0.00  0.00    +0.107 A 
ATOM     12  S   UNL     1       0.751  -3.946  -1.486  0.00  0.00    -0.031 S 
ATOM     13  N   UNL     1       2.310  -2.252  -0.162  0.00  0.00    -0.308 N 
ATOM     14  C   UNL     1       3.200  -1.236  -0.047  0.00  0.00    +0.022 A 
ATOM     15  C   UNL     1       3.674  -0.819   1.322  0.00  0.00    +0.064 C 
ATOM     16  C   UNL     1       3.764  -0.249  -3.638  0.00  0.00    +0.045 C 
BRANCH  10  17
ATOM     17  C   UNL     1       1.867  -2.417  -3.833  0.00  0.00    +0.102 C 
ATOM     18  N   UNL     1       1.500  -2.743  -4.857  0.00  0.00    -0.191 NA
ENDBRANCH  10  17
ENDBRANCH   1  13
BRANCH   5  19
ATOM     19  C   UNL     1       1.502  -6.592   1.651  0.00  0.00    +0.267 C 
BRANCH  19  20
ATOM     20  O   UNL     1       2.892  -6.961   1.449  0.00  0.00    -0.462 OA
BRANCH  20  21
ATOM     21  C   UNL     1       3.145  -8.246   1.156  0.00  0.00    +0.304 C 
ATOM     22  O   UNL     1       2.235  -9.037   1.072  0.00  0.00    -0.251 OA
ATOM     23  C   UNL     1       4.563  -8.704   0.933  0.00  0.00    +0.136 C 
ENDBRANCH  20  21
ENDBRANCH  19  20
ENDBRANCH   5  19
BRANCH   4  24
ATOM     24  O   UNL     1      -0.458  -5.459   3.492  0.00  0.00    -0.455 OA
BRANCH  24  25
ATOM     25  C   UNL     1      -1.020  -6.663   3.302  0.00  0.00    +0.304 C 
ATOM     26  O   UNL     1      -1.155  -7.097   2.182  0.00  0.00    -0.251 OA
ATOM     27  C   UNL     1      -1.483  -7.475   4.484  0.00  0.00    +0.136 C 
ENDBRANCH  24  25
ENDBRANCH   4  24
BRANCH   3  28
ATOM     28  O   UNL     1      -1.513  -2.860   2.812  0.00  0.00    -0.454 OA
BRANCH  28  29
ATOM     29  C   UNL     1      -1.937  -2.892   4.085  0.00  0.00    +0.304 C 
ATOM     30  O   UNL     1      -1.177  -3.215   4.967  0.00  0.00    -0.251 OA
ATOM     31  C   UNL     1      -3.361  -2.523   4.414  0.00  0.00    +0.136 C 
ENDBRANCH  28  29
ENDBRANCH   3  28
BRANCH   2  32
ATOM     32  O   UNL     1       0.380  -1.047   1.607  0.00  0.00    -0.453 OA
BRANCH  32  33
ATOM     33  C   UNL     1       0.198  -0.233   0.555  0.00  0.00    +0.304 C 
ATOM     34  O   UNL     1       0.055  -0.699  -0.551  0.00  0.00    -0.251 OA
ATOM     35  C   UNL     1       0.172   1.261   0.753  0.00  0.00    +0.136 C 
ENDBRANCH  32  33
ENDBRANCH   2  32
TORSDOF 11
