REMARK  Name = ZINC39513759
REMARK  7 active torsions:
REMARK  status: ('A' for Active; 'I' for Inactive)
REMARK    1  A    between atoms: C_1  and  S_2
REMARK    2  A    between atoms: S_2  and  N_3
REMARK    3  A    between atoms: C_7  and  C_25
REMARK    4  A    between atoms: C_12  and  S_15
REMARK    5  A    between atoms: S_15  and  O_18
REMARK    6  A    between atoms: O_18  and  C_19
REMARK    7  A    between atoms: C_25  and  C_26
REMARK                            x       y       z     vdW  Elec       q    Type
REMARK                         _______ _______ _______ _____ _____    ______ ____
ROOT
ATOM      1  N   UNL     1       0.878  -0.427   1.475  0.00  0.00    +0.397 N 
ATOM      2  C   UNL     1       2.263   0.050   1.373  0.00  0.00    -0.062 C 
ATOM      3  C   UNL     1       3.008  -0.255   2.674  0.00  0.00    -0.017 C 
ATOM      4  C   UNL     1       3.012  -1.767   2.913  0.00  0.00    +0.001 C 
ATOM      5  C   UNL     1       1.566  -2.272   2.948  0.00  0.00    -0.016 C 
ATOM      6  C   UNL     1       0.865  -1.882   1.648  0.00  0.00    -0.048 C 
ATOM      7  C   UNL     1      -0.582  -2.397   1.657  0.00  0.00    -0.008 C 
ATOM      8  C   UNL     1      -0.708  -3.372   0.467  0.00  0.00    +0.028 C 
ATOM      9  C   UNL     1       0.416  -2.932  -0.505  0.00  0.00    +0.170 C 
ATOM     10  C   UNL     1       1.571  -2.555   0.456  0.00  0.00    +0.019 C 
ATOM     11  H   UNL     1       0.432   0.009   2.267  0.00  0.00    -0.064 HD
ENDROOT
BRANCH   9  12
ATOM     12  S   UNL     1       0.898  -4.302  -1.592  0.00  0.00    +0.123 S 
ATOM     13  O   UNL     1       1.823  -3.848  -2.571  0.00  0.00    -0.136 OA
ATOM     14  O   UNL     1       1.171  -5.465  -0.822  0.00  0.00    -0.136 OA
BRANCH  12  15
ATOM     15  O   UNL     1      -0.361  -4.642  -2.375  0.00  0.00    -0.346 OA
BRANCH  15  16
ATOM     16  C   UNL     1      -0.662  -3.748  -3.354  0.00  0.00    +0.156 A 
ATOM     17  C   UNL     1      -1.467  -2.654  -3.072  0.00  0.00    +0.048 A 
ATOM     18  C   UNL     1      -1.771  -1.747  -4.069  0.00  0.00    +0.004 A 
ATOM     19  C   UNL     1      -1.273  -1.929  -5.346  0.00  0.00    +0.000 A 
ATOM     20  C   UNL     1      -0.470  -3.019  -5.629  0.00  0.00    +0.004 A 
ATOM     21  C   UNL     1      -0.159  -3.925  -4.635  0.00  0.00    +0.048 A 
ENDBRANCH  15  16
ENDBRANCH  12  15
ENDBRANCH   9  12
BRANCH   1  23
ATOM     22  C   UNL     1      -0.022   1.810   0.012  0.00  0.00    +0.063 C 
ATOM     23  S   UNL     1       0.002  -0.004   0.002  0.00  0.00    -0.226 S 
ENDBRANCH   1  23
BRANCH   5  24
ATOM     24  C   UNL     1       1.559  -3.794   3.096  0.00  0.00    +0.037 C 
BRANCH  24  25
ATOM     25  C   UNL     1       2.144  -4.171   4.432  0.00  0.00    -0.047 A 
ATOM     26  C   UNL     1       3.503  -4.392   4.554  0.00  0.00    +0.003 A 
ATOM     27  C   UNL     1       4.040  -4.738   5.780  0.00  0.00    +0.000 A 
ATOM     28  C   UNL     1       3.218  -4.863   6.884  0.00  0.00    +0.000 A 
ATOM     29  C   UNL     1       1.859  -4.642   6.763  0.00  0.00    +0.000 A 
ATOM     30  C   UNL     1       1.323  -4.292   5.538  0.00  0.00    +0.003 A 
ENDBRANCH  24  25
ENDBRANCH   5  24
TORSDOF 6
