REMARK  Name = ZINC12371747
REMARK  7 active torsions:
REMARK  status: ('A' for Active; 'I' for Inactive)
REMARK    1  A    between atoms: C_1  and  O_2
REMARK    2  A    between atoms: O_2  and  C_3
REMARK    3  A    between atoms: C_8  and  C_9
REMARK    4  A    between atoms: C_12  and  C_35
REMARK    5  A    between atoms: C_17  and  C_19
REMARK    6  A    between atoms: N_21  and  C_22
REMARK    7  A    between atoms: C_22  and  C_23
REMARK                            x       y       z     vdW  Elec       q    Type
REMARK                         _______ _______ _______ _____ _____    ______ ____
ROOT
ATOM      1  C   UNL     1       0.018  -2.829  -0.013  0.00  0.00    +0.108 C 
ATOM      2  C   UNL     1       0.529  -3.013   1.421  0.00  0.00    +0.063 C 
ATOM      3  C   UNL     1      -0.555  -3.675   2.280  0.00  0.00    +0.215 C 
ATOM      4  N   UNL     1      -1.054  -4.863   1.581  0.00  0.00    -0.237 N 
ATOM      5  C   UNL     1      -0.899  -5.075   0.240  0.00  0.00    +0.137 A 
ATOM      6  C   UNL     1      -1.470  -6.257  -0.067  0.00  0.00    +0.112 A 
ATOM      7  C   UNL     1      -2.001  -6.797   1.126  0.00  0.00    +0.167 A 
ATOM      8  N   UNL     1      -1.746  -5.952   2.110  0.00  0.00    -0.163 NA
ATOM      9 CL   UNL     1      -1.540  -6.983  -1.643  0.00  0.00    -0.078 Cl
ATOM     10  N   UNL     1      -0.244  -4.159  -0.597  0.00  0.00    -0.321 N 
ATOM     11  H   UNL     1       0.023  -4.384  -1.502  0.00  0.00    +0.148 HD
ENDROOT
BRANCH   1  17
ATOM     12  C   UNL     1      -1.200  -0.637   0.010  0.00  0.00    +0.125 A 
ATOM     13  C   UNL     1      -2.375   0.101   0.019  0.00  0.00    +0.046 A 
ATOM     14  C   UNL     1      -3.596  -0.545   0.027  0.00  0.00    +0.004 A 
ATOM     15  C   UNL     1      -3.648  -1.927   0.026  0.00  0.00    +0.001 A 
ATOM     16  C   UNL     1      -2.479  -2.665   0.017  0.00  0.00    +0.009 A 
ATOM     17  C   UNL     1      -1.255  -2.023   0.003  0.00  0.00    +0.014 A 
BRANCH  12  19
ATOM     18  C   UNL     1      -0.017   1.425   0.010  0.00  0.00    +0.277 C 
ATOM     19  O   UNL     1       0.002  -0.004   0.002  0.00  0.00    -0.495 OA
ENDBRANCH  12  19
ENDBRANCH   1  17
BRANCH   7  20
ATOM     20  C   UNL     1      -2.717  -8.083   1.252  0.00  0.00    +0.266 C 
ATOM     21  O   UNL     1      -2.893  -8.779   0.271  0.00  0.00    -0.268 OA
ATOM     22  N   UNL     1      -3.175  -8.484   2.454  0.00  0.00    -0.309 N 
ATOM     23  H   UNL     1      -3.035  -7.928   3.237  0.00  0.00    +0.149 HD
BRANCH  22  24
ATOM     24  C   UNL     1      -3.886  -9.759   2.579  0.00  0.00    +0.111 C 
BRANCH  24  25
ATOM     25  C   UNL     1      -4.296  -9.974   4.037  0.00  0.00    -0.013 C 
ATOM     26  C   UNL     1      -3.046  -9.998   4.920  0.00  0.00    +0.012 C 
ATOM     27  C   UNL     1      -3.457 -10.213   6.378  0.00  0.00    -0.010 C 
ATOM     28  C   UNL     1      -4.198 -11.544   6.508  0.00  0.00    +0.007 C 
ATOM     29  C   UNL     1      -5.448 -11.521   5.625  0.00  0.00    -0.010 C 
ATOM     30  C   UNL     1      -5.038 -11.306   4.167  0.00  0.00    +0.012 C 
ATOM     31  C   UNL     1      -6.365 -10.380   6.071  0.00  0.00    +0.007 C 
ATOM     32  C   UNL     1      -5.623  -9.048   5.941  0.00  0.00    -0.010 C 
ATOM     33  C   UNL     1      -4.374  -9.072   6.823  0.00  0.00    +0.007 C 
ATOM     34  C   UNL     1      -5.213  -8.834   4.482  0.00  0.00    +0.012 C 
ENDBRANCH  24  25
ENDBRANCH  22  24
ENDBRANCH   7  20
BRANCH   3  35
ATOM     35  C   UNL     1       0.040  -4.084   3.629  0.00  0.00    +0.412 C 
ATOM     36  F   UNL     1       0.527  -2.949   4.287  0.00  0.00    -0.168 F 
ATOM     37  F   UNL     1      -0.950  -4.688   4.411  0.00  0.00    -0.168 F 
ATOM     38  F   UNL     1       1.087  -4.988   3.422  0.00  0.00    -0.168 F 
ENDBRANCH   3  35
TORSDOF 6
