REMARK  Name = ZINC63558320
REMARK  10 active torsions:
REMARK  status: ('A' for Active; 'I' for Inactive)
REMARK    1  A    between atoms: C_1  and  O_2
REMARK    2  A    between atoms: O_2  and  C_3
REMARK    3  A    between atoms: C_6  and  C_13
REMARK    4  A    between atoms: C_7  and  O_11
REMARK    5  A    between atoms: C_8  and  O_9
REMARK    6  A    between atoms: O_9  and  C_10
REMARK    7  A    between atoms: O_11  and  C_12
REMARK    8  A    between atoms: C_13  and  N_14
REMARK    9  A    between atoms: N_17  and  S_20
REMARK   10  A    between atoms: S_20  and  C_23
REMARK                            x       y       z     vdW  Elec       q    Type
REMARK                         _______ _______ _______ _____ _____    ______ ____
ROOT
ATOM      1  N   UNL     1      -5.306  -3.061   1.404  0.00  0.00    -0.296 NA
ATOM      2  C   UNL     1      -5.496  -1.910   2.297  0.00  0.00    +0.102 C 
ATOM      3  C   UNL     1      -5.639  -2.406   3.740  0.00  0.00    +0.125 C 
ATOM      4  N   UNL     1      -6.712  -3.412   3.784  0.00  0.00    -0.174 NA
ATOM      5  C   UNL     1      -6.662  -4.525   2.823  0.00  0.00    +0.125 C 
ATOM      6  C   UNL     1      -6.479  -3.945   1.416  0.00  0.00    +0.102 C 
ENDROOT
BRANCH   4   7
ATOM      7  S   UNL     1      -7.942  -3.296   4.887  0.00  0.00    +0.061 S 
ATOM      8  O   UNL     1      -8.455  -4.609   5.064  0.00  0.00    -0.153 OA
ATOM      9  O   UNL     1      -7.445  -2.520   5.968  0.00  0.00    -0.153 OA
BRANCH   7  10
ATOM     10  C   UNL     1      -9.226  -2.350   4.137  0.00  0.00    +0.106 C 
ATOM     11  C   UNL     1     -10.400  -2.954   3.782  0.00  0.00    +0.035 C 
ATOM     12  C   UNL     1     -11.377  -2.094   3.246  0.00  0.00    -0.013 C 
ATOM     13  C   UNL     1     -12.356  -2.271   2.347  0.00  0.00    -0.021 C 
ATOM     14  C   UNL     1     -12.874  -3.584   1.803  0.00  0.00    +0.037 C 
ATOM     15  C   UNL     1     -14.198  -3.316   1.078  0.00  0.00    +0.005 C 
ATOM     16  C   UNL     1     -14.013  -2.160   0.091  0.00  0.00    +0.006 C 
ATOM     17  C   UNL     1     -13.908  -0.841   0.863  0.00  0.00    +0.055 C 
ATOM     18  C   UNL     1     -12.863  -1.004   1.947  0.00  0.00    +0.040 C 
ATOM     19  N   UNL     1     -12.335  -0.034   2.636  0.00  0.00    -0.276 NA
ATOM     20  C   UNL     1     -11.447  -0.624   3.625  0.00  0.00    +0.159 C 
ATOM     21  C   UNL     1     -10.046  -0.089   3.627  0.00  0.00    +0.006 C 
ATOM     22  C   UNL     1      -9.037  -0.922   3.900  0.00  0.00    +0.027 C 
ENDBRANCH   7  10
ENDBRANCH   4   7
BRANCH   1  23
ATOM     23  C   UNL     1      -4.994  -2.620   0.038  0.00  0.00    +0.123 C 
BRANCH  23  27
ATOM     24  C   UNL     1      -1.201  -0.638   0.010  0.00  0.00    +0.165 A 
ATOM     25  C   UNL     1      -2.375   0.101   0.019  0.00  0.00    +0.050 A 
ATOM     26  C   UNL     1      -3.598  -0.543   0.028  0.00  0.00    +0.012 A 
ATOM     27  C   UNL     1      -3.657  -1.924   0.028  0.00  0.00    +0.012 A 
ATOM     28  C   UNL     1      -2.488  -2.670   0.018  0.00  0.00    +0.170 A 
ATOM     29  C   UNL     1      -1.256  -2.026   0.003  0.00  0.00    +0.204 A 
BRANCH  24  31
ATOM     30  C   UNL     1      -0.017   1.425   0.010  0.00  0.00    +0.277 C 
ATOM     31  O   UNL     1       0.002  -0.004   0.002  0.00  0.00    -0.491 OA
ENDBRANCH  24  31
BRANCH  29  32
ATOM     32  O   UNL     1      -0.106  -2.755  -0.012  0.00  0.00    -0.488 OA
ATOM     33  C   UNL     1       0.454  -3.109   1.254  0.00  0.00    +0.277 C 
ENDBRANCH  29  32
BRANCH  28  34
ATOM     34  O   UNL     1      -2.547  -4.028   0.018  0.00  0.00    -0.491 OA
ATOM     35  C   UNL     1      -2.586  -4.676  -1.255  0.00  0.00    +0.277 C 
ENDBRANCH  28  34
ENDBRANCH  23  27
ENDBRANCH   1  23
TORSDOF 7
