REMARK  Name = ZINC52582618
REMARK  9 active torsions:
REMARK  status: ('A' for Active; 'I' for Inactive)
REMARK    1  A    between atoms: C_1  and  C_2
REMARK    2  A    between atoms: C_2  and  C_3
REMARK    3  A    between atoms: C_2  and  C_4
REMARK    4  A    between atoms: C_2  and  N_5
REMARK    5  A    between atoms: C_6  and  C_8
REMARK    6  A    between atoms: C_8  and  N_9
REMARK    7  A    between atoms: N_9  and  C_10
REMARK    8  A    between atoms: N_9  and  C_11
REMARK    9  A    between atoms: C_11  and  N_12
REMARK                            x       y       z     vdW  Elec       q    Type
REMARK                         _______ _______ _______ _____ _____    ______ ____
ROOT
ATOM      1  N   UNL     1       5.765   0.614  -4.184  0.00  0.00    -0.211 N 
ATOM      2  C   UNL     1       5.611   1.832  -4.751  0.00  0.00    +0.248 C 
ATOM      3  O   UNL     1       4.599   2.476  -4.879  0.00  0.00    -0.273 OA
ATOM      4  C   UNL     1       7.004   2.196  -5.235  0.00  0.00    +0.113 C 
ATOM      5  C   UNL     1       7.233   1.530  -6.591  0.00  0.00    +0.035 C 
ATOM      6  C   UNL     1       8.420   2.147  -7.330  0.00  0.00    +0.003 C 
ATOM      7  C   UNL     1       9.770   1.563  -6.876  0.00  0.00    +0.000 C 
ATOM      8  C   UNL     1      10.136   2.185  -5.516  0.00  0.00    +0.000 C 
ATOM      9  C   UNL     1       9.820   3.682  -5.533  0.00  0.00    +0.000 C 
ATOM     10  C   UNL     1       8.634   4.011  -4.633  0.00  0.00    +0.003 C 
ATOM     11  C   UNL     1       7.282   3.680  -5.264  0.00  0.00    +0.035 C 
ATOM     12  N   UNL     1       7.781   1.529  -4.169  0.00  0.00    -0.285 N 
ATOM     13  C   UNL     1       7.040   0.453  -3.810  0.00  0.00    +0.310 C 
ATOM     14  O   UNL     1       7.475  -0.515  -3.230  0.00  0.00    -0.252 OA
ATOM     15  H   UNL     1       8.571   1.816  -3.712  0.00  0.00    +0.151 HD
ENDROOT
BRANCH   1  16
ATOM     16  C   UNL     1       4.699  -0.361  -3.974  0.00  0.00    +0.205 C 
BRANCH  16  17
ATOM     17  N   UNL     1       4.055  -0.110  -2.677  0.00  0.00    -0.281 NA
ATOM     18  C   UNL     1       4.839  -0.691  -1.579  0.00  0.00    +0.107 C 
BRANCH  17  19
ATOM     19  C   UNL     1       2.677  -0.618  -2.667  0.00  0.00    +0.181 C 
BRANCH  19  21
ATOM     20  N   UNL     1       0.688  -0.476  -1.203  0.00  0.00    -0.310 N 
ATOM     21  C   UNL     1       1.972  -0.132  -1.427  0.00  0.00    +0.228 C 
ATOM     22  O   UNL     1       2.559   0.569  -0.630  0.00  0.00    -0.274 OA
ATOM     23  H   UNL     1       0.218  -1.037  -1.840  0.00  0.00    +0.149 HD
BRANCH  20  25
ATOM     24  C   UNL     1      -0.019   1.526   0.010  0.00  0.00    +0.031 C 
ATOM     25  C   UNL     1       0.002  -0.004   0.002  0.00  0.00    +0.026 C 
ATOM     26  C   UNL     1       0.742  -0.511   1.242  0.00  0.00    +0.031 C 
ATOM     27  C   UNL     1      -1.433  -0.534   0.013  0.00  0.00    +0.031 C 
ENDBRANCH  20  25
ENDBRANCH  19  21
ENDBRANCH  17  19
ENDBRANCH  16  17
ENDBRANCH   1  16
TORSDOF 5
