REMARK  Name = ZINC40038084
REMARK  9 active torsions:
REMARK  status: ('A' for Active; 'I' for Inactive)
REMARK    1  A    between atoms: C_1  and  C_2
REMARK    2  A    between atoms: C_2  and  O_3
REMARK    3  A    between atoms: O_3  and  C_4
REMARK    4  A    between atoms: C_4  and  C_6
REMARK    5  A    between atoms: C_10  and  N_11
REMARK    6  A    between atoms: C_12  and  C_14
REMARK    7  A    between atoms: C_15  and  C_25
REMARK    8  A    between atoms: C_18  and  C_24
REMARK    9  A    between atoms: C_20  and  C_23
REMARK                            x       y       z     vdW  Elec       q    Type
REMARK                         _______ _______ _______ _____ _____    ______ ____
ROOT
ATOM      1  N   UNL     1      -3.035  -2.523   2.497  0.00  0.00    -0.273 N 
ATOM      2  C   UNL     1      -3.810  -2.866   3.545  0.00  0.00    +0.284 C 
ATOM      3  O   UNL     1      -4.915  -3.340   3.355  0.00  0.00    -0.266 OA
ATOM      4  H   UNL     1      -2.154  -2.146   2.649  0.00  0.00    +0.156 HD
ENDROOT
BRANCH   2   5
ATOM      5  C   UNL     1      -3.321  -2.670   4.916  0.00  0.00    +0.194 A 
ATOM      6  C   UNL     1      -4.010  -2.983   6.045  0.00  0.00    +0.008 A 
ATOM      7  C   UNL     1      -3.142  -2.618   7.163  0.00  0.00    +0.024 A 
ATOM      8  C   UNL     1      -3.264  -2.687   8.553  0.00  0.00    +0.015 A 
ATOM      9  C   UNL     1      -2.241  -2.249   9.346  0.00  0.00    -0.049 A 
ATOM     10  C   UNL     1      -1.082  -1.738   8.779  0.00  0.00    +0.010 A 
ATOM     11  C   UNL     1      -0.941  -1.661   7.410  0.00  0.00    -0.007 A 
ATOM     12  C   UNL     1      -1.969  -2.100   6.583  0.00  0.00    +0.139 A 
ATOM     13  O   UNL     1      -2.117  -2.156   5.245  0.00  0.00    -0.450 OA
ATOM     14  C   UNL     1       0.323  -1.101   6.811  0.00  0.00    +0.047 C 
ATOM     15  C   UNL     1      -2.371  -2.323  10.845  0.00  0.00    +0.044 C 
ATOM     16  C   UNL     1      -5.390  -3.583   6.126  0.00  0.00    +0.048 C 
ENDBRANCH   2   5
BRANCH   1  21
ATOM     17  C   UNL     1      -2.842  -2.416   0.016  0.00  0.00    +0.091 A 
ATOM     18  C   UNL     1      -3.548  -2.714  -1.219  0.00  0.00    -0.021 A 
ATOM     19  C   UNL     1      -4.777  -3.243  -1.039  0.00  0.00    -0.004 A 
ATOM     20  S   UNL     1      -4.974  -3.336   0.716  0.00  0.00    -0.077 S 
ATOM     21  C   UNL     1      -3.495  -2.708   1.205  0.00  0.00    +0.087 A 
ATOM     22  C   UNL     1      -5.745  -3.652  -2.106  0.00  0.00    +0.043 C 
ATOM     23  C   UNL     1      -5.287  -3.033  -3.435  0.00  0.00    +0.005 C 
ATOM     24  C   UNL     1      -3.790  -3.299  -3.616  0.00  0.00    +0.005 C 
ATOM     25  C   UNL     1      -2.988  -2.468  -2.612  0.00  0.00    +0.037 C 
BRANCH  17  26
ATOM     26  C   UNL     1      -1.497  -1.838   0.006  0.00  0.00    +0.342 C 
ATOM     27  O   UNL     1      -0.522  -2.566  -0.007  0.00  0.00    -0.245 OA
BRANCH  26  28
ATOM     28  O   UNL     1      -1.339  -0.499   0.012  0.00  0.00    -0.461 OA
BRANCH  28  30
ATOM     29  C   UNL     1      -0.019   1.526   0.010  0.00  0.00    +0.048 C 
ATOM     30  C   UNL     1       0.002  -0.004   0.002  0.00  0.00    +0.229 C 
ENDBRANCH  28  30
ENDBRANCH  26  28
ENDBRANCH  17  26
ENDBRANCH   1  21
TORSDOF 5
