REMARK  Name = ZINC19684784
REMARK  11 active torsions:
REMARK  status: ('A' for Active; 'I' for Inactive)
REMARK    1  A    between atoms: C_1  and  C_2
REMARK    2  A    between atoms: C_3  and  C_29
REMARK    3  A    between atoms: C_4  and  C_28
REMARK    4  A    between atoms: C_5  and  S_10
REMARK    5  A    between atoms: C_6  and  C_9
REMARK    6  A    between atoms: C_7  and  C_8
REMARK    7  A    between atoms: S_10  and  N_13
REMARK    8  A    between atoms: N_13  and  C_14
REMARK    9  A    between atoms: C_14  and  C_15
REMARK   10  A    between atoms: C_15  and  C_16
REMARK   11  A    between atoms: C_16  and  N_17
REMARK                            x       y       z     vdW  Elec       q    Type
REMARK                         _______ _______ _______ _____ _____    ______ ____
ROOT
ATOM      1  N   UNL     1      -3.298   3.634   5.444  0.00  0.00    -0.190 NA
ATOM      2  H   UNL     1      -2.728   4.146   6.233  0.00  0.00    +0.148 HD
ENDROOT
BRANCH   1   3
ATOM      3  S   UNL     1      -2.956   2.051   5.097  0.00  0.00    +0.059 S 
ATOM      4  O   UNL     1      -4.200   1.413   4.846  0.00  0.00    -0.153 OA
ATOM      5  O   UNL     1      -2.057   1.600   6.101  0.00  0.00    -0.153 OA
BRANCH   3  10
ATOM      6  C   UNL     1       0.097   1.988  -0.107  0.00  0.00    +0.044 C 
ATOM      7  C   UNL     1      -0.665   2.004   1.193  0.00  0.00    -0.044 A 
ATOM      8  C   UNL     1       0.010   2.157   2.389  0.00  0.00    -0.043 A 
ATOM      9  C   UNL     1      -0.690   2.176   3.581  0.00  0.00    -0.021 A 
ATOM     10  C   UNL     1      -2.065   2.033   3.577  0.00  0.00    +0.112 A 
ATOM     11  C   UNL     1      -2.740   1.874   2.382  0.00  0.00    -0.021 A 
ATOM     12  C   UNL     1      -2.040   1.860   1.189  0.00  0.00    -0.043 A 
ATOM     13  C   UNL     1      -2.776   1.686  -0.114  0.00  0.00    +0.044 C 
ATOM     14  C   UNL     1      -4.239   1.716   2.378  0.00  0.00    +0.046 C 
ATOM     15  C   UNL     1       0.046   2.349   4.884  0.00  0.00    +0.046 C 
ATOM     16  C   UNL     1       1.510   2.308   2.393  0.00  0.00    +0.044 C 
ENDBRANCH   3  10
ENDBRANCH   1   3
BRANCH   1  17
ATOM     17  C   UNL     1      -4.189   4.400   4.569  0.00  0.00    +0.107 C 
BRANCH  17  18
ATOM     18  C   UNL     1      -4.636   5.675   5.287  0.00  0.00    +0.036 C 
BRANCH  18  19
ATOM     19  C   UNL     1      -5.566   6.475   4.373  0.00  0.00    +0.119 C 
BRANCH  19  20
ATOM     20  N   UNL     1      -5.994   7.697   5.060  0.00  0.00    -0.224 N 
ATOM     21  C   UNL     1      -5.335   8.874   4.997  0.00  0.00    +0.246 C 
ATOM     22  O   UNL     1      -4.317   9.115   4.385  0.00  0.00    -0.273 OA
ATOM     23  C   UNL     1      -6.137   9.824   5.849  0.00  0.00    +0.113 C 
ATOM     24  C   UNL     1      -6.637  11.017   5.024  0.00  0.00    +0.035 C 
ATOM     25  C   UNL     1      -6.588  12.207   6.017  0.00  0.00    +0.003 C 
ATOM     26  C   UNL     1      -5.305  11.919   6.837  0.00  0.00    +0.003 C 
ATOM     27  C   UNL     1      -5.297  10.382   7.000  0.00  0.00    +0.035 C 
ATOM     28  N   UNL     1      -7.255   9.019   6.345  0.00  0.00    -0.285 N 
ATOM     29  C   UNL     1      -7.090   7.786   5.825  0.00  0.00    +0.309 C 
ATOM     30  O   UNL     1      -7.849   6.859   6.030  0.00  0.00    -0.252 OA
ATOM     31  H   UNL     1      -8.007   9.471   7.008  0.00  0.00    +0.151 HD
ENDBRANCH  19  20
ENDBRANCH  18  19
ENDBRANCH  17  18
ENDBRANCH   1  17
TORSDOF 6
