REMARK  Name = ZINC37022502
REMARK  4 active torsions:
REMARK  status: ('A' for Active; 'I' for Inactive)
REMARK    1  A    between atoms: C_8  and  C_10
REMARK    2  A    between atoms: C_10  and  S_11
REMARK    3  A    between atoms: S_11  and  C_12
REMARK    4  A    between atoms: C_18  and  N_20
REMARK                            x       y       z     vdW  Elec       q    Type
REMARK                         _______ _______ _______ _____ _____    ______ ____
ROOT
ATOM      1  S   UNL     1       3.333  -4.622  -1.765  0.00  0.00    -0.082 S 
ENDROOT
BRANCH   1   2
ATOM      2  C   UNL     1       3.869  -6.293  -1.611  0.00  0.00    +0.171 A 
ATOM      3  N   UNL     1       4.099  -7.027  -2.736  0.00  0.00    -0.302 N 
ATOM      4  H   UNL     1       3.969  -6.627  -3.609  0.00  0.00    +0.171 HD
ATOM      5  C   UNL     1       4.510  -8.308  -2.636  0.00  0.00    +0.254 A 
ATOM      6  O   UNL     1       4.720  -8.972  -3.639  0.00  0.00    -0.268 OA
ATOM      7  C   UNL     1       4.692  -8.863  -1.365  0.00  0.00    +0.113 A 
ATOM      8  C   UNL     1       4.443  -8.073  -0.251  0.00  0.00    +0.124 A 
ATOM      9  N   UNL     1       4.043  -6.807  -0.410  0.00  0.00    -0.209 NA
BRANCH   8  10
ATOM     10  N   UNL     1       4.613  -8.592   1.017  0.00  0.00    -0.343 N 
ATOM     11  H   UNL     1       4.907  -9.509   1.131  0.00  0.00    +0.144 HD
ATOM     12  H   UNL     1       4.439  -8.039   1.794  0.00  0.00    +0.144 HD
ENDBRANCH   8  10
ENDBRANCH   1   2
BRANCH   1  13
ATOM     13  C   UNL     1       3.166  -4.055  -0.050  0.00  0.00    +0.121 C 
BRANCH  13  21
ATOM     14  C   UNL     1      -0.016   1.355   0.009  0.00  0.00    +0.001 A 
ATOM     15  C   UNL     1       1.157   2.097   0.002  0.00  0.00    +0.001 A 
ATOM     16  C   UNL     1       2.374   1.445  -0.013  0.00  0.00    +0.016 A 
ATOM     17  C   UNL     1       2.406   0.067  -0.020  0.00  0.00    +0.021 A 
ATOM     18  C   UNL     1       1.228  -0.711  -0.013  0.00  0.00    +0.008 A 
ATOM     19  C   UNL     1       0.002  -0.004   0.002  0.00  0.00    +0.010 A 
ATOM     20  C   UNL     1       1.451  -2.150  -0.024  0.00  0.00    +0.060 A 
ATOM     21  C   UNL     1       2.707  -2.619  -0.038  0.00  0.00    +0.019 A 
ATOM     22  S   UNL     1       3.704  -1.142  -0.040  0.00  0.00    -0.091 S 
ATOM     23 CL   UNL     1       0.104  -3.245  -0.016  0.00  0.00    -0.082 Cl
ENDBRANCH  13  21
ENDBRANCH   1  13
TORSDOF 4
