REMARK  Name = ZINC12937116
REMARK  9 active torsions:
REMARK  status: ('A' for Active; 'I' for Inactive)
REMARK    1  A    between atoms: C_1  and  C_2
REMARK    2  A    between atoms: C_2  and  O_3
REMARK    3  A    between atoms: O_3  and  C_4
REMARK    4  A    between atoms: C_7  and  S_10
REMARK    5  A    between atoms: S_10  and  N_13
REMARK    6  A    between atoms: C_16  and  C_19
REMARK    7  A    between atoms: N_21  and  C_22
REMARK    8  A    between atoms: C_22  and  C_23
REMARK    9  A    between atoms: C_23  and  N_75
REMARK                            x       y       z     vdW  Elec       q    Type
REMARK                         _______ _______ _______ _____ _____    ______ ____
ROOT
ATOM      1  N   UNL     1       4.442   6.924   2.328  0.00  0.00    -0.177 NA
ATOM      2  C   UNL     1       3.684   7.523   1.222  0.00  0.00    +0.110 C 
ATOM      3  C   UNL     1       2.246   6.996   1.268  0.00  0.00    +0.030 C 
ATOM      4  C   UNL     1       2.267   5.466   1.259  0.00  0.00    +0.077 C 
ATOM      5  C   UNL     1       3.007   4.958   2.498  0.00  0.00    +0.030 C 
ATOM      6  C   UNL     1       4.454   5.461   2.466  0.00  0.00    +0.110 C 
ENDROOT
BRANCH   4   7
ATOM      7  C   UNL     1       0.853   4.944   1.270  0.00  0.00    +0.216 C 
ATOM      8  O   UNL     1      -0.079   5.720   1.283  0.00  0.00    -0.276 OA
ATOM      9  N   UNL     1       0.625   3.616   1.265  0.00  0.00    -0.316 N 
ATOM     10  H   UNL     1       1.371   2.996   1.254  0.00  0.00    +0.149 HD
BRANCH   9  11
ATOM     11  C   UNL     1      -0.750   3.109   1.275  0.00  0.00    +0.092 C 
BRANCH  11  12
ATOM     12  C   UNL     1      -0.729   1.579   1.267  0.00  0.00    -0.050 C 
ATOM     13  C   UNL     1      -0.013   1.086   0.008  0.00  0.00    -0.010 C 
ATOM     14  C   UNL     1      -0.753   1.593  -1.232  0.00  0.00    -0.001 C 
ATOM     15  C   UNL     1      -2.188   1.063  -1.221  0.00  0.00    -0.000 C 
ATOM     16  C   UNL     1      -2.904   1.556   0.038  0.00  0.00    -0.001 C 
ATOM     17  C   UNL     1      -2.164   1.050   1.278  0.00  0.00    -0.010 C 
BRANCH  12  23
ATOM     18  C   UNL     1       0.109  -0.370   2.433  0.00  0.00    -0.078 C 
ATOM     19  C   UNL     1       0.976  -0.828   3.607  0.00  0.00    -0.019 C 
ATOM     20  C   UNL     1       0.331  -0.375   4.919  0.00  0.00    -0.004 C 
ATOM     21  C   UNL     1       0.165   1.147   4.899  0.00  0.00    -0.019 C 
ATOM     22  C   UNL     1      -0.679   1.548   3.687  0.00  0.00    -0.078 C 
ATOM     23  N   UNL     1       0.009   1.105   2.456  0.00  0.00    +0.384 N 
ATOM     24  H   UNL     1       0.956   1.502   2.441  0.00  0.00    -0.081 HD
ENDBRANCH  12  23
ENDBRANCH  11  12
ENDBRANCH   9  11
ENDBRANCH   4   7
BRANCH   1  25
ATOM     25  S   UNL     1       5.269   7.879   3.399  0.00  0.00    +0.061 S 
ATOM     26  O   UNL     1       6.298   7.071   3.954  0.00  0.00    -0.153 OA
ATOM     27  O   UNL     1       5.540   9.102   2.727  0.00  0.00    -0.153 OA
BRANCH  25  31
ATOM     28  C   UNL     1       2.429   8.863   6.785  0.00  0.00    +0.121 A 
ATOM     29  C   UNL     1       3.230   7.733   6.857  0.00  0.00    +0.047 A 
ATOM     30  C   UNL     1       4.096   7.435   5.822  0.00  0.00    +0.032 A 
ATOM     31  C   UNL     1       4.164   8.262   4.716  0.00  0.00    +0.106 A 
ATOM     32  C   UNL     1       3.370   9.392   4.645  0.00  0.00    +0.032 A 
ATOM     33  C   UNL     1       2.499   9.691   5.675  0.00  0.00    +0.047 A 
BRANCH  28  34
ATOM     34  O   UNL     1       1.576   9.158   7.801  0.00  0.00    -0.492 OA
BRANCH  34  36
ATOM     35  C   UNL     1      -0.110  10.504   8.893  0.00  0.00    +0.048 C 
ATOM     36  C   UNL     1       0.781  10.338   7.660  0.00  0.00    +0.225 C 
ENDBRANCH  34  36
ENDBRANCH  28  34
ENDBRANCH  25  31
ENDBRANCH   1  25
TORSDOF 8
