REMARK  Name = ZINC16563377
REMARK  14 active torsions:
REMARK  status: ('A' for Active; 'I' for Inactive)
REMARK    1  A    between atoms: C_1  and  C_2
REMARK    2  A    between atoms: C_2  and  N_63
REMARK    3  A    between atoms: C_3  and  C_4
REMARK    4  A    between atoms: C_3  and  N_63
REMARK    5  A    between atoms: N_6  and  C_7
REMARK    6  A    between atoms: C_12  and  C_13
REMARK    7  A    between atoms: N_15  and  C_16
REMARK    8  A    between atoms: C_16  and  C_18
REMARK    9  A    between atoms: C_16  and  C_19
REMARK   10  A    between atoms: C_25  and  C_26
REMARK   11  A    between atoms: C_25  and  N_63
REMARK   12  A    between atoms: N_28  and  C_29
REMARK   13  A    between atoms: C_29  and  C_30
REMARK   14  A    between atoms: C_29  and  C_31
REMARK                            x       y       z     vdW  Elec       q    Type
REMARK                         _______ _______ _______ _____ _____    ______ ____
ROOT
ATOM      1  C   UNL     1      -2.429   1.442   0.087  0.00  0.00    +0.045 A 
ATOM      2  C   UNL     1      -2.369   0.325   0.911  0.00  0.00    +0.024 A 
ATOM      3  C   UNL     1      -3.492  -0.452   1.106  0.00  0.00    +0.002 A 
ATOM      4  C   UNL     1      -4.685  -0.131   0.477  0.00  0.00    +0.001 A 
ATOM      5  C   UNL     1      -4.762   0.970  -0.347  0.00  0.00    +0.015 A 
ATOM      6  C   UNL     1      -3.635   1.769  -0.551  0.00  0.00    +0.058 A 
ENDROOT
BRANCH   1   9
ATOM      7  C   UNL     1      -0.077   1.659  -0.142  0.00  0.00    +0.201 C 
ATOM      8  O   UNL     1       0.029   0.451  -0.109  0.00  0.00    -0.278 OA
ATOM      9  N   UNL     1      -1.297   2.229  -0.108  0.00  0.00    -0.286 N 
ATOM     10  H   UNL     1      -1.388   3.189  -0.220  0.00  0.00    +0.155 HD
BRANCH   7  11
ATOM     11  C   UNL     1       1.156   2.522  -0.228  0.00  0.00    +0.020 C 
BRANCH  11  12
ATOM     12  N   UNL     1       2.349   1.655  -0.123  0.00  0.00    +0.391 N 
ATOM     13  H   UNL     1       2.186   0.951   0.607  0.00  0.00    -0.080 HD
BRANCH  12  15
ATOM     14  C   UNL     1       3.355   2.970   1.678  0.00  0.00    -0.017 C 
ATOM     15  C   UNL     1       3.530   2.463   0.245  0.00  0.00    -0.081 C 
ENDBRANCH  12  15
BRANCH  12  16
ATOM     16  C   UNL     1       2.587   0.967  -1.409  0.00  0.00    +0.019 C 
BRANCH  16  17
ATOM     17  C   UNL     1       3.665  -0.069  -1.213  0.00  0.00    +0.197 C 
ATOM     18  O   UNL     1       4.186  -0.204  -0.126  0.00  0.00    -0.278 OA
ATOM     19  N   UNL     1       4.049  -0.845  -2.246  0.00  0.00    -0.315 N 
ATOM     20  H   UNL     1       3.632  -0.737  -3.115  0.00  0.00    +0.149 HD
BRANCH  19  21
ATOM     21  C   UNL     1       5.096  -1.852  -2.056  0.00  0.00    +0.067 C 
ATOM     22  C   UNL     1       4.928  -2.964  -3.092  0.00  0.00    +0.027 C 
ATOM     23  C   UNL     1       6.469  -1.198  -2.227  0.00  0.00    +0.027 C 
ENDBRANCH  19  21
ENDBRANCH  16  17
ENDBRANCH  12  16
ENDBRANCH  11  12
ENDBRANCH   7  11
ENDBRANCH   1   9
BRANCH   6  24
ATOM     24  C   UNL     1      -3.711   2.949  -1.433  0.00  0.00    +0.246 C 
ATOM     25  O   UNL     1      -2.705   3.582  -1.689  0.00  0.00    -0.270 OA
ATOM     26  N   UNL     1      -4.896   3.326  -1.953  0.00  0.00    -0.305 N 
ATOM     27  H   UNL     1      -5.698   2.821  -1.749  0.00  0.00    +0.150 HD
BRANCH  26  28
ATOM     28  C   UNL     1      -4.971   4.498  -2.829  0.00  0.00    +0.100 C 
ATOM     29  C   UNL     1      -4.638   4.086  -4.264  0.00  0.00    +0.033 C 
BRANCH  28  30
ATOM     30  C   UNL     1      -6.364   5.071  -2.781  0.00  0.00    -0.027 A 
ATOM     31  C   UNL     1      -7.459   4.227  -2.762  0.00  0.00    +0.005 A 
ATOM     32  C   UNL     1      -8.736   4.753  -2.714  0.00  0.00    +0.000 A 
ATOM     33  C   UNL     1      -8.920   6.122  -2.696  0.00  0.00    +0.000 A 
ATOM     34  C   UNL     1      -7.826   6.967  -2.720  0.00  0.00    +0.000 A 
ATOM     35  C   UNL     1      -6.548   6.441  -2.763  0.00  0.00    +0.005 A 
ENDBRANCH  28  30
ENDBRANCH  26  28
ENDBRANCH   6  24
TORSDOF 10
