REMARK  Name = ZINC07191854
REMARK  8 active torsions:
REMARK  status: ('A' for Active; 'I' for Inactive)
REMARK    1  A    between atoms: C_1  and  C_2
REMARK    2  A    between atoms: C_2  and  N_3
REMARK    3  A    between atoms: C_7  and  S_22
REMARK    4  A    between atoms: C_11  and  C_12
REMARK    5  A    between atoms: C_12  and  N_63
REMARK    6  A    between atoms: C_14  and  C_21
REMARK    7  A    between atoms: C_17  and  C_20
REMARK    8  A    between atoms: S_22  and  N_25
REMARK                            x       y       z     vdW  Elec       q    Type
REMARK                         _______ _______ _______ _____ _____    ______ ____
ROOT
ATOM      1  N   UNL     1      -0.016   1.356   0.009  0.00  0.00    -0.329 N 
ATOM      2  C   UNL     1       1.296   1.785  -0.001  0.00  0.00    +0.069 A 
ATOM      3  C   UNL     1       1.906   3.032  -0.001  0.00  0.00    +0.030 A 
ATOM      4  C   UNL     1       3.282   3.119  -0.014  0.00  0.00    +0.030 A 
ATOM      5  C   UNL     1       4.059   1.970  -0.027  0.00  0.00    +0.108 A 
ATOM      6  C   UNL     1       3.476   0.734  -0.028  0.00  0.00    +0.058 A 
ATOM      7  C   UNL     1       2.084   0.621  -0.015  0.00  0.00    +0.091 A 
ATOM      8  N   UNL     1       1.230  -0.434  -0.012  0.00  0.00    -0.234 NA
ATOM      9  C   UNL     1       0.002  -0.004   0.002  0.00  0.00    +0.094 A 
ENDROOT
BRANCH   5  10
ATOM     10  S   UNL     1       5.816   2.105  -0.044  0.00  0.00    +0.061 S 
ATOM     11  O   UNL     1       6.130   3.376   0.510  0.00  0.00    -0.153 OA
ATOM     12  O   UNL     1       6.322   0.892   0.496  0.00  0.00    -0.153 OA
BRANCH  10  13
ATOM     13  N   UNL     1       6.289   2.151  -1.630  0.00  0.00    -0.177 NA
ATOM     14  C   UNL     1       6.606   0.911  -2.353  0.00  0.00    +0.109 C 
ATOM     15  C   UNL     1       5.768   0.868  -3.639  0.00  0.00    +0.017 C 
ATOM     16  C   UNL     1       6.014   2.145  -4.445  0.00  0.00    +0.003 C 
ATOM     17  C   UNL     1       5.575   3.361  -3.625  0.00  0.00    +0.017 C 
ATOM     18  C   UNL     1       6.405   3.432  -2.340  0.00  0.00    +0.109 C 
ENDBRANCH  10  13
ENDBRANCH   5  10
BRANCH   1  20
ATOM     19  C   UNL     1      -1.616   2.497   1.466  0.00  0.00    +0.027 C 
ATOM     20  C   UNL     1      -1.208   2.208   0.020  0.00  0.00    +0.120 C 
ENDBRANCH   1  20
BRANCH   9  21
ATOM     21  C   UNL     1      -1.221  -0.884   0.009  0.00  0.00    -0.003 C 
BRANCH  21  29
ATOM     22  C   UNL     1      -2.080   0.063  -2.047  0.00  0.00    -0.075 C 
ATOM     23  C   UNL     1      -2.360  -0.236  -3.522  0.00  0.00    -0.031 C 
ATOM     24  C   UNL     1      -3.438  -1.319  -3.622  0.00  0.00    +0.003 C 
ATOM     25  C   UNL     1      -2.966  -2.568  -2.872  0.00  0.00    -0.031 C 
ATOM     26  C   UNL     1      -2.669  -2.201  -1.417  0.00  0.00    -0.075 C 
ATOM     27  C   UNL     1      -1.697  -3.111  -3.532  0.00  0.00    +0.005 C 
ATOM     28  C   UNL     1      -2.848   1.036  -4.217  0.00  0.00    +0.005 C 
ATOM     29  N   UNL     1      -1.607  -1.173  -1.388  0.00  0.00    +0.385 N 
ATOM     30  H   UNL     1      -0.787  -1.527  -1.894  0.00  0.00    -0.081 HD
ENDBRANCH  21  29
ENDBRANCH   9  21
TORSDOF 5
