REMARK  Name = ZINC43527126
REMARK  8 active torsions:
REMARK  status: ('A' for Active; 'I' for Inactive)
REMARK    1  A    between atoms: C_1  and  C_2
REMARK    2  A    between atoms: N_5  and  C_8
REMARK    3  A    between atoms: C_8  and  C_9
REMARK    4  A    between atoms: C_18  and  C_20
REMARK    5  A    between atoms: C_20  and  N_21
REMARK    6  A    between atoms: N_21  and  C_22
REMARK    7  A    between atoms: C_22  and  N_24
REMARK    8  A    between atoms: N_24  and  C_25
REMARK                            x       y       z     vdW  Elec       q    Type
REMARK                         _______ _______ _______ _____ _____    ______ ____
ROOT
ATOM      1  C   UNL     1       0.748  -4.655   3.187  0.00  0.00    -0.041 C 
ATOM      2  C   UNL     1      -0.436  -4.186   4.035  0.00  0.00    -0.076 C 
ATOM      3  N   UNL     1      -0.891  -5.273   4.906  0.00  0.00    +0.383 N 
ATOM      4  C   UNL     1      -1.346  -6.415   4.111  0.00  0.00    -0.078 C 
ATOM      5  C   UNL     1      -0.192  -6.958   3.265  0.00  0.00    -0.015 C 
ATOM      6  C   UNL     1       1.065  -6.115   3.538  0.00  0.00    -0.015 C 
ATOM      7  C   UNL     1       1.383  -6.194   5.037  0.00  0.00    -0.010 C 
ATOM      8  C   UNL     1       0.175  -5.676   5.826  0.00  0.00    -0.051 C 
ATOM      9  H   UNL     1      -1.673  -4.940   5.450  0.00  0.00    -0.081 HD
ENDROOT
BRANCH   1  10
ATOM     10  C   UNL     1       0.390  -4.551   1.703  0.00  0.00    -0.077 C 
BRANCH  10  15
ATOM     11  C   UNL     1       0.456   0.706  -0.507  0.00  0.00    +0.007 C 
ATOM     12  C   UNL     1       0.746  -0.771  -0.232  0.00  0.00    -0.018 C 
ATOM     13  C   UNL     1      -0.540  -1.585  -0.401  0.00  0.00    -0.016 C 
ATOM     14  C   UNL     1      -0.261  -3.048  -0.047  0.00  0.00    -0.079 C 
ATOM     15  N   UNL     1       0.198  -3.139   1.344  0.00  0.00    +0.380 N 
ATOM     16  C   UNL     1       1.469  -2.420   1.497  0.00  0.00    -0.079 C 
ATOM     17  C   UNL     1       1.256  -0.934   1.203  0.00  0.00    -0.016 C 
ATOM     18  H   UNL     1      -0.494  -2.730   1.954  0.00  0.00    -0.082 HD
ENDBRANCH  10  15
ENDBRANCH   1  10
BRANCH   8  19
ATOM     19  C   UNL     1      -0.342  -6.782   6.749  0.00  0.00    +0.088 C 
BRANCH  19  20
ATOM     20  N   UNL     1      -1.557  -6.324   7.426  0.00  0.00    -0.328 N 
ATOM     21  H   UNL     1      -1.905  -5.435   7.251  0.00  0.00    +0.148 HD
BRANCH  20  22
ATOM     22  C   UNL     1      -2.192  -7.136   8.294  0.00  0.00    +0.134 C 
ATOM     23  S   UNL     1      -1.579  -8.704   8.604  0.00  0.00    -0.019 S 
BRANCH  22  24
ATOM     24  N   UNL     1      -3.311  -6.715   8.917  0.00  0.00    -0.297 N 
ATOM     25  H   UNL     1      -3.624  -5.806   8.789  0.00  0.00    +0.154 HD
BRANCH  24  26
ATOM     26  C   UNL     1      -4.019  -7.589   9.748  0.00  0.00    +0.033 A 
ATOM     27  C   UNL     1      -3.342  -8.374  10.672  0.00  0.00    +0.023 A 
ATOM     28  C   UNL     1      -4.044  -9.235  11.492  0.00  0.00    +0.002 A 
ATOM     29  C   UNL     1      -5.421  -9.316  11.394  0.00  0.00    +0.000 A 
ATOM     30  C   UNL     1      -6.099  -8.536  10.475  0.00  0.00    +0.002 A 
ATOM     31  C   UNL     1      -5.403  -7.669   9.656  0.00  0.00    +0.023 A 
ENDBRANCH  24  26
ENDBRANCH  22  24
ENDBRANCH  20  22
ENDBRANCH  19  20
ENDBRANCH   8  19
TORSDOF 7
