REMARK  Name = ZINC53126100
REMARK  8 active torsions:
REMARK  status: ('A' for Active; 'I' for Inactive)
REMARK    1  A    between atoms: C_1  and  C_2
REMARK    2  A    between atoms: C_7  and  C_9
REMARK    3  A    between atoms: C_7  and  N_11
REMARK    4  A    between atoms: C_9  and  O_10
REMARK    5  A    between atoms: N_11  and  C_12
REMARK    6  A    between atoms: C_12  and  C_13
REMARK    7  A    between atoms: N_17  and  C_22
REMARK    8  A    between atoms: N_20  and  C_21
REMARK                            x       y       z     vdW  Elec       q    Type
REMARK                         _______ _______ _______ _____ _____    ______ ____
ROOT
ATOM      1  N   UNL     1       1.048  -2.598   0.251  0.00  0.00    +0.388 N 
ATOM      2  H   UNL     1       1.010  -3.603   0.330  0.00  0.00    -0.084 HD
ATOM      3  H   UNL     1       0.576  -2.308  -0.592  0.00  0.00    -0.084 HD
ENDROOT
BRANCH   1   9
ATOM      4  C   UNL     1      -0.475   1.397  -0.201  0.00  0.00    +0.007 C 
ATOM      5  C   UNL     1      -0.434  -0.123  -0.028  0.00  0.00    -0.015 C 
ATOM      6  C   UNL     1      -1.861  -0.661   0.088  0.00  0.00    +0.003 C 
ATOM      7  C   UNL     1      -1.820  -2.181   0.261  0.00  0.00    -0.001 C 
ATOM      8  C   UNL     1      -1.039  -2.529   1.530  0.00  0.00    -0.010 C 
ATOM      9  C   UNL     1       0.388  -1.990   1.415  0.00  0.00    -0.044 C 
ATOM     10  C   UNL     1       0.347  -0.470   1.241  0.00  0.00    -0.007 C 
BRANCH   9  11
ATOM     11  C   UNL     1       1.169  -2.337   2.683  0.00  0.00    +0.143 C 
BRANCH  11  12
ATOM     12  O   UNL     1       1.319  -3.756   2.777  0.00  0.00    -0.396 OA
ATOM     13  H   UNL     1       1.805  -4.049   3.560  0.00  0.00    +0.209 HD
ENDBRANCH  11  12
ENDBRANCH   9  11
ENDBRANCH   1   9
BRANCH   1  14
ATOM     14  C   UNL     1       2.450  -2.163   0.202  0.00  0.00    -0.027 C 
BRANCH  14  15
ATOM     15  C   UNL     1       3.091  -2.677  -1.062  0.00  0.00    +0.011 A 
ATOM     16  C   UNL     1       3.480  -1.813  -2.024  0.00  0.00    +0.090 A 
ATOM     17  C   UNL     1       4.080  -2.320  -3.202  0.00  0.00    +0.256 A 
ATOM     18  O   UNL     1       4.439  -1.561  -4.084  0.00  0.00    -0.268 OA
ATOM     19  N   UNL     1       4.250  -3.650  -3.339  0.00  0.00    -0.264 N 
ATOM     20  C   UNL     1       3.853  -4.489  -2.363  0.00  0.00    +0.332 A 
ATOM     21  O   UNL     1       4.014  -5.686  -2.500  0.00  0.00    -0.246 OA
ATOM     22  N   UNL     1       3.287  -4.019  -1.237  0.00  0.00    -0.302 N 
ATOM     23  C   UNL     1       2.870  -4.956  -0.190  0.00  0.00    +0.153 C 
ATOM     24  C   UNL     1       4.870  -4.186  -4.554  0.00  0.00    +0.157 C 
ENDBRANCH  14  15
ENDBRANCH   1  14
TORSDOF 5
