REMARK  Name = ZINC00694496
REMARK  7 active torsions:
REMARK  status: ('A' for Active; 'I' for Inactive)
REMARK    1  A    between atoms: C_1  and  C_2
REMARK    2  A    between atoms: C_2  and  C_3
REMARK    3  A    between atoms: C_4  and  C_23
REMARK    4  A    between atoms: C_5  and  N_10
REMARK    5  A    between atoms: C_7  and  C_9
REMARK    6  A    between atoms: C_16  and  C_18
REMARK    7  A    between atoms: C_23  and  C_24
REMARK                            x       y       z     vdW  Elec       q    Type
REMARK                         _______ _______ _______ _____ _____    ______ ____
ROOT
ATOM      1  C   UNL     1       3.880   1.389  -2.430  0.00  0.00    +0.050 A 
ATOM      2  C   UNL     1       3.104   0.634  -1.573  0.00  0.00    +0.018 A 
ATOM      3  C   UNL     1       2.355  -0.415  -2.108  0.00  0.00    +0.129 A 
ATOM      4  N   UNL     1       2.408  -0.641  -3.418  0.00  0.00    -0.217 NA
ATOM      5  C   UNL     1       3.163   0.104  -4.199  0.00  0.00    +0.128 A 
ATOM      6  N   UNL     1       3.885   1.099  -3.724  0.00  0.00    -0.237 NA
ATOM      7  C   UNL     1       3.201  -0.188  -5.677  0.00  0.00    +0.088 C 
ENDROOT
BRANCH   3   8
ATOM      8  N   UNL     1       1.565  -1.205  -1.289  0.00  0.00    -0.312 N 
ATOM      9  C   UNL     1       2.119  -2.561  -1.171  0.00  0.00    +0.125 C 
ATOM     10  C   UNL     1       1.324  -3.344  -0.121  0.00  0.00    +0.127 C 
ATOM     11  N   UNL     1      -0.102  -3.284  -0.474  0.00  0.00    -0.292 N 
ATOM     12  C   UNL     1      -0.698  -1.967  -0.743  0.00  0.00    +0.127 C 
ATOM     13  C   UNL     1       0.176  -1.237  -1.769  0.00  0.00    +0.125 C 
ATOM     14  C   UNL     1      -0.844  -4.407  -0.549  0.00  0.00    +0.282 C 
ATOM     15  O   UNL     1      -1.991  -4.353  -0.953  0.00  0.00    -0.267 OA
BRANCH  14  16
ATOM     16  C   UNL     1      -0.269  -5.694  -0.143  0.00  0.00    +0.189 A 
ATOM     17  C   UNL     1      -0.859  -6.917  -0.289  0.00  0.00    +0.054 A 
ATOM     18  C   UNL     1       0.040  -7.862   0.231  0.00  0.00    +0.042 A 
ATOM     19  C   UNL     1       1.124  -7.183   0.666  0.00  0.00    +0.196 A 
ATOM     20  O   UNL     1       0.936  -5.877   0.433  0.00  0.00    -0.458 OA
ENDBRANCH  14  16
ENDBRANCH   3   8
BRANCH   1  22
ATOM     21  C   UNL     1       6.140   2.043  -1.646  0.00  0.00    +0.010 C 
ATOM     22  C   UNL     1       4.712   2.529  -1.902  0.00  0.00    +0.052 C 
ENDBRANCH   1  22
BRANCH   2  23
ATOM     23  C   UNL     1       3.071   0.933  -0.096  0.00  0.00    +0.075 C 
BRANCH  23  24
ATOM     24  C   UNL     1       1.883   1.807   0.213  0.00  0.00    -0.043 A 
ATOM     25  C   UNL     1       0.656   1.234   0.490  0.00  0.00    +0.004 A 
ATOM     26  C   UNL     1      -0.435   2.036   0.768  0.00  0.00    +0.000 A 
ATOM     27  C   UNL     1      -0.296   3.411   0.780  0.00  0.00    +0.000 A 
ATOM     28  C   UNL     1       0.930   3.985   0.502  0.00  0.00    +0.000 A 
ATOM     29  C   UNL     1       2.020   3.183   0.219  0.00  0.00    +0.004 A 
ENDBRANCH  23  24
ENDBRANCH   2  23
TORSDOF 5
