REMARK  Name = ZINC40923324
REMARK  10 active torsions:
REMARK  status: ('A' for Active; 'I' for Inactive)
REMARK    1  A    between atoms: C_1  and  C_2
REMARK    2  A    between atoms: C_3  and  C_27
REMARK    3  A    between atoms: C_4  and  C_12
REMARK    4  A    between atoms: C_17  and  O_18
REMARK    5  A    between atoms: O_18  and  C_19
REMARK    6  A    between atoms: C_19  and  C_20
REMARK    7  A    between atoms: C_27  and  O_29
REMARK    8  A    between atoms: O_29  and  C_30
REMARK    9  A    between atoms: C_30  and  C_31
REMARK   10  A    between atoms: C_30  and  C_32
REMARK                            x       y       z     vdW  Elec       q    Type
REMARK                         _______ _______ _______ _____ _____    ______ ____
ROOT
ATOM      1  C   UNL     1       0.588   1.385   0.009  0.00  0.00    +0.061 C 
ATOM      2  C   UNL     1       0.361  -0.102   0.103  0.00  0.00    +0.020 C 
ATOM      3  C   UNL     1      -0.898  -0.566   0.110  0.00  0.00    +0.082 C 
ATOM      4  C   UNL     1      -1.234  -2.031   0.187  0.00  0.00    +0.184 C 
ATOM      5  N   UNL     1      -0.035  -2.785   0.535  0.00  0.00    -0.201 N 
ATOM      6  C   UNL     1       1.218  -2.259   0.520  0.00  0.00    +0.240 A 
ATOM      7  N   UNL     1       2.039  -3.206   0.874  0.00  0.00    -0.092 NA
ATOM      8  N   UNL     1       1.390  -4.293   1.115  0.00  0.00    -0.021 NA
ATOM      9  N   UNL     1       0.122  -4.112   0.931  0.00  0.00    -0.042 NA
ATOM     10  N   UNL     1       1.450  -0.935   0.172  0.00  0.00    -0.286 N 
ATOM     11  H   UNL     1       2.346  -0.611  -0.011  0.00  0.00    +0.155 HD
ENDROOT
BRANCH   4  12
ATOM     12  C   UNL     1      -1.753  -2.500  -1.148  0.00  0.00    +0.023 A 
ATOM     13  C   UNL     1      -0.974  -2.360  -2.280  0.00  0.00    +0.009 A 
ATOM     14  C   UNL     1      -1.450  -2.789  -3.505  0.00  0.00    +0.001 A 
ATOM     15  C   UNL     1      -2.706  -3.359  -3.600  0.00  0.00    +0.004 A 
ATOM     16  C   UNL     1      -3.489  -3.502  -2.471  0.00  0.00    +0.046 A 
ATOM     17  C   UNL     1      -3.011  -3.077  -1.240  0.00  0.00    +0.127 A 
BRANCH  17  18
ATOM     18  O   UNL     1      -3.777  -3.221  -0.126  0.00  0.00    -0.487 OA
BRANCH  18  19
ATOM     19  C   UNL     1      -5.042  -3.865  -0.288  0.00  0.00    +0.264 C 
BRANCH  19  20
ATOM     20  C   UNL     1      -5.690  -4.046   1.061  0.00  0.00    -0.010 A 
ATOM     21  C   UNL     1      -5.349  -5.127   1.851  0.00  0.00    +0.008 A 
ATOM     22  C   UNL     1      -5.943  -5.294   3.088  0.00  0.00    +0.020 A 
ATOM     23  C   UNL     1      -6.878  -4.377   3.535  0.00  0.00    +0.041 A 
ATOM     24  C   UNL     1      -7.219  -3.295   2.744  0.00  0.00    +0.020 A 
ATOM     25  C   UNL     1      -6.620  -3.127   1.509  0.00  0.00    +0.008 A 
ATOM     26 CL   UNL     1      -7.625  -4.586   5.088  0.00  0.00    -0.084 Cl
ENDBRANCH  19  20
ENDBRANCH  18  19
ENDBRANCH  17  18
ENDBRANCH   4  12
BRANCH   3  27
ATOM     27  C   UNL     1      -1.958   0.365   0.041  0.00  0.00    +0.339 C 
ATOM     28  O   UNL     1      -1.724   1.559   0.078  0.00  0.00    -0.245 OA
BRANCH  27  29
ATOM     29  O   UNL     1      -3.232  -0.069  -0.066  0.00  0.00    -0.459 OA
BRANCH  29  30
ATOM     30  C   UNL     1      -4.244   0.924  -0.242  0.00  0.00    +0.171 C 
ATOM     31  C   UNL     1      -4.516   1.116  -1.735  0.00  0.00    +0.052 C 
ATOM     32  C   UNL     1      -5.528   0.474   0.457  0.00  0.00    +0.052 C 
ENDBRANCH  29  30
ENDBRANCH  27  29
ENDBRANCH   3  27
TORSDOF 7
