REMARK  Name = ZINC49037426
REMARK  8 active torsions:
REMARK  status: ('A' for Active; 'I' for Inactive)
REMARK    1  A    between atoms: C_3  and  C_8
REMARK    2  A    between atoms: C_10  and  C_13
REMARK    3  A    between atoms: C_13  and  C_14
REMARK    4  A    between atoms: C_14  and  C_16
REMARK    5  A    between atoms: C_14  and  N_37
REMARK    6  A    between atoms: N_18  and  C_19
REMARK    7  A    between atoms: C_20  and  C_34
REMARK    8  A    between atoms: C_22  and  C_26
REMARK                            x       y       z     vdW  Elec       q    Type
REMARK                         _______ _______ _______ _____ _____    ______ ____
ROOT
ATOM      1  C   UNL     1       9.298   1.961  -1.693  0.00  0.00    +0.203 C 
ATOM      2  O   UNL     1       9.810   0.915  -2.029  0.00  0.00    -0.277 OA
ATOM      3  N   UNL     1      10.072   3.009  -1.347  0.00  0.00    -0.290 N 
ATOM      4  H   UNL     1       9.665   3.867  -1.149  0.00  0.00    +0.154 HD
ENDROOT
BRANCH   3   5
ATOM      5  C   UNL     1      11.433   2.862  -1.273  0.00  0.00    +0.021 C 
ATOM      6  C   UNL     1      12.195   3.630  -2.057  0.00  0.00    +0.058 C 
ATOM      7  C   UNL     1      13.695   3.577  -2.063  0.00  0.00    +0.052 C 
ATOM      8  C   UNL     1      14.178   2.280  -1.410  0.00  0.00    +0.024 C 
ATOM      9  C   UNL     1      13.470   2.120  -0.059  0.00  0.00    +0.014 C 
ATOM     10  C   UNL     1      11.987   1.850  -0.313  0.00  0.00    +0.052 C 
BRANCH   8  11
ATOM     11  C   UNL     1      15.669   2.345  -1.198  0.00  0.00    -0.039 A 
ATOM     12  C   UNL     1      16.211   3.335  -0.401  0.00  0.00    +0.042 A 
ATOM     13  C   UNL     1      17.581   3.396  -0.206  0.00  0.00    +0.126 A 
ATOM     14  C   UNL     1      18.407   2.464  -0.811  0.00  0.00    +0.076 A 
ATOM     15  C   UNL     1      17.863   1.473  -1.609  0.00  0.00    +0.126 A 
ATOM     16  C   UNL     1      16.493   1.411  -1.798  0.00  0.00    +0.042 A 
ATOM     17  F   UNL     1      18.669   0.563  -2.200  0.00  0.00    -0.205 F 
ATOM     18  F   UNL     1      18.111   4.364   0.573  0.00  0.00    -0.205 F 
ENDBRANCH   8  11
BRANCH   6  19
ATOM     19  C   UNL     1      11.556   4.540  -2.926  0.00  0.00    +0.384 C 
ATOM     20  O   UNL     1      10.338   4.666  -2.892  0.00  0.00    -0.241 OA
ATOM     21  O   UNL     1      12.220   5.204  -3.714  0.00  0.00    -0.241 OA
ENDBRANCH   6  19
ENDBRANCH   3   5
BRANCH   1  22
ATOM     22  C   UNL     1       7.797   2.090  -1.663  0.00  0.00    +0.022 C 
BRANCH  22  23
ATOM     23  N   UNL     1       7.198   1.046  -2.505  0.00  0.00    +0.386 N 
ATOM     24  H   UNL     1       6.193   1.132  -2.485  0.00  0.00    -0.089 HD
ATOM     25  H   UNL     1       7.526   1.150  -3.454  0.00  0.00    -0.089 HD
ATOM     26  H   UNL     1       7.465   0.138  -2.155  0.00  0.00    -0.089 HD
ENDBRANCH  22  23
BRANCH  22  27
ATOM     27  C   UNL     1       7.300   1.932  -0.224  0.00  0.00    +0.092 C 
BRANCH  27  30
ATOM     28  C   UNL     1       3.672   1.852  -0.222  0.00  0.00    +0.220 A 
ATOM     29  N   UNL     1       4.886   1.282  -0.325  0.00  0.00    -0.190 NA
ATOM     30  C   UNL     1       5.815   2.183  -0.175  0.00  0.00    +0.227 A 
ATOM     31  O   UNL     1       5.228   3.369   0.030  0.00  0.00    -0.338 OA
ATOM     32  N   UNL     1       3.828   3.135  -0.010  0.00  0.00    -0.054 NA
BRANCH  28  35
ATOM     33  C   UNL     1      -0.022   1.191  -0.326  0.00  0.00    +0.042 A 
ATOM     34  C   UNL     1       1.184   1.862  -0.216  0.00  0.00    +0.034 A 
ATOM     35  C   UNL     1       2.371   1.146  -0.337  0.00  0.00    +0.111 A 
ATOM     36  N   UNL     1       2.352  -0.163  -0.555  0.00  0.00    -0.249 NA
ATOM     37  C   UNL     1       1.221  -0.828  -0.664  0.00  0.00    +0.149 A 
ATOM     38  C   UNL     1       0.001  -0.179  -0.554  0.00  0.00    +0.141 A 
ATOM     39  F   UNL     1      -1.154  -0.871  -0.667  0.00  0.00    -0.204 F 
ENDBRANCH  28  35
ENDBRANCH  27  30
ENDBRANCH  22  27
ENDBRANCH   1  22
TORSDOF 8
