REMARK  Name = ZINC19531979
REMARK  15 active torsions:
REMARK  status: ('A' for Active; 'I' for Inactive)
REMARK    1  A    between atoms: C_1  and  C_2
REMARK    2  A    between atoms: C_2  and  C_3
REMARK    3  A    between atoms: C_3  and  N_4
REMARK    4  A    between atoms: N_4  and  C_5
REMARK    5  A    between atoms: N_4  and  C_16
REMARK    6  A    between atoms: C_5  and  C_6
REMARK    7  A    between atoms: N_8  and  C_9
REMARK    8  A    between atoms: C_14  and  C_15
REMARK    9  A    between atoms: C_16  and  C_17
REMARK   10  A    between atoms: N_19  and  C_20
REMARK   11  A    between atoms: C_21  and  C_33
REMARK   12  A    between atoms: C_22  and  C_32
REMARK   13  A    between atoms: C_23  and  C_31
REMARK   14  A    between atoms: N_24  and  C_25
REMARK   15  A    between atoms: C_25  and  C_26
REMARK                            x       y       z     vdW  Elec       q    Type
REMARK                         _______ _______ _______ _____ _____    ______ ____
ROOT
ATOM      1  C   UNL     1      10.755  10.265   2.093  0.00  0.00    +0.202 C 
ATOM      2  O   UNL     1      11.907  10.561   1.853  0.00  0.00    -0.278 OA
ATOM      3  N   UNL     1       9.793  10.512   1.183  0.00  0.00    -0.272 N 
ATOM      4  H   UNL     1       8.739  10.313   1.428  0.00  0.00    +0.156 HD
ENDROOT
BRANCH   3   5
ATOM      5  C   UNL     1      10.130  11.017  -0.064  0.00  0.00    +0.124 A 
ATOM      6  C   UNL     1       9.596  12.152  -0.658  0.00  0.00    +0.095 A 
ATOM      7  C   UNL     1      10.260  12.278  -1.961  0.00  0.00    -0.011 A 
ATOM      8  C   UNL     1      11.117  11.248  -2.058  0.00  0.00    +0.022 A 
ATOM      9  N   UNL     1      11.042  10.489  -0.921  0.00  0.00    -0.324 N 
ATOM     10  C   UNL     1      12.014  10.968  -3.236  0.00  0.00    +0.064 C 
ATOM     11  C   UNL     1      10.027  13.354  -2.990  0.00  0.00    +0.047 C 
BRANCH   6  12
ATOM     12  C   UNL     1       8.600  13.023  -0.111  0.00  0.00    +0.103 C 
ATOM     13  N   UNL     1       7.809  13.714   0.323  0.00  0.00    -0.191 NA
ENDBRANCH   6  12
BRANCH   9  14
ATOM     14  C   UNL     1      11.830   9.280  -0.666  0.00  0.00    +0.197 C 
BRANCH  14  15
ATOM     15  C   UNL     1      13.298   9.617  -0.726  0.00  0.00    +0.124 A 
ATOM     16  C   UNL     1      13.853  10.786  -0.358  0.00  0.00    +0.046 A 
ATOM     17  C   UNL     1      15.245  10.665  -0.576  0.00  0.00    +0.041 A 
ATOM     18  C   UNL     1      15.456   9.433  -1.073  0.00  0.00    +0.195 A 
ATOM     19  O   UNL     1      14.273   8.803  -1.161  0.00  0.00    -0.466 OA
ENDBRANCH  14  15
ENDBRANCH   9  14
ENDBRANCH   3   5
BRANCH   1  20
ATOM     20  C   UNL     1      10.401   9.621   3.408  0.00  0.00    +0.020 C 
BRANCH  20  21
ATOM     21  N   UNL     1       9.618  10.563   4.219  0.00  0.00    +0.391 N 
ATOM     22  H   UNL     1       8.812  10.964   3.587  0.00  0.00    -0.080 HD
BRANCH  21  23
ATOM     23  C   UNL     1      10.447  11.691   4.664  0.00  0.00    -0.078 C 
BRANCH  23  25
ATOM     24  C   UNL     1      11.281  13.969   4.067  0.00  0.00    +0.002 C 
ATOM     25  C   UNL     1      10.455  12.775   3.584  0.00  0.00    -0.022 C 
ENDBRANCH  23  25
ENDBRANCH  21  23
BRANCH  21  26
ATOM     26  C   UNL     1       8.997   9.882   5.364  0.00  0.00    +0.020 C 
BRANCH  26  27
ATOM     27  C   UNL     1       7.902  10.749   5.930  0.00  0.00    +0.201 C 
ATOM     28  O   UNL     1       7.662  11.827   5.429  0.00  0.00    -0.278 OA
ATOM     29  N   UNL     1       7.189  10.326   6.992  0.00  0.00    -0.287 N 
ATOM     30  H   UNL     1       7.447   9.376   7.485  0.00  0.00    +0.155 HD
BRANCH  29  31
ATOM     31  C   UNL     1       6.121  11.094   7.469  0.00  0.00    +0.036 A 
ATOM     32  C   UNL     1       6.124  12.472   7.298  0.00  0.00    +0.023 A 
ATOM     33  C   UNL     1       5.066  13.227   7.765  0.00  0.00    +0.002 A 
ATOM     34  C   UNL     1       4.009  12.613   8.412  0.00  0.00    +0.000 A 
ATOM     35  C   UNL     1       4.005  11.241   8.588  0.00  0.00    +0.005 A 
ATOM     36  C   UNL     1       5.058  10.480   8.119  0.00  0.00    -0.029 A 
ATOM     37  C   UNL     1       5.054   8.986   8.313  0.00  0.00    +0.045 C 
ENDBRANCH  29  31
ENDBRANCH  26  27
ENDBRANCH  21  26
ENDBRANCH  20  21
ENDBRANCH   1  20
TORSDOF 11
