REMARK  Name = ZINC02038967
REMARK  6 active torsions:
REMARK  status: ('A' for Active; 'I' for Inactive)
REMARK    1  A    between atoms: C_1  and  C_2
REMARK    2  A    between atoms: C_2  and  C_3
REMARK    3  A    between atoms: C_2  and  C_4
REMARK    4  A    between atoms: C_4  and  C_5
REMARK    5  A    between atoms: C_11  and  S_18
REMARK    6  A    between atoms: S_18  and  N_21
REMARK                            x       y       z     vdW  Elec       q    Type
REMARK                         _______ _______ _______ _____ _____    ______ ____
ROOT
ATOM      1  C   UNL     1      -6.897  -2.339   0.819  0.00  0.00    +0.160 C 
ATOM      2  N   UNL     1      -5.688  -2.459   0.007  0.00  0.00    -0.326 N 
ATOM      3  C   UNL     1      -4.648  -1.535   0.043  0.00  0.00    +0.056 A 
ATOM      4  C   UNL     1      -3.771  -1.469  -1.039  0.00  0.00    +0.047 A 
ATOM      5  C   UNL     1      -2.717  -0.578  -1.026  0.00  0.00    +0.069 A 
ATOM      6  C   UNL     1      -2.520   0.252   0.064  0.00  0.00    +0.125 A 
ATOM      7  C   UNL     1      -3.392   0.199   1.137  0.00  0.00    +0.060 A 
ATOM      8  C   UNL     1      -4.449  -0.687   1.124  0.00  0.00    +0.128 A 
ATOM      9  S   UNL     1      -5.570  -0.739   2.490  0.00  0.00    +0.062 S 
ATOM     10  O   UNL     1      -4.795  -0.992   3.654  0.00  0.00    -0.153 OA
ATOM     11  O   UNL     1      -6.428   0.387   2.365  0.00  0.00    -0.153 OA
ATOM     12  N   UNL     1      -6.503  -2.095   2.221  0.00  0.00    -0.170 NA
ATOM     13 CL   UNL     1      -1.633  -0.500  -2.379  0.00  0.00    -0.081 Cl
ATOM     14  H   UNL     1      -5.607  -3.222  -0.587  0.00  0.00    +0.148 HD
ATOM     15  H   UNL     1      -6.772  -2.687   2.941  0.00  0.00    +0.150 HD
ENDROOT
BRANCH   6  16
ATOM     16  S   UNL     1      -1.165   1.379   0.083  0.00  0.00    +0.057 S 
ATOM     17  O   UNL     1      -1.223   2.063   1.327  0.00  0.00    -0.153 OA
ATOM     18  O   UNL     1      -1.188   2.061  -1.164  0.00  0.00    -0.153 OA
BRANCH  16  19
ATOM     19  N   UNL     1       0.223   0.476   0.103  0.00  0.00    -0.203 NA
ATOM     20  H   UNL     1       0.171  -0.493   0.103  0.00  0.00    +0.144 HD
ATOM     21  H   UNL     1       1.087   0.915   0.111  0.00  0.00    +0.144 HD
ENDBRANCH  16  19
ENDBRANCH   6  16
BRANCH   1  22
ATOM     22  C   UNL     1      -7.742  -1.168   0.311  0.00  0.00    +0.042 C 
BRANCH  22  24
ATOM     23  C   UNL     1      -9.232  -2.661  -1.028  0.00  0.00    +0.007 C 
ATOM     24  C   UNL     1      -8.258  -1.483  -1.094  0.00  0.00    -0.014 C 
ATOM     25  C   UNL     1      -8.978  -0.257  -1.659  0.00  0.00    +0.007 C 
ENDBRANCH  22  24
ENDBRANCH   1  22
TORSDOF 4
