REMARK  Name = ZINC39445056
REMARK  5 active torsions:
REMARK  status: ('A' for Active; 'I' for Inactive)
REMARK    1  A    between atoms: C_4  and  C_7
REMARK    2  A    between atoms: C_7  and  N_8
REMARK    3  A    between atoms: C_18  and  C_20
REMARK    4  A    between atoms: C_20  and  C_21
REMARK    5  A    between atoms: C_21  and  C_22
REMARK                            x       y       z     vdW  Elec       q    Type
REMARK                         _______ _______ _______ _____ _____    ______ ____
ROOT
ATOM      1  N   UNL     1       3.042  -1.950   2.402  0.00  0.00    +0.380 N 
ATOM      2  C   UNL     1       3.888  -2.315   1.260  0.00  0.00    -0.079 C 
ATOM      3  C   UNL     1       3.949  -3.839   1.128  0.00  0.00    -0.018 C 
ATOM      4  C   UNL     1       4.549  -4.431   2.408  0.00  0.00    +0.005 C 
ATOM      5  C   UNL     1       3.724  -3.969   3.606  0.00  0.00    -0.027 C 
ATOM      6  C   UNL     1       3.645  -2.447   3.646  0.00  0.00    -0.070 C 
ATOM      7  C   UNL     1       2.306  -4.570   3.531  0.00  0.00    +0.025 C 
ATOM      8  C   UNL     1       2.410  -5.807   4.459  0.00  0.00    +0.108 C 
ATOM      9  N   UNL     1       3.293  -5.341   5.553  0.00  0.00    -0.301 N 
ATOM     10  C   UNL     1       4.330  -4.509   4.910  0.00  0.00    +0.112 C 
ATOM     11  C   UNL     1       3.176  -5.619   6.866  0.00  0.00    +0.216 C 
ATOM     12  O   UNL     1       3.976  -5.165   7.656  0.00  0.00    -0.276 OA
ATOM     13  H   UNL     1       2.127  -2.360   2.286  0.00  0.00    -0.082 HD
ENDROOT
BRANCH   1  14
ATOM     14  C   UNL     1       2.917  -0.488   2.470  0.00  0.00    -0.075 C 
BRANCH  14  18
ATOM     15  C   UNL     1      -0.019   1.526   0.010  0.00  0.00    +0.000 C 
ATOM     16  C   UNL     1       1.417   2.055  -0.000  0.00  0.00    +0.000 C 
ATOM     17  C   UNL     1       2.157   1.548   1.239  0.00  0.00    +0.002 C 
ATOM     18  C   UNL     1       2.178   0.019   1.231  0.00  0.00    -0.028 C 
ATOM     19  C   UNL     1       0.742  -0.511   1.242  0.00  0.00    +0.002 C 
ATOM     20  C   UNL     1       0.002  -0.004   0.002  0.00  0.00    +0.000 C 
ENDBRANCH  14  18
ENDBRANCH   1  14
BRANCH  11  21
ATOM     21  C   UNL     1       2.049  -6.493   7.353  0.00  0.00    +0.102 C 
BRANCH  21  22
ATOM     22  C   UNL     1       2.144  -6.649   8.872  0.00  0.00    +0.066 C 
BRANCH  22  23
ATOM     23  C   UNL     1       1.017  -7.523   9.359  0.00  0.00    +0.065 C 
ATOM     24  C   UNL     1       1.107  -8.819   9.567  0.00  0.00    -0.021 C 
ATOM     25  C   UNL     1       2.183  -9.822   9.255  0.00  0.00    +0.035 C 
ATOM     26  C   UNL     1       1.520 -10.923   8.407  0.00  0.00    +0.005 C 
ATOM     27  C   UNL     1       0.245 -11.415   9.088  0.00  0.00    +0.003 C 
ATOM     28  C   UNL     1      -0.799 -10.299   9.198  0.00  0.00    +0.033 C 
ATOM     29  C   UNL     1      -0.251  -9.218  10.133  0.00  0.00    +0.156 C 
ATOM     30  N   UNL     1      -1.006  -7.966  10.051  0.00  0.00    -0.180 NA
ATOM     31  N   UNL     1      -0.233  -7.085   9.652  0.00  0.00    -0.158 NA
ENDBRANCH  22  23
ENDBRANCH  21  22
ENDBRANCH  11  21
TORSDOF 5
