REMARK  Name = ZINC22607061
REMARK  7 active torsions:
REMARK  status: ('A' for Active; 'I' for Inactive)
REMARK    1  A    between atoms: C_1  and  O_2
REMARK    2  A    between atoms: O_2  and  C_3
REMARK    3  A    between atoms: C_6  and  C_13
REMARK    4  A    between atoms: C_7  and  O_11
REMARK    5  A    between atoms: C_8  and  O_9
REMARK    6  A    between atoms: O_9  and  C_10
REMARK    7  A    between atoms: O_11  and  C_12
REMARK                            x       y       z     vdW  Elec       q    Type
REMARK                         _______ _______ _______ _____ _____    ______ ____
ROOT
ATOM      1  C   UNL     1       2.939  -2.318  -4.268  0.00  0.00    +0.096 C 
ATOM      2  C   UNL     1       2.242  -2.157  -5.587  0.00  0.00    +0.069 A 
ATOM      3  C   UNL     1       2.600  -1.170  -6.452  0.00  0.00    +0.112 A 
ATOM      4  N   UNL     1       1.936  -1.050  -7.644  0.00  0.00    -0.315 N 
ATOM      5  C   UNL     1       0.931  -1.913  -7.956  0.00  0.00    +0.200 A 
ATOM      6  N   UNL     1       0.577  -2.874  -7.130  0.00  0.00    -0.177 NA
ATOM      7  C   UNL     1       1.197  -3.034  -5.950  0.00  0.00    +0.280 A 
ATOM      8  O   UNL     1       0.859  -3.933  -5.194  0.00  0.00    -0.265 OA
ATOM      9  N   UNL     1       0.275  -1.778  -9.151  0.00  0.00    -0.301 N 
ATOM     10  C   UNL     1       0.571  -0.649 -10.044  0.00  0.00    +0.108 C 
ATOM     11  C   UNL     1       0.917  -1.197 -11.432  0.00  0.00    +0.019 C 
ATOM     12  C   UNL     1      -0.218  -2.101 -11.917  0.00  0.00    +0.003 C 
ATOM     13  C   UNL     1      -0.376  -3.283 -10.958  0.00  0.00    +0.019 C 
ATOM     14  C   UNL     1      -0.733  -2.763  -9.567  0.00  0.00    +0.108 C 
ATOM     15  N   UNL     1       3.620  -0.306  -6.131  0.00  0.00    -0.304 N 
ATOM     16  C   UNL     1       4.532  -0.630  -5.164  0.00  0.00    +0.017 C 
ATOM     17  C   UNL     1       4.258  -1.588  -4.255  0.00  0.00    +0.024 C 
ATOM     18  C   UNL     1       5.195  -1.936  -3.267  0.00  0.00    +0.162 C 
ATOM     19  O   UNL     1       4.917  -2.799  -2.458  0.00  0.00    -0.292 OA
ATOM     20  C   UNL     1       6.537  -1.260  -3.191  0.00  0.00    +0.080 C 
ATOM     21  C   UNL     1       6.942  -0.797  -4.594  0.00  0.00    +0.014 C 
ATOM     22  C   UNL     1       5.845   0.114  -5.138  0.00  0.00    +0.051 C 
ATOM     23  H   UNL     1       3.695   0.542  -6.596  0.00  0.00    +0.153 HD
ATOM     24  H   UNL     1       2.183  -0.348  -8.267  0.00  0.00    +0.170 HD
ENDROOT
BRANCH   1  28
ATOM     25  C   UNL     1       0.443  -0.762  -1.160  0.00  0.00    +0.165 A 
ATOM     26  C   UNL     1       1.010  -2.022  -1.036  0.00  0.00    +0.050 A 
ATOM     27  C   UNL     1       1.815  -2.521  -2.041  0.00  0.00    +0.012 A 
ATOM     28  C   UNL     1       2.059  -1.769  -3.175  0.00  0.00    +0.010 A 
ATOM     29  C   UNL     1       1.496  -0.509  -3.307  0.00  0.00    +0.169 A 
ATOM     30  C   UNL     1       0.681  -0.005  -2.301  0.00  0.00    +0.204 A 
BRANCH  25  32
ATOM     31  C   UNL     1      -0.550  -1.104   0.974  0.00  0.00    +0.277 C 
ATOM     32  O   UNL     1      -0.349  -0.271  -0.170  0.00  0.00    -0.491 OA
ENDBRANCH  25  32
BRANCH  30  33
ATOM     33  O   UNL     1       0.122   1.229  -2.429  0.00  0.00    -0.488 OA
ATOM     34  C   UNL     1       0.875   2.338  -1.933  0.00  0.00    +0.277 C 
ENDBRANCH  30  33
BRANCH  29  35
ATOM     35  O   UNL     1       1.738   0.232  -4.422  0.00  0.00    -0.491 OA
ATOM     36  C   UNL     1       0.677   0.336  -5.374  0.00  0.00    +0.277 C 
ENDBRANCH  29  35
ENDBRANCH   1  28
TORSDOF 4
