REMARK  Name = ZINC45361521
REMARK  10 active torsions:
REMARK  status: ('A' for Active; 'I' for Inactive)
REMARK    1  A    between atoms: C_1  and  C_2
REMARK    2  A    between atoms: C_2  and  C_3
REMARK    3  A    between atoms: C_3  and  C_5
REMARK    4  A    between atoms: C_3  and  N_6
REMARK    5  A    between atoms: C_7  and  C_9
REMARK    6  A    between atoms: C_9  and  C_11
REMARK    7  A    between atoms: C_9  and  S_12
REMARK    8  A    between atoms: S_12  and  C_15
REMARK    9  A    between atoms: C_15  and  C_16
REMARK   10  A    between atoms: C_18  and  C_21
REMARK                            x       y       z     vdW  Elec       q    Type
REMARK                         _______ _______ _______ _____ _____    ______ ____
ROOT
ATOM      1  S   UNL     1       0.615  -0.163  -6.341  0.00  0.00    -0.011 S 
ATOM      2  O   UNL     1       1.901   0.440  -6.392  0.00  0.00    -0.173 OA
ATOM      3  O   UNL     1       0.513  -1.579  -6.390  0.00  0.00    -0.173 OA
ENDROOT
BRANCH   1   4
ATOM      4  C   UNL     1      -0.234   0.422  -4.849  0.00  0.00    +0.213 C 
ATOM      5  C   UNL     1      -0.365   1.946  -4.901  0.00  0.00    +0.042 C 
BRANCH   4   7
ATOM      6  N   UNL     1      -0.055  -0.114  -2.441  0.00  0.00    -0.311 N 
ATOM      7  C   UNL     1       0.561   0.028  -3.631  0.00  0.00    +0.237 C 
ATOM      8  O   UNL     1       1.755  -0.162  -3.722  0.00  0.00    -0.274 OA
ATOM      9  H   UNL     1      -1.010   0.038  -2.368  0.00  0.00    +0.149 HD
BRANCH   6  10
ATOM     10  C   UNL     1       0.718  -0.497  -1.257  0.00  0.00    +0.070 C 
ATOM     11  C   UNL     1       0.849  -2.021  -1.205  0.00  0.00    +0.028 C 
BRANCH  10  13
ATOM     12  C   UNL     1      -0.019   1.526   0.010  0.00  0.00    +0.005 C 
ATOM     13  C   UNL     1       0.002  -0.004   0.002  0.00  0.00    +0.018 C 
ENDBRANCH  10  13
ENDBRANCH   6  10
ENDBRANCH   4   7
ENDBRANCH   1   4
BRANCH   1  14
ATOM     14  C   UNL     1      -0.398   0.532  -7.676  0.00  0.00    +0.265 C 
BRANCH  14  15
ATOM     15  C   UNL     1       0.183   0.131  -9.008  0.00  0.00    +0.249 A 
ATOM     16  N   UNL     1      -0.126  -0.940  -9.681  0.00  0.00    -0.187 NA
ATOM     17  C   UNL     1       0.581  -0.985 -10.826  0.00  0.00    +0.237 A 
ATOM     18  N   UNL     1       1.353   0.076 -10.883  0.00  0.00    -0.053 NA
ATOM     19  O   UNL     1       1.100   0.820  -9.700  0.00  0.00    -0.336 OA
BRANCH  17  20
ATOM     20  C   UNL     1       0.501  -2.049 -11.848  0.00  0.00    +0.175 A 
ATOM     21  C   UNL     1       1.217  -2.102 -13.003  0.00  0.00    +0.053 A 
ATOM     22  C   UNL     1       0.827  -3.280 -13.668  0.00  0.00    +0.042 A 
ATOM     23  C   UNL     1      -0.098  -3.883 -12.895  0.00  0.00    +0.196 A 
ATOM     24  O   UNL     1      -0.288  -3.139 -11.794  0.00  0.00    -0.460 OA
ENDBRANCH  17  20
ENDBRANCH  14  15
ENDBRANCH   1  14
TORSDOF 7
