REMARK  Name = ZINC59983526
REMARK  10 active torsions:
REMARK  status: ('A' for Active; 'I' for Inactive)
REMARK    1  A    between atoms: C_1  and  C_2
REMARK    2  A    between atoms: C_6  and  C_19
REMARK    3  A    between atoms: N_8  and  C_9
REMARK    4  A    between atoms: C_14  and  C_15
REMARK    5  A    between atoms: N_21  and  C_22
REMARK    6  A    between atoms: C_22  and  C_23
REMARK    7  A    between atoms: C_23  and  C_24
REMARK    8  A    between atoms: C_23  and  C_25
REMARK    9  A    between atoms: C_23  and  N_26
REMARK   10  A    between atoms: C_30  and  C_33
REMARK                            x       y       z     vdW  Elec       q    Type
REMARK                         _______ _______ _______ _____ _____    ______ ____
ROOT
ATOM      1  C   UNL     1       0.087   1.669   0.416  0.00  0.00    +0.066 C 
ATOM      2  C   UNL     1       0.133   0.165   0.332  0.00  0.00    +0.044 A 
ATOM      3  C   UNL     1      -0.071  -0.445  -0.860  0.00  0.00    +0.076 A 
ATOM      4  C   UNL     1      -0.019  -1.862  -0.896  0.00  0.00    +0.213 A 
ATOM      5  O   UNL     1      -0.193  -2.479  -1.936  0.00  0.00    -0.285 OA
ATOM      6  C   UNL     1       0.253  -2.558   0.371  0.00  0.00    +0.192 A 
ATOM      7  N   UNL     1       0.433  -1.842   1.461  0.00  0.00    -0.158 NA
ATOM      8  N   UNL     1       0.384  -0.561   1.450  0.00  0.00    -0.236 N 
ENDROOT
BRANCH   8   9
ATOM      9  C   UNL     1       0.592   0.122   2.652  0.00  0.00    +0.077 A 
ATOM     10  C   UNL     1      -0.492   0.510   3.430  0.00  0.00    +0.028 A 
ATOM     11  C   UNL     1      -0.282   1.185   4.616  0.00  0.00    +0.002 A 
ATOM     12  C   UNL     1       1.005   1.474   5.031  0.00  0.00    +0.001 A 
ATOM     13  C   UNL     1       2.086   1.090   4.260  0.00  0.00    +0.014 A 
ATOM     14  C   UNL     1       1.884   0.409   3.075  0.00  0.00    +0.080 A 
BRANCH  14  15
ATOM     15  C   UNL     1       3.063  -0.015   2.238  0.00  0.00    +0.419 C 
ATOM     16  F   UNL     1       4.248   0.383   2.866  0.00  0.00    -0.166 F 
ATOM     17  F   UNL     1       3.056  -1.407   2.095  0.00  0.00    -0.166 F 
ATOM     18  F   UNL     1       2.980   0.584   0.977  0.00  0.00    -0.166 F 
ENDBRANCH  14  15
ENDBRANCH   8   9
BRANCH   6  19
ATOM     19  C   UNL     1       0.323  -4.032   0.420  0.00  0.00    +0.268 C 
ATOM     20  O   UNL     1       0.155  -4.683  -0.593  0.00  0.00    -0.268 OA
ATOM     21  N   UNL     1       0.574  -4.657   1.588  0.00  0.00    -0.311 N 
ATOM     22  H   UNL     1       0.708  -4.138   2.396  0.00  0.00    +0.149 HD
BRANCH  21  23
ATOM     23  C   UNL     1       0.643  -6.119   1.636  0.00  0.00    +0.092 C 
BRANCH  23  24
ATOM     24  C   UNL     1       0.815  -6.574   3.087  0.00  0.00    -0.055 C 
ATOM     25  C   UNL     1      -0.434  -6.203   3.889  0.00  0.00    -0.008 C 
ATOM     26  C   UNL     1       1.015  -8.090   3.126  0.00  0.00    -0.008 C 
BRANCH  24  27
ATOM     27  N   UNL     1       1.988  -5.910   3.673  0.00  0.00    +0.384 N 
ATOM     28  C   UNL     1       3.179  -6.233   2.878  0.00  0.00    -0.078 C 
ATOM     29  C   UNL     1       4.388  -5.479   3.435  0.00  0.00    -0.018 C 
ATOM     30  C   UNL     1       4.616  -5.896   4.891  0.00  0.00    -0.001 C 
ATOM     31  C   UNL     1       3.341  -5.623   5.695  0.00  0.00    -0.031 C 
ATOM     32  C   UNL     1       2.170  -6.372   5.054  0.00  0.00    -0.075 C 
ATOM     33  C   UNL     1       3.531  -6.107   7.134  0.00  0.00    +0.005 C 
ATOM     34  H   UNL     1       1.844  -4.911   3.669  0.00  0.00    -0.081 HD
ENDBRANCH  24  27
ENDBRANCH  23  24
ENDBRANCH  21  23
ENDBRANCH   6  19
TORSDOF 6
