REMARK  Name = ZINC13131360
REMARK  9 active torsions:
REMARK  status: ('A' for Active; 'I' for Inactive)
REMARK    1  A    between atoms: C_3  and  S_8
REMARK    2  A    between atoms: S_8  and  N_11
REMARK    3  A    between atoms: N_11  and  C_12
REMARK    4  A    between atoms: C_12  and  C_13
REMARK    5  A    between atoms: C_13  and  O_15
REMARK    6  A    between atoms: O_15  and  C_16
REMARK    7  A    between atoms: C_16  and  C_17
REMARK    8  A    between atoms: N_19  and  C_20
REMARK    9  A    between atoms: C_20  and  C_21
REMARK                            x       y       z     vdW  Elec       q    Type
REMARK                         _______ _______ _______ _____ _____    ______ ____
ROOT
ATOM      1  O   UNL     1      -8.377   1.139   2.728  0.00  0.00    -0.454 OA
ENDROOT
BRANCH   1   2
ATOM      2  C   UNL     1      -9.145   1.483   3.773  0.00  0.00    +0.323 C 
ATOM      3  O   UNL     1      -8.695   2.181   4.650  0.00  0.00    -0.249 OA
BRANCH   2   4
ATOM      4  C   UNL     1     -10.570   0.999   3.853  0.00  0.00    +0.226 C 
BRANCH   4   5
ATOM      5  N   UNL     1     -11.191   1.508   5.078  0.00  0.00    -0.179 NA
ATOM      6  H   UNL     1     -10.639   1.875   5.785  0.00  0.00    +0.149 HD
BRANCH   5   7
ATOM      7  S   UNL     1     -12.837   1.455   5.255  0.00  0.00    +0.059 S 
ATOM      8  O   UNL     1     -13.124   1.989   6.541  0.00  0.00    -0.153 OA
ATOM      9  O   UNL     1     -13.391   1.998   4.064  0.00  0.00    -0.153 OA
BRANCH   7  12
ATOM     10  C   UNL     1     -13.980  -2.238   4.160  0.00  0.00    +0.003 A 
ATOM     11  C   UNL     1     -13.619  -0.904   4.127  0.00  0.00    +0.028 A 
ATOM     12  C   UNL     1     -13.303  -0.243   5.299  0.00  0.00    +0.106 A 
ATOM     13  C   UNL     1     -13.357  -0.914   6.507  0.00  0.00    +0.043 A 
ATOM     14  C   UNL     1     -13.723  -2.247   6.542  0.00  0.00    +0.020 A 
ATOM     15  C   UNL     1     -14.035  -2.909   5.367  0.00  0.00    +0.015 A 
ATOM     16 BR   UNL     1     -13.798  -3.165   8.193  0.00  0.00    -0.050 Br
ENDBRANCH   7  12
ENDBRANCH   5   7
ENDBRANCH   4   5
ENDBRANCH   2   4
ENDBRANCH   1   2
BRANCH   1  17
ATOM     17  C   UNL     1      -7.014   1.641   2.718  0.00  0.00    +0.327 C 
BRANCH  17  18
ATOM     18  C   UNL     1      -6.309   1.155   1.478  0.00  0.00    +0.251 C 
ATOM     19  O   UNL     1      -6.896   0.454   0.681  0.00  0.00    -0.272 OA
ATOM     20  N   UNL     1      -5.025   1.499   1.254  0.00  0.00    -0.312 N 
ATOM     21  H   UNL     1      -4.555   2.060   1.891  0.00  0.00    +0.149 HD
BRANCH  20  22
ATOM     22  C   UNL     1      -4.340   1.027   0.049  0.00  0.00    +0.111 C 
BRANCH  22  23
ATOM     23  C   UNL     1      -2.904   1.556   0.038  0.00  0.00    -0.013 C 
ATOM     24  C   UNL     1      -2.188   1.063  -1.221  0.00  0.00    +0.012 C 
ATOM     25  C   UNL     1      -0.753   1.593  -1.232  0.00  0.00    -0.010 C 
ATOM     26  C   UNL     1      -0.013   1.086   0.008  0.00  0.00    +0.007 C 
ATOM     27  C   UNL     1      -0.729   1.579   1.267  0.00  0.00    -0.010 C 
ATOM     28  C   UNL     1      -2.164   1.050   1.278  0.00  0.00    +0.012 C 
ATOM     29  C   UNL     1      -0.750   3.109   1.275  0.00  0.00    +0.007 C 
ATOM     30  C   UNL     1      -1.490   3.616   0.036  0.00  0.00    -0.010 C 
ATOM     31  C   UNL     1      -0.773   3.123  -1.223  0.00  0.00    +0.007 C 
ATOM     32  C   UNL     1      -2.925   3.086   0.047  0.00  0.00    +0.012 C 
ENDBRANCH  22  23
ENDBRANCH  20  22
ENDBRANCH  17  18
ENDBRANCH   1  17
TORSDOF 9
