REMARK  Name = ZINC17219081
REMARK  1 active torsions:
REMARK  status: ('A' for Active; 'I' for Inactive)
REMARK    1  A    between atoms: N_18  and  C_19
REMARK                            x       y       z     vdW  Elec       q    Type
REMARK                         _______ _______ _______ _____ _____    ______ ____
ROOT
ATOM      1  C   UNL     1       0.021  -2.788  -0.013  0.00  0.00    +0.001 A 
ATOM      2  C   UNL     1      -1.179  -2.093   0.003  0.00  0.00    +0.004 A 
ATOM      3  C   UNL     1      -1.193  -0.714   0.010  0.00  0.00    +0.047 A 
ATOM      4  C   UNL     1       0.002  -0.004   0.002  0.00  0.00    +0.141 A 
ATOM      5  C   UNL     1       1.217  -0.707  -0.013  0.00  0.00    +0.043 A 
ATOM      6  C   UNL     1       1.216  -2.105  -0.021  0.00  0.00    +0.013 A 
ATOM      7  C   UNL     1       2.481   0.041  -0.021  0.00  0.00    +0.086 A 
ATOM      8  C   UNL     1       2.424   1.437  -0.013  0.00  0.00    +0.174 A 
ATOM      9  C   UNL     1       1.105   2.083   0.003  0.00  0.00    +0.365 A 
ATOM     10  O   UNL     1       1.029   3.298   0.009  0.00  0.00    -0.243 OA
ATOM     11  O   UNL     1      -0.016   1.346   0.009  0.00  0.00    -0.421 OA
ATOM     12  N   UNL     1       3.547   2.171  -0.019  0.00  0.00    -0.218 NA
ATOM     13  C   UNL     1       4.725   1.593  -0.032  0.00  0.00    +0.185 A 
ATOM     14  C   UNL     1       4.821   0.126  -0.040  0.00  0.00    +0.289 A 
ATOM     15  O   UNL     1       5.908  -0.423  -0.052  0.00  0.00    -0.264 OA
ATOM     16  N   UNL     1       3.684  -0.605  -0.035  0.00  0.00    -0.317 N 
ATOM     17  H   UNL     1       3.717  -1.704  -0.041  0.00  0.00    +0.169 HD
ATOM     18  N   UNL     1       5.878   2.365  -0.038  0.00  0.00    -0.319 N 
ATOM     19  H   UNL     1       6.865   1.880  -0.049  0.00  0.00    +0.148 HD
ENDROOT
BRANCH  18  20
ATOM     20  C   UNL     1       5.780   3.827  -0.030  0.00  0.00    +0.034 C 
ATOM     21  C   UNL     1       5.038   4.281   1.228  0.00  0.00    +0.029 C 
ATOM     22  C   UNL     1       4.936   5.808   1.237  0.00  0.00    -0.008 C 
ATOM     23  C   UNL     1       6.341   6.413   1.228  0.00  0.00    +0.007 C 
ATOM     24  C   UNL     1       7.084   5.958  -0.031  0.00  0.00    -0.008 C 
ATOM     25  C   UNL     1       7.186   4.432  -0.039  0.00  0.00    +0.029 C 
ATOM     26  C   UNL     1       6.319   6.426  -1.271  0.00  0.00    +0.007 C 
ATOM     27  C   UNL     1       4.914   5.821  -1.261  0.00  0.00    -0.008 C 
ATOM     28  C   UNL     1       4.171   6.275  -0.003  0.00  0.00    +0.007 C 
ATOM     29  C   UNL     1       5.016   4.294  -1.270  0.00  0.00    +0.029 C 
ENDBRANCH  18  20
TORSDOF 1
