REMARK  Name = ZINC39944622
REMARK  9 active torsions:
REMARK  status: ('A' for Active; 'I' for Inactive)
REMARK    1  A    between atoms: C_1  and  C_2
REMARK    2  A    between atoms: C_3  and  C_17
REMARK    3  A    between atoms: N_6  and  C_8
REMARK    4  A    between atoms: C_8  and  C_9
REMARK    5  A    between atoms: C_17  and  O_19
REMARK    6  A    between atoms: O_19  and  C_20
REMARK    7  A    between atoms: C_20  and  C_22
REMARK    8  A    between atoms: C_20  and  C_28
REMARK    9  A    between atoms: C_28  and  C_30
REMARK                            x       y       z     vdW  Elec       q    Type
REMARK                         _______ _______ _______ _____ _____    ______ ____
ROOT
ATOM      1  O   UNL     1      -3.449  -1.242   0.013  0.00  0.00    -0.445 OA
ENDROOT
BRANCH   1   2
ATOM      2  C   UNL     1      -2.445  -0.340   0.013  0.00  0.00    +0.340 C 
ATOM      3  O   UNL     1      -2.696   0.851   0.021  0.00  0.00    -0.245 OA
BRANCH   2   6
ATOM      4  C   UNL     1      -0.018   1.503   0.010  0.00  0.00    +0.062 C 
ATOM      5  C   UNL     1       0.002  -0.004   0.002  0.00  0.00    +0.029 C 
ATOM      6  C   UNL     1      -1.103  -0.778   0.003  0.00  0.00    +0.087 C 
ATOM      7  C   UNL     1      -0.614  -2.212  -0.008  0.00  0.00    +0.205 C 
ATOM      8  N   UNL     1       0.857  -2.088  -0.014  0.00  0.00    -0.203 NA
ATOM      9  N   UNL     1       1.134  -0.752  -0.013  0.00  0.00    -0.280 N 
ATOM     10 CL   UNL     1      -1.172  -3.081   1.470  0.00  0.00    -0.098 Cl
ATOM     11  H   UNL     1       2.031  -0.382  -0.020  0.00  0.00    +0.166 HD
BRANCH   8  12
ATOM     12  C   UNL     1       1.447  -2.753   1.155  0.00  0.00    +0.144 C 
BRANCH  12  13
ATOM     13  C   UNL     1       2.950  -2.713   1.052  0.00  0.00    -0.013 A 
ATOM     14  C   UNL     1       3.641  -3.822   0.601  0.00  0.00    +0.006 A 
ATOM     15  C   UNL     1       5.020  -3.785   0.506  0.00  0.00    +0.000 A 
ATOM     16  C   UNL     1       5.707  -2.639   0.861  0.00  0.00    +0.001 A 
ATOM     17  C   UNL     1       5.017  -1.530   1.312  0.00  0.00    +0.020 A 
ATOM     18  C   UNL     1       3.637  -1.565   1.402  0.00  0.00    +0.045 A 
ATOM     19 CL   UNL     1       2.768  -0.170   1.962  0.00  0.00    -0.083 Cl
ENDBRANCH  12  13
ENDBRANCH   8  12
ENDBRANCH   2   6
ENDBRANCH   1   2
BRANCH   1  20
ATOM     20  C   UNL     1      -4.783  -0.728   0.023  0.00  0.00    +0.277 C 
BRANCH  20  21
ATOM     21  C   UNL     1      -5.259  -0.539  -1.394  0.00  0.00    +0.000 A 
ATOM     22  C   UNL     1      -4.954  -1.482  -2.357  0.00  0.00    +0.008 A 
ATOM     23  C   UNL     1      -5.391  -1.309  -3.657  0.00  0.00    +0.000 A 
ATOM     24  C   UNL     1      -6.134  -0.193  -3.994  0.00  0.00    +0.000 A 
ATOM     25  C   UNL     1      -6.439   0.750  -3.030  0.00  0.00    +0.000 A 
ATOM     26  C   UNL     1      -6.006   0.575  -1.729  0.00  0.00    +0.008 A 
ENDBRANCH  20  21
BRANCH  20  27
ATOM     27  C   UNL     1      -5.690  -1.700   0.733  0.00  0.00    +0.206 C 
ATOM     28  O   UNL     1      -5.317  -2.836   0.944  0.00  0.00    -0.288 OA
BRANCH  27  29
ATOM     29  C   UNL     1      -6.973  -1.289   1.152  0.00  0.00    +0.027 C 
ATOM     30  C   UNL     1      -7.920  -2.049   1.816  0.00  0.00    +0.006 A 
ATOM     31  C   UNL     1      -7.932  -3.390   2.268  0.00  0.00    +0.010 A 
ATOM     32  C   UNL     1      -9.018  -3.885   2.903  0.00  0.00    +0.001 A 
ATOM     33  C   UNL     1     -10.167  -3.113   3.144  0.00  0.00    +0.002 A 
ATOM     34  C   UNL     1     -10.257  -1.824   2.753  0.00  0.00    +0.026 A 
ATOM     35  C   UNL     1      -9.117  -1.207   2.054  0.00  0.00    +0.043 A 
ATOM     36  N   UNL     1      -8.935  -0.009   1.576  0.00  0.00    -0.380 N 
ATOM     37  C   UNL     1      -7.600   0.076   0.976  0.00  0.00    +0.152 C 
ATOM     38  H   UNL     1      -9.580   0.715   1.615  0.00  0.00    +0.160 HD
ENDBRANCH  27  29
ENDBRANCH  20  27
ENDBRANCH   1  20
TORSDOF 8
