REMARK  Name = ZINC19799934
REMARK  10 active torsions:
REMARK  status: ('A' for Active; 'I' for Inactive)
REMARK    1  A    between atoms: C_1  and  O_2
REMARK    2  A    between atoms: O_2  and  C_3
REMARK    3  A    between atoms: C_6  and  C_9
REMARK    4  A    between atoms: N_10  and  C_11
REMARK    5  A    between atoms: C_13  and  O_35
REMARK    6  A    between atoms: C_21  and  C_24
REMARK    7  A    between atoms: C_31  and  O_33
REMARK    8  A    between atoms: O_33  and  C_34
REMARK    9  A    between atoms: O_35  and  S_36
REMARK   10  A    between atoms: S_36  and  C_39
REMARK                            x       y       z     vdW  Elec       q    Type
REMARK                         _______ _______ _______ _____ _____    ______ ____
ROOT
ATOM      1  C   UNL     1       1.713  -4.482  -3.082  0.00  0.00    +0.194 C 
ATOM      2  C   UNL     1       0.990  -5.578  -3.869  0.00  0.00    +0.210 C 
ATOM      3  C   UNL     1       0.389  -6.590  -2.889  0.00  0.00    +0.186 C 
ATOM      4  C   UNL     1       1.496  -7.127  -1.975  0.00  0.00    +0.178 C 
ATOM      5  C   UNL     1       2.516  -7.890  -2.825  0.00  0.00    +0.197 C 
ATOM      6  O   UNL     1       1.832  -8.897  -3.577  0.00  0.00    -0.345 OA
ATOM      7  C   UNL     1       0.799  -8.384  -4.422  0.00  0.00    +0.282 C 
ATOM      8  O   UNL     1      -0.183  -7.673  -3.632  0.00  0.00    -0.339 OA
ATOM      9  O   UNL     1       2.141  -6.043  -1.308  0.00  0.00    -0.341 OA
ATOM     10  C   UNL     1       2.781  -5.123  -2.193  0.00  0.00    +0.277 C 
ENDROOT
BRANCH   7  11
ATOM     11  C   UNL     1       0.125  -9.525  -5.139  0.00  0.00    +0.008 A 
ATOM     12  C   UNL     1      -1.230  -9.744  -4.969  0.00  0.00    +0.008 A 
ATOM     13  C   UNL     1      -1.848 -10.791  -5.627  0.00  0.00    +0.000 A 
ATOM     14  C   UNL     1      -1.113 -11.619  -6.455  0.00  0.00    +0.000 A 
ATOM     15  C   UNL     1       0.241 -11.399  -6.625  0.00  0.00    +0.000 A 
ATOM     16  C   UNL     1       0.859 -10.350  -5.971  0.00  0.00    +0.008 A 
ENDBRANCH   7  11
BRANCH   1  18
ATOM     17  C   UNL     1       2.009  -2.298  -4.008  0.00  0.00    +0.113 C 
ATOM     18  N   UNL     1       2.348  -3.547  -4.014  0.00  0.00    -0.280 NA
BRANCH  17  22
ATOM     19  C   UNL     1       0.262  -0.588  -0.538  0.00  0.00    +0.120 A 
ATOM     20  C   UNL     1       0.146   0.059  -1.762  0.00  0.00    +0.046 A 
ATOM     21  C   UNL     1       0.712  -0.492  -2.891  0.00  0.00    +0.013 A 
ATOM     22  C   UNL     1       1.403  -1.704  -2.803  0.00  0.00    -0.007 A 
ATOM     23  C   UNL     1       1.517  -2.351  -1.569  0.00  0.00    +0.013 A 
ATOM     24  C   UNL     1       0.953  -1.790  -0.445  0.00  0.00    +0.046 A 
BRANCH  19  26
ATOM     25  C   UNL     1      -0.994   1.196   0.406  0.00  0.00    +0.277 C 
ATOM     26  O   UNL     1      -0.298  -0.041   0.572  0.00  0.00    -0.495 OA
ENDBRANCH  19  26
ENDBRANCH  17  22
ENDBRANCH   1  18
BRANCH  10  27
ATOM     27  O   UNL     1       3.746  -5.788  -3.010  0.00  0.00    -0.352 OA
ATOM     28  C   UNL     1       4.852  -6.327  -2.283  0.00  0.00    +0.197 C 
ENDBRANCH  10  27
BRANCH   2  29
ATOM     29  O   UNL     1      -0.053  -4.995  -4.653  0.00  0.00    -0.230 OA
BRANCH  29  30
ATOM     30  S   UNL     1       0.340  -4.718  -6.098  0.00  0.00    +0.080 S 
ATOM     31  O   UNL     1      -0.599  -3.752  -6.550  0.00  0.00    -0.147 OA
ATOM     32  O   UNL     1       1.726  -4.411  -6.044  0.00  0.00    -0.147 OA
ATOM     33  C   UNL     1       0.081  -6.292  -6.961  0.00  0.00    +0.228 C 
ENDBRANCH  29  30
ENDBRANCH   2  29
TORSDOF 7
