REMARK  Name = ZINC53107864
REMARK  6 active torsions:
REMARK  status: ('A' for Active; 'I' for Inactive)
REMARK    1  A    between atoms: C_1  and  C_2
REMARK    2  A    between atoms: C_5  and  C_8
REMARK    3  A    between atoms: C_5  and  N_10
REMARK    4  A    between atoms: C_8  and  O_9
REMARK    5  A    between atoms: N_10  and  S_11
REMARK    6  A    between atoms: S_11  and  C_14
REMARK                            x       y       z     vdW  Elec       q    Type
REMARK                         _______ _______ _______ _____ _____    ______ ____
ROOT
ATOM      1  N   UNL     1       3.015  -1.708  -0.165  0.00  0.00    -0.182 NA
ATOM      2  H   UNL     1       3.382  -0.913   0.254  0.00  0.00    +0.149 HD
ENDROOT
BRANCH   1   7
ATOM      3  C   UNL     1       0.713   2.191  -0.777  0.00  0.00    +0.007 C 
ATOM      4  C   UNL     1       0.503   0.699  -0.509  0.00  0.00    -0.014 C 
ATOM      5  C   UNL     1       1.109  -0.115  -1.654  0.00  0.00    +0.005 C 
ATOM      6  C   UNL     1       0.899  -1.607  -1.386  0.00  0.00    +0.026 C 
ATOM      7  C   UNL     1       1.581  -1.990  -0.071  0.00  0.00    +0.063 C 
ATOM      8  C   UNL     1       0.975  -1.176   1.073  0.00  0.00    +0.026 C 
ATOM      9  C   UNL     1       1.185   0.316   0.806  0.00  0.00    +0.005 C 
BRANCH   7  10
ATOM     10  C   UNL     1       1.371  -3.482   0.196  0.00  0.00    +0.179 C 
BRANCH  10  11
ATOM     11  O   UNL     1       2.079  -3.858   1.379  0.00  0.00    -0.393 OA
ATOM     12  H   UNL     1       2.053  -4.806   1.568  0.00  0.00    +0.209 HD
ENDBRANCH  10  11
ENDBRANCH   7  10
ENDBRANCH   1   7
BRANCH   1  13
ATOM     13  S   UNL     1       4.011  -2.745  -0.986  0.00  0.00    +0.060 S 
ATOM     14  O   UNL     1       5.295  -2.137  -1.017  0.00  0.00    -0.153 OA
ATOM     15  O   UNL     1       3.793  -4.037  -0.437  0.00  0.00    -0.153 OA
BRANCH  13  16
ATOM     16  C   UNL     1       3.442  -2.804  -2.653  0.00  0.00    +0.124 A 
ATOM     17  C   UNL     1       2.600  -3.823  -3.072  0.00  0.00    +0.046 A 
ATOM     18  C   UNL     1       2.178  -3.829  -4.393  0.00  0.00    +0.038 A 
ATOM     19  C   UNL     1       2.607  -2.825  -5.242  0.00  0.00    +0.126 A 
ATOM     20  N   UNL     1       3.409  -1.872  -4.808  0.00  0.00    -0.260 NA
ATOM     21  C   UNL     1       3.825  -1.832  -3.558  0.00  0.00    +0.139 A 
ATOM     22 BR   UNL     1       1.029  -5.191  -5.025  0.00  0.00    -0.049 Br
ENDBRANCH  13  16
ENDBRANCH   1  13
TORSDOF 5
