REMARK  Name = ZINC19315526
REMARK  6 active torsions:
REMARK  status: ('A' for Active; 'I' for Inactive)
REMARK    1  A    between atoms: C_1  and  C_2
REMARK    2  A    between atoms: C_3  and  C_7
REMARK    3  A    between atoms: C_10  and  S_13
REMARK    4  A    between atoms: N_11  and  N_12
REMARK    5  A    between atoms: S_13  and  C_14
REMARK    6  A    between atoms: C_14  and  C_15
REMARK                            x       y       z     vdW  Elec       q    Type
REMARK                         _______ _______ _______ _____ _____    ______ ____
ROOT
ATOM      1  C   UNL     1      -1.860   9.776   2.343  0.00  0.00    +0.185 A 
ATOM      2  N   UNL     1      -2.360   9.425   1.181  0.00  0.00    -0.127 NA
ATOM      3  N   UNL     1      -2.424   8.145   1.099  0.00  0.00    -0.121 NA
ATOM      4  C   UNL     1      -1.970   7.598   2.203  0.00  0.00    +0.209 A 
ATOM      5  N   UNL     1      -1.599   8.617   3.037  0.00  0.00    -0.224 N 
ENDROOT
BRANCH   1   8
ATOM      6  C   UNL     1      -2.456  12.414   0.758  0.00  0.00    +0.087 C 
ATOM      7  C   UNL     1      -1.879  12.311   2.146  0.00  0.00    +0.112 A 
ATOM      8  C   UNL     1      -1.627  11.157   2.819  0.00  0.00    +0.061 A 
ATOM      9  C   UNL     1      -1.068  11.565   4.115  0.00  0.00    +0.053 A 
ATOM     10  C   UNL     1      -1.043  12.908   4.101  0.00  0.00    +0.196 A 
ATOM     11  O   UNL     1      -1.530  13.343   2.928  0.00  0.00    -0.467 OA
ENDBRANCH   1   8
BRANCH   5  12
ATOM     12  N   UNL     1      -1.077   8.507   4.294  0.00  0.00    -0.295 N 
ATOM     13  H   UNL     1      -0.916   7.513   4.738  0.00  0.00    +0.163 HD
ATOM     14  H   UNL     1      -0.818   9.412   4.863  0.00  0.00    +0.163 HD
ENDBRANCH   5  12
BRANCH   4  15
ATOM     15  S   UNL     1      -1.864   5.874   2.550  0.00  0.00    -0.075 S 
BRANCH  15  16
ATOM     16  C   UNL     1      -2.532   5.202   1.007  0.00  0.00    +0.173 C 
BRANCH  16  17
ATOM     17  C   UNL     1      -2.538   3.697   1.076  0.00  0.00    +0.226 C 
ATOM     18  O   UNL     1      -2.131   3.133   2.070  0.00  0.00    -0.275 OA
ATOM     19  N   UNL     1      -2.996   2.976   0.034  0.00  0.00    -0.297 N 
ATOM     20  C   UNL     1      -3.649   3.635  -1.107  0.00  0.00    +0.108 C 
ATOM     21  C   UNL     1      -2.955   3.194  -2.399  0.00  0.00    +0.019 C 
ATOM     22  C   UNL     1      -2.940   1.665  -2.474  0.00  0.00    +0.007 C 
ATOM     23  C   UNL     1      -2.148   1.107  -1.285  0.00  0.00    +0.010 C 
ATOM     24  C   UNL     1      -2.854   1.516   0.010  0.00  0.00    +0.079 C 
ATOM     25  C   UNL     1      -2.046   1.059   1.221  0.00  0.00    +0.023 C 
ATOM     26  C   UNL     1      -0.647   1.649   1.182  0.00  0.00    +0.002 C 
ATOM     27  C   UNL     1       0.055   1.203  -0.103  0.00  0.00    +0.000 C 
ATOM     28  C   UNL     1      -0.738   1.701  -1.311  0.00  0.00    +0.005 C 
ENDBRANCH  16  17
ENDBRANCH  15  16
ENDBRANCH   4  15
TORSDOF 5
