REMARK  Name = ZINC06937807
REMARK  8 active torsions:
REMARK  status: ('A' for Active; 'I' for Inactive)
REMARK    1  A    between atoms: C_1  and  C_2
REMARK    2  A    between atoms: C_3  and  C_26
REMARK    3  A    between atoms: C_4  and  C_25
REMARK    4  A    between atoms: C_7  and  C_8
REMARK    5  A    between atoms: N_10  and  C_11
REMARK    6  A    between atoms: C_12  and  C_22
REMARK    7  A    between atoms: C_17  and  C_21
REMARK    8  A    between atoms: C_26  and  C_28
REMARK                            x       y       z     vdW  Elec       q    Type
REMARK                         _______ _______ _______ _____ _____    ______ ____
ROOT
ATOM      1  C   UNL     1      -2.497   1.443  -5.753  0.00  0.00    +0.265 C 
ATOM      2  O   UNL     1      -3.235   2.301  -5.305  0.00  0.00    -0.268 OA
ATOM      3  N   UNL     1      -1.821   0.631  -4.916  0.00  0.00    -0.274 N 
ATOM      4  H   UNL     1      -1.233  -0.052  -5.273  0.00  0.00    +0.156 HD
ENDROOT
BRANCH   3   5
ATOM      5  C   UNL     1      -1.967   0.773  -3.546  0.00  0.00    +0.085 A 
ATOM      6  C   UNL     1      -1.362   0.041  -2.534  0.00  0.00    +0.068 A 
ATOM      7  C   UNL     1      -1.688   0.393  -1.162  0.00  0.00    -0.023 A 
ATOM      8  C   UNL     1      -2.561   1.415  -1.023  0.00  0.00    -0.004 A 
ATOM      9  S   UNL     1      -2.949   1.907  -2.679  0.00  0.00    -0.077 S 
ATOM     10  C   UNL     1      -3.076   1.995   0.258  0.00  0.00    +0.046 C 
ATOM     11  C   UNL     1      -2.181   1.504   1.405  0.00  0.00    -0.009 C 
ATOM     12  C   UNL     1      -1.987  -0.009   1.271  0.00  0.00    +0.008 C 
ATOM     13  C   UNL     1      -1.109  -0.315   0.056  0.00  0.00    +0.037 C 
ATOM     14  C   UNL     1      -2.848   1.817   2.746  0.00  0.00    +0.008 C 
BRANCH   6  15
ATOM     15  C   UNL     1      -0.429  -1.048  -2.837  0.00  0.00    +0.244 C 
ATOM     16  O   UNL     1      -0.844  -2.184  -2.978  0.00  0.00    -0.270 OA
ATOM     17  N   UNL     1       0.889  -0.792  -2.960  0.00  0.00    -0.325 N 
ATOM     18  H   UNL     1       1.219   0.113  -2.847  0.00  0.00    +0.145 HD
ATOM     19  H   UNL     1       1.506  -1.513  -3.160  0.00  0.00    +0.145 HD
ENDBRANCH   6  15
ENDBRANCH   3   5
BRANCH   1  26
ATOM     20  C   UNL     1      -3.933   3.176  -7.912  0.00  0.00    +0.047 C 
ATOM     21  C   UNL     1      -2.966   2.046  -8.155  0.00  0.00    -0.010 A 
ATOM     22  C   UNL     1      -2.532   1.564  -9.414  0.00  0.00    +0.041 A 
ATOM     23  C   UNL     1      -1.651   0.523  -9.167  0.00  0.00    +0.024 A 
ATOM     24  N   UNL     1      -1.538   0.371  -7.839  0.00  0.00    -0.354 N 
ATOM     25  H   UNL     1      -0.980  -0.286  -7.395  0.00  0.00    +0.166 HD
ATOM     26  C   UNL     1      -2.343   1.293  -7.205  0.00  0.00    +0.106 A 
ATOM     27  C   UNL     1      -0.936  -0.293 -10.212  0.00  0.00    +0.064 C 
BRANCH  22  28
ATOM     28  C   UNL     1      -2.939   2.070 -10.728  0.00  0.00    +0.162 C 
ATOM     29  O   UNL     1      -3.912   1.603 -11.283  0.00  0.00    -0.292 OA
ATOM     30  C   UNL     1      -2.149   3.170 -11.390  0.00  0.00    +0.091 C 
ENDBRANCH  22  28
ENDBRANCH   1  26
TORSDOF 4
