REMARK  Name = ZINC45831225
REMARK  9 active torsions:
REMARK  status: ('A' for Active; 'I' for Inactive)
REMARK    1  A    between atoms: C_1  and  C_2
REMARK    2  A    between atoms: N_11  and  C_15
REMARK    3  A    between atoms: C_15  and  C_16
REMARK    4  A    between atoms: N_18  and  C_19
REMARK    5  A    between atoms: C_19  and  C_20
REMARK    6  A    between atoms: C_20  and  C_22
REMARK    7  A    between atoms: C_20  and  N_28
REMARK    8  A    between atoms: N_28  and  C_29
REMARK    9  A    between atoms: N_28  and  C_30
REMARK                            x       y       z     vdW  Elec       q    Type
REMARK                         _______ _______ _______ _____ _____    ______ ____
ROOT
ATOM      1  C   UNL     1       0.814   0.556   5.570  0.00  0.00    +0.231 C 
ATOM      2  O   UNL     1       1.348  -0.489   5.263  0.00  0.00    -0.274 OA
ATOM      3  N   UNL     1       0.769   0.934   6.863  0.00  0.00    -0.316 N 
ATOM      4  H   UNL     1       0.342   1.770   7.109  0.00  0.00    +0.149 HD
ENDROOT
BRANCH   1   5
ATOM      5  C   UNL     1       0.201   1.430   4.507  0.00  0.00    +0.213 C 
BRANCH   5  15
ATOM      6  C   UNL     1      -1.050   1.500   0.231  0.00  0.00    +0.010 C 
ATOM      7  C   UNL     1      -0.825  -0.012   0.167  0.00  0.00    +0.018 C 
ATOM      8  C   UNL     1      -0.183  -0.376  -1.175  0.00  0.00    +0.006 C 
ATOM      9  C   UNL     1       0.060  -1.885  -1.230  0.00  0.00    +0.000 C 
ATOM     10  C   UNL     1       1.003  -2.293  -0.096  0.00  0.00    +0.003 C 
ATOM     11  C   UNL     1       0.366  -1.936   1.250  0.00  0.00    +0.035 C 
ATOM     12  C   UNL     1       0.098  -0.436   1.304  0.00  0.00    +0.115 C 
ATOM     13  C   UNL     1      -0.499  -0.055   2.639  0.00  0.00    +0.247 C 
ATOM     14  O   UNL     1      -1.548  -0.440   3.110  0.00  0.00    -0.273 OA
ATOM     15  N   UNL     1       0.381   0.803   3.195  0.00  0.00    -0.215 N 
ATOM     16  C   UNL     1       1.438   1.010   2.401  0.00  0.00    +0.310 C 
ATOM     17  O   UNL     1       2.364   1.743   2.685  0.00  0.00    -0.252 OA
ATOM     18  N   UNL     1       1.359   0.314   1.250  0.00  0.00    -0.285 N 
ATOM     19  H   UNL     1       2.008   0.309   0.529  0.00  0.00    +0.151 HD
ENDBRANCH   5  15
ENDBRANCH   1   5
BRANCH   3  20
ATOM     20  C   UNL     1       1.365   0.084   7.897  0.00  0.00    +0.089 C 
BRANCH  20  21
ATOM     21  C   UNL     1       1.312   0.807   9.244  0.00  0.00    -0.049 C 
BRANCH  21  22
ATOM     22  C   UNL     1       2.285   1.988   9.227  0.00  0.00    -0.023 C 
ATOM     23  C   UNL     1       1.859   2.984   8.147  0.00  0.00    +0.002 C 
ATOM     24  C   UNL     1       2.831   4.165   8.130  0.00  0.00    +0.000 C 
ATOM     25  C   UNL     1       4.243   3.659   7.829  0.00  0.00    +0.000 C 
ATOM     26  C   UNL     1       4.669   2.663   8.909  0.00  0.00    +0.000 C 
ATOM     27  C   UNL     1       3.697   1.482   8.926  0.00  0.00    +0.002 C 
ENDBRANCH  21  22
BRANCH  21  28
ATOM     28  N   UNL     1      -0.051   1.299   9.483  0.00  0.00    +0.379 N 
ATOM     29  C   UNL     1      -0.998   0.179   9.394  0.00  0.00    -0.096 C 
ATOM     30  C   UNL     1      -0.128   1.899  10.822  0.00  0.00    -0.096 C 
ATOM     31  H   UNL     1      -0.285   1.993   8.790  0.00  0.00    -0.082 HD
ENDBRANCH  21  28
ENDBRANCH  20  21
ENDBRANCH   3  20
TORSDOF 6
