REMARK  Name = ZINC33742165
REMARK  8 active torsions:
REMARK  status: ('A' for Active; 'I' for Inactive)
REMARK    1  A    between atoms: C_1  and  C_2
REMARK    2  A    between atoms: C_2  and  C_3
REMARK    3  A    between atoms: C_2  and  C_4
REMARK    4  A    between atoms: C_7  and  C_10
REMARK    5  A    between atoms: N_15  and  C_18
REMARK    6  A    between atoms: N_21  and  C_24
REMARK    7  A    between atoms: C_24  and  C_25
REMARK    8  A    between atoms: N_31  and  C_35
REMARK                            x       y       z     vdW  Elec       q    Type
REMARK                         _______ _______ _______ _____ _____    ______ ____
ROOT
ATOM      1  C   UNL     1      -5.058   4.363  -8.412  0.00  0.00    +0.142 C 
ATOM      2  C   UNL     1      -4.830   5.119  -7.119  0.00  0.00    +0.058 C 
ATOM      3  C   UNL     1      -5.077   6.444  -7.115  0.00  0.00    +0.042 C 
ATOM      4  C   UNL     1      -4.769   6.931  -5.717  0.00  0.00    +0.159 C 
ATOM      5  N   UNL     1      -4.335   5.731  -4.986  0.00  0.00    -0.289 N 
ATOM      6  C   UNL     1      -4.383   4.700  -5.849  0.00  0.00    +0.247 C 
ATOM      7  O   UNL     1      -4.082   3.554  -5.569  0.00  0.00    -0.270 OA
ATOM      8  N   UNL     1      -5.518   7.085  -8.238  0.00  0.00    -0.260 N 
ATOM      9  C   UNL     1      -5.736   6.467  -9.406  0.00  0.00    +0.307 C 
ATOM     10  O   UNL     1      -6.128   7.121 -10.353  0.00  0.00    -0.252 OA
ATOM     11  N   UNL     1      -5.534   5.144  -9.566  0.00  0.00    -0.288 N 
ATOM     12  C   UNL     1      -5.765   8.527  -8.161  0.00  0.00    +0.139 C 
ATOM     13  H   UNL     1      -5.716   4.646 -10.530  0.00  0.00    +0.151 HD
ENDROOT
BRANCH   5  14
ATOM     14  C   UNL     1      -3.922   5.671  -3.582  0.00  0.00    +0.073 C 
ATOM     15  C   UNL     1      -4.847   4.719  -2.817  0.00  0.00    +0.004 C 
ATOM     16  C   UNL     1      -4.373   4.614  -1.365  0.00  0.00    -0.077 C 
ATOM     17  N   UNL     1      -2.993   4.114  -1.334  0.00  0.00    +0.382 N 
ATOM     18  C   UNL     1      -2.079   5.035  -2.022  0.00  0.00    -0.077 C 
ATOM     19  C   UNL     1      -2.484   5.154  -3.493  0.00  0.00    +0.004 C 
ATOM     20  H   UNL     1      -2.971   3.156  -1.874  0.00  0.00    -0.081 HD
BRANCH  17  21
ATOM     21  C   UNL     1      -2.553   3.869   0.045  0.00  0.00    -0.043 C 
BRANCH  21  22
ATOM     22  C   UNL     1      -1.238   3.133   0.030  0.00  0.00    -0.064 A 
ATOM     23  C   UNL     1      -1.219   1.751   0.017  0.00  0.00    +0.002 A 
ATOM     24  C   UNL     1      -0.013   1.076   0.008  0.00  0.00    +0.000 A 
ATOM     25  C   UNL     1       1.175   1.783   0.000  0.00  0.00    +0.000 A 
ATOM     26  C   UNL     1       1.156   3.165   0.008  0.00  0.00    +0.000 A 
ATOM     27  C   UNL     1      -0.050   3.840   0.022  0.00  0.00    +0.002 A 
ENDBRANCH  21  22
ENDBRANCH  17  21
ENDBRANCH   5  14
BRANCH   1  31
ATOM     28  C   UNL     1      -7.907   1.274  -7.646  0.00  0.00    -0.045 A 
ATOM     29  C   UNL     1      -6.555   1.008  -7.544  0.00  0.00    +0.004 A 
ATOM     30  C   UNL     1      -5.633   2.007  -7.792  0.00  0.00    +0.006 A 
ATOM     31  C   UNL     1      -6.063   3.273  -8.142  0.00  0.00    -0.023 A 
ATOM     32  C   UNL     1      -7.416   3.541  -8.240  0.00  0.00    +0.006 A 
ATOM     33  C   UNL     1      -8.338   2.540  -7.997  0.00  0.00    +0.004 A 
BRANCH  28  35
ATOM     34  C   UNL     1      -9.817   0.602  -6.215  0.00  0.00    +0.012 C 
ATOM     35  C   UNL     1      -8.913   0.184  -7.375  0.00  0.00    +0.013 C 
ATOM     36  C   UNL     1      -9.762  -0.048  -8.626  0.00  0.00    +0.012 C 
ENDBRANCH  28  35
ENDBRANCH   1  31
TORSDOF 5
