REMARK  Name = ZINC09807836
REMARK  9 active torsions:
REMARK  status: ('A' for Active; 'I' for Inactive)
REMARK    1  A    between atoms: C_1  and  C_2
REMARK    2  A    between atoms: C_2  and  O_3
REMARK    3  A    between atoms: O_3  and  C_4
REMARK    4  A    between atoms: C_4  and  C_6
REMARK    5  A    between atoms: C_12  and  C_14
REMARK    6  A    between atoms: C_12  and  C_21
REMARK    7  A    between atoms: C_12  and  N_56
REMARK    8  A    between atoms: C_22  and  O_34
REMARK    9  A    between atoms: C_27  and  C_29
REMARK                            x       y       z     vdW  Elec       q    Type
REMARK                         _______ _______ _______ _____ _____    ______ ____
ROOT
ATOM      1  C   UNL     1      -0.740   1.453   8.533  0.00  0.00    +0.005 C 
ENDROOT
BRANCH   1   2
ATOM      2  C   UNL     1      -0.716   2.946   8.735  0.00  0.00    +0.045 A 
ATOM      3  C   UNL     1      -1.696   3.758   9.148  0.00  0.00    +0.225 A 
ATOM      4  N   UNL     1      -1.480   5.108   9.277  0.00  0.00    -0.173 N 
ATOM      5  C   UNL     1      -0.235   5.574   8.954  0.00  0.00    +0.199 A 
ATOM      6  S   UNL     1       0.627   4.096   8.477  0.00  0.00    -0.050 S 
ATOM      7  N   UNL     1      -0.192   6.867   9.121  0.00  0.00    -0.197 NA
ATOM      8  C   UNL     1      -1.385   7.297   9.554  0.00  0.00    +0.218 A 
ATOM      9  N   UNL     1      -2.199   6.269   9.664  0.00  0.00    -0.138 NA
BRANCH   8  10
ATOM     10  C   UNL     1      -1.730   8.702   9.858  0.00  0.00    +0.173 A 
ATOM     11  C   UNL     1      -0.897   9.770   9.748  0.00  0.00    +0.053 A 
ATOM     12  C   UNL     1      -1.638  10.904  10.137  0.00  0.00    +0.042 A 
ATOM     13  C   UNL     1      -2.874  10.476  10.462  0.00  0.00    +0.196 A 
ATOM     14  O   UNL     1      -2.927   9.146  10.288  0.00  0.00    -0.460 OA
ENDBRANCH   8  10
BRANCH   3  15
ATOM     15  O   UNL     1      -2.917   3.240   9.449  0.00  0.00    -0.492 OA
ATOM     16  H   UNL     1      -3.014   2.973  10.373  0.00  0.00    +0.294 HD
ENDBRANCH   3  15
ENDBRANCH   1   2
BRANCH   1  22
ATOM     17  C   UNL     1       0.634  -0.648   5.726  0.00  0.00    +0.081 C 
ATOM     18  C   UNL     1       0.037   0.121   4.545  0.00  0.00    +0.011 C 
ATOM     19  C   UNL     1       0.061   1.620   4.858  0.00  0.00    -0.018 C 
ATOM     20  C   UNL     1      -0.716   1.879   6.150  0.00  0.00    -0.077 C 
ATOM     21  C   UNL     1      -0.160  -0.323   6.994  0.00  0.00    -0.063 C 
ATOM     22  N   UNL     1      -0.077   1.130   7.253  0.00  0.00    +0.388 N 
ATOM     23  H   UNL     1       0.911   1.402   7.311  0.00  0.00    -0.080 HD
BRANCH  17  24
ATOM     24  C   UNL     1       0.560  -2.128   5.452  0.00  0.00    +0.308 C 
ATOM     25  O   UNL     1      -0.064  -2.850   6.194  0.00  0.00    -0.251 OA
BRANCH  24  26
ATOM     26  O   UNL     1       1.187  -2.644   4.383  0.00  0.00    -0.465 OA
BRANCH  26  28
ATOM     27  C   UNL     1       1.847  -4.479   2.924  0.00  0.00    +0.048 C 
ATOM     28  C   UNL     1       1.073  -4.078   4.181  0.00  0.00    +0.229 C 
ENDBRANCH  26  28
ENDBRANCH  24  26
ENDBRANCH  17  24
ENDBRANCH   1  22
BRANCH   1  29
ATOM     29  C   UNL     1       0.012   0.782   9.653  0.00  0.00    -0.056 A 
ATOM     30  C   UNL     1       1.393   0.840   9.690  0.00  0.00    +0.004 A 
ATOM     31  C   UNL     1       2.083   0.230  10.720  0.00  0.00    +0.020 A 
ATOM     32  C   UNL     1       1.393  -0.448  11.709  0.00  0.00    +0.041 A 
ATOM     33  C   UNL     1       0.011  -0.511  11.668  0.00  0.00    +0.020 A 
ATOM     34  C   UNL     1      -0.678   0.104  10.641  0.00  0.00    +0.004 A 
ATOM     35 CL   UNL     1       2.260  -1.220  13.000  0.00  0.00    -0.084 Cl
ENDBRANCH   1  29
TORSDOF 8
