REMARK  Name = ZINC35926725
REMARK  8 active torsions:
REMARK  status: ('A' for Active; 'I' for Inactive)
REMARK    1  A    between atoms: C_1  and  C_2
REMARK    2  A    between atoms: C_2  and  C_3
REMARK    3  A    between atoms: C_3  and  C_4
REMARK    4  A    between atoms: C_4  and  C_5
REMARK    5  A    between atoms: C_19  and  C_21
REMARK    6  A    between atoms: C_21  and  N_22
REMARK    7  A    between atoms: N_25  and  C_28
REMARK    8  A    between atoms: C_32  and  C_34
REMARK                            x       y       z     vdW  Elec       q    Type
REMARK                         _______ _______ _______ _____ _____    ______ ____
ROOT
ATOM      1  C   UNL     1      -0.521  -2.495  -3.685  0.00  0.00    +0.216 C 
ATOM      2  O   UNL     1      -1.092  -2.099  -2.691  0.00  0.00    -0.276 OA
ATOM      3  N   UNL     1      -0.398  -3.818  -3.909  0.00  0.00    -0.298 N 
ATOM      4  C   UNL     1       0.297  -4.312  -5.107  0.00  0.00    +0.126 C 
ATOM      5  C   UNL     1       1.417  -5.263  -4.666  0.00  0.00    +0.127 C 
ATOM      6  N   UNL     1       0.860  -6.237  -3.717  0.00  0.00    -0.298 N 
ATOM      7  C   UNL     1       0.165  -5.743  -2.520  0.00  0.00    +0.127 C 
ATOM      8  C   UNL     1      -0.950  -4.793  -2.958  0.00  0.00    +0.126 C 
ATOM      9  C   UNL     1       0.985  -7.581  -3.945  0.00  0.00    +0.198 A 
ATOM     10  N   UNL     1       1.540  -8.013  -5.110  0.00  0.00    -0.295 N 
ATOM     11  H   UNL     1       1.842  -7.372  -5.772  0.00  0.00    +0.172 HD
ATOM     12  C   UNL     1       1.667  -9.337  -5.341  0.00  0.00    +0.253 A 
ATOM     13  O   UNL     1       2.162  -9.742  -6.380  0.00  0.00    -0.268 OA
ATOM     14  C   UNL     1       1.219 -10.241  -4.362  0.00  0.00    +0.091 A 
ATOM     15  C   UNL     1       0.671  -9.749  -3.213  0.00  0.00    +0.034 A 
ATOM     16  N   UNL     1       0.572  -8.435  -3.029  0.00  0.00    -0.223 NA
ENDROOT
BRANCH   1  17
ATOM     17  C   UNL     1       0.050  -1.507  -4.670  0.00  0.00    +0.096 C 
BRANCH  17  18
ATOM     18  C   UNL     1      -0.225  -0.084  -4.182  0.00  0.00    +0.009 C 
BRANCH  18  20
ATOM     19  C   UNL     1       0.080   2.343  -4.694  0.00  0.00    +0.004 C 
ATOM     20  C   UNL     1       0.355   0.919  -5.182  0.00  0.00    -0.003 C 
ENDBRANCH  18  20
ENDBRANCH  17  18
ENDBRANCH   1  17
BRANCH  15  21
ATOM     21  C   UNL     1       0.182 -10.697  -2.147  0.00  0.00    -0.022 C 
BRANCH  21  22
ATOM     22  N   UNL     1       0.998 -10.533  -0.936  0.00  0.00    +0.385 N 
ATOM     23  C   UNL     1       0.798  -9.184  -0.392  0.00  0.00    -0.059 C 
ATOM     24  C   UNL     1       1.733  -8.973   0.804  0.00  0.00    +0.086 C 
ATOM     25  N   UNL     1       1.505 -10.057   1.771  0.00  0.00    -0.333 N 
ATOM     26  C   UNL     1       1.525 -11.443   1.277  0.00  0.00    +0.086 C 
ATOM     27  C   UNL     1       0.600 -11.537   0.059  0.00  0.00    -0.059 C 
ATOM     28  H   UNL     1       1.972 -10.659  -1.168  0.00  0.00    -0.081 HD
BRANCH  25  29
ATOM     29  C   UNL     1       1.276  -9.780   3.121  0.00  0.00    +0.030 A 
ATOM     30  C   UNL     1       1.187 -10.818   4.040  0.00  0.00    +0.023 A 
ATOM     31  C   UNL     1       0.961 -10.540   5.373  0.00  0.00    +0.002 A 
ATOM     32  C   UNL     1       0.824  -9.230   5.795  0.00  0.00    +0.003 A 
ATOM     33  C   UNL     1       0.912  -8.194   4.883  0.00  0.00    -0.049 A 
ATOM     34  C   UNL     1       1.143  -8.465   3.548  0.00  0.00    +0.026 A 
ATOM     35  C   UNL     1       0.760  -6.768   5.346  0.00  0.00    +0.044 C 
ENDBRANCH  25  29
ENDBRANCH  21  22
ENDBRANCH  15  21
TORSDOF 6
