REMARK  Name = ZINC27362833
REMARK  10 active torsions:
REMARK  status: ('A' for Active; 'I' for Inactive)
REMARK    1  A    between atoms: C_1  and  N_2
REMARK    2  A    between atoms: N_2  and  C_3
REMARK    3  A    between atoms: N_2  and  C_21
REMARK    4  A    between atoms: C_3  and  C_4
REMARK    5  A    between atoms: N_6  and  C_15
REMARK    6  A    between atoms: C_8  and  C_9
REMARK    7  A    between atoms: C_21  and  C_22
REMARK    8  A    between atoms: C_22  and  C_24
REMARK    9  A    between atoms: C_25  and  N_36
REMARK   10  A    between atoms: N_26  and  C_33
REMARK                            x       y       z     vdW  Elec       q    Type
REMARK                         _______ _______ _______ _____ _____    ______ ____
ROOT
ATOM      1  C   UNL     1       5.255   5.143   0.004  0.00  0.00    -0.095 C 
ATOM      2  N   UNL     1       4.630   3.953   0.597  0.00  0.00    +0.385 N 
ATOM      3  H   UNL     1       4.223   3.342  -0.222  0.00  0.00    -0.081 HD
ENDROOT
BRANCH   2   4
ATOM      4  C   UNL     1       3.517   4.327   1.479  0.00  0.00    -0.039 C 
BRANCH   4   5
ATOM      5  C   UNL     1       2.411   4.941   0.659  0.00  0.00    -0.018 A 
ATOM      6  C   UNL     1       2.162   6.262   0.524  0.00  0.00    +0.116 A 
ATOM      7  N   UNL     1       1.085   6.401  -0.293  0.00  0.00    -0.239 N 
ATOM      8  N   UNL     1       0.664   5.121  -0.676  0.00  0.00    -0.166 NA
ATOM      9  C   UNL     1       1.455   4.239  -0.101  0.00  0.00    +0.094 A 
BRANCH   9  10
ATOM     10  C   UNL     1       1.360   2.765  -0.236  0.00  0.00    +0.002 A 
ATOM     11  C   UNL     1       0.114   2.151  -0.344  0.00  0.00    +0.010 A 
ATOM     12  C   UNL     1       0.031   0.779  -0.469  0.00  0.00    +0.001 A 
ATOM     13  C   UNL     1       1.183   0.014  -0.488  0.00  0.00    +0.000 A 
ATOM     14  C   UNL     1       2.423   0.617  -0.382  0.00  0.00    +0.001 A 
ATOM     15  C   UNL     1       2.517   1.988  -0.255  0.00  0.00    +0.010 A 
ENDBRANCH   9  10
BRANCH   7  16
ATOM     16  C   UNL     1       0.502   7.612  -0.688  0.00  0.00    +0.065 A 
ATOM     17  C   UNL     1       1.023   8.816  -0.232  0.00  0.00    +0.028 A 
ATOM     18  C   UNL     1       0.450  10.009  -0.628  0.00  0.00    +0.002 A 
ATOM     19  C   UNL     1      -0.649  10.004  -1.467  0.00  0.00    +0.000 A 
ATOM     20  C   UNL     1      -1.173   8.807  -1.919  0.00  0.00    +0.002 A 
ATOM     21  C   UNL     1      -0.601   7.611  -1.531  0.00  0.00    +0.028 A 
ENDBRANCH   7  16
ENDBRANCH   4   5
ENDBRANCH   2   4
BRANCH   2  22
ATOM     22  C   UNL     1       5.621   3.141   1.316  0.00  0.00    +0.003 C 
BRANCH  22  23
ATOM     23  C   UNL     1       6.614   2.574   0.334  0.00  0.00    +0.155 C 
ATOM     24  O   UNL     1       6.506   2.821  -0.850  0.00  0.00    -0.294 OA
BRANCH  23  25
ATOM     25  C   UNL     1       7.668   1.754   0.790  0.00  0.00    +0.118 A 
ATOM     26  C   UNL     1       8.533   1.115  -0.115  0.00  0.00    +0.116 A 
ATOM     27  N   UNL     1       9.543   0.336   0.375  0.00  0.00    -0.278 N 
ATOM     28  C   UNL     1       9.714   0.164   1.695  0.00  0.00    +0.331 A 
ATOM     29  O   UNL     1      10.624  -0.543   2.080  0.00  0.00    -0.246 OA
ATOM     30  N   UNL     1       8.916   0.745   2.606  0.00  0.00    -0.274 N 
ATOM     31  H   UNL     1       9.093   0.577   3.678  0.00  0.00    +0.173 HD
ATOM     32  C   UNL     1       7.894   1.538   2.225  0.00  0.00    +0.266 A 
ATOM     33  O   UNL     1       7.173   2.063   3.053  0.00  0.00    -0.267 OA
BRANCH  27  34
ATOM     34  C   UNL     1      10.453  -0.331  -0.560  0.00  0.00    +0.094 C 
ATOM     35  C   UNL     1       9.831  -1.085  -1.736  0.00  0.00    +0.027 C 
ATOM     36  C   UNL     1      10.456  -1.860  -0.574  0.00  0.00    +0.027 C 
ENDBRANCH  27  34
BRANCH  26  37
ATOM     37  N   UNL     1       8.370   1.273  -1.456  0.00  0.00    -0.344 N 
ATOM     38  H   UNL     1       9.053   0.768  -2.156  0.00  0.00    +0.144 HD
ATOM     39  H   UNL     1       7.557   1.905  -1.841  0.00  0.00    +0.144 HD
ENDBRANCH  26  37
ENDBRANCH  23  25
ENDBRANCH  22  23
ENDBRANCH   2  22
TORSDOF 9
