REMARK  Name = ZINC41086303
REMARK  6 active torsions:
REMARK  status: ('A' for Active; 'I' for Inactive)
REMARK    1  A    between atoms: C_1  and  C_2
REMARK    2  A    between atoms: C_7  and  C_13
REMARK    3  A    between atoms: C_13  and  S_14
REMARK    4  A    between atoms: S_14  and  C_15
REMARK    5  A    between atoms: N_23  and  C_24
REMARK    6  A    between atoms: C_29  and  C_30
REMARK                            x       y       z     vdW  Elec       q    Type
REMARK                         _______ _______ _______ _____ _____    ______ ____
ROOT
ATOM      1  C   UNL     1      -1.358  -8.643   0.638  0.00  0.00    +0.160 A 
ATOM      2  N   UNL     1      -0.292  -9.370   0.919  0.00  0.00    -0.133 NA
ATOM      3  N   UNL     1      -0.369 -10.743   0.870  0.00  0.00    -0.125 NA
ATOM      4  C   UNL     1      -1.505 -11.326   0.543  0.00  0.00    +0.190 A 
ATOM      5  S   UNL     1      -2.565  -9.911   0.285  0.00  0.00    -0.024 S 
ATOM      6  N   UNL     1      -1.801 -12.682   0.433  0.00  0.00    -0.247 N 
ATOM      7  C   UNL     1      -0.848 -13.602   0.679  0.00  0.00    +0.310 C 
ATOM      8  O   UNL     1       0.271 -13.248   0.997  0.00  0.00    -0.252 OA
ATOM      9  N   UNL     1      -1.134 -14.915   0.573  0.00  0.00    -0.269 N 
ATOM     10  H   UNL     1      -2.694 -12.965   0.179  0.00  0.00    +0.158 HD
ATOM     11  H   UNL     1      -2.045 -15.200   0.399  0.00  0.00    +0.156 HD
ENDROOT
BRANCH   9  12
ATOM     12  C   UNL     1      -0.118 -15.867   0.712  0.00  0.00    +0.039 A 
ATOM     13  C   UNL     1       1.201 -15.520   0.447  0.00  0.00    +0.043 A 
ATOM     14  C   UNL     1       2.202 -16.462   0.587  0.00  0.00    +0.043 A 
ATOM     15  C   UNL     1       1.891 -17.750   0.989  0.00  0.00    +0.020 A 
ATOM     16  C   UNL     1       0.580 -18.097   1.253  0.00  0.00    +0.006 A 
ATOM     17  C   UNL     1      -0.425 -17.157   1.121  0.00  0.00    -0.029 A 
ATOM     18  C   UNL     1      -1.854 -17.535   1.415  0.00  0.00    +0.045 C 
ATOM     19 CL   UNL     1       3.851 -16.031   0.256  0.00  0.00    -0.083 Cl
ENDBRANCH   9  12
BRANCH   1  20
ATOM     20  S   UNL     1      -1.542  -6.891   0.624  0.00  0.00    -0.091 S 
BRANCH  20  21
ATOM     21  C   UNL     1       0.101  -6.273   1.083  0.00  0.00    +0.132 C 
BRANCH  21  28
ATOM     22  C   UNL     1       0.006   1.499  -0.056  0.00  0.00    +0.045 C 
ATOM     23  C   UNL     1       0.025  -0.008  -0.058  0.00  0.00    -0.034 A 
ATOM     24  C   UNL     1       0.038  -0.707  -1.273  0.00  0.00    +0.008 A 
ATOM     25  C   UNL     1       0.055  -2.069  -1.266  0.00  0.00    +0.047 A 
ATOM     26  C   UNL     1       0.060  -2.754  -0.037  0.00  0.00    +0.141 A 
ATOM     27  N   UNL     1       0.077  -4.086  -0.027  0.00  0.00    -0.233 NA
ATOM     28  C   UNL     1       0.082  -4.766   1.108  0.00  0.00    +0.059 A 
ATOM     29  C   UNL     1       0.069  -4.097   2.316  0.00  0.00    +0.094 A 
ATOM     30  C   UNL     1       0.051  -2.697   2.314  0.00  0.00    +0.259 A 
ATOM     31  O   UNL     1       0.040  -2.076   3.365  0.00  0.00    -0.267 OA
ATOM     32  N   UNL     1       0.047  -2.045   1.132  0.00  0.00    -0.268 N 
ATOM     33  C   UNL     1       0.035  -0.683   1.114  0.00  0.00    +0.099 A 
ENDBRANCH  21  28
ENDBRANCH  20  21
ENDBRANCH   1  20
TORSDOF 4
