REMARK  Name = ZINC25330437
REMARK  9 active torsions:
REMARK  status: ('A' for Active; 'I' for Inactive)
REMARK    1  A    between atoms: C_1  and  C_2
REMARK    2  A    between atoms: C_3  and  C_26
REMARK    3  A    between atoms: C_4  and  N_25
REMARK    4  A    between atoms: C_9  and  C_10
REMARK    5  A    between atoms: C_12  and  O_18
REMARK    6  A    between atoms: C_13  and  O_17
REMARK    7  A    between atoms: O_18  and  C_19
REMARK    8  A    between atoms: C_20  and  C_24
REMARK    9  A    between atoms: C_21  and  C_22
REMARK                            x       y       z     vdW  Elec       q    Type
REMARK                         _______ _______ _______ _____ _____    ______ ____
ROOT
ATOM      1  C   UNL     1      -0.464  -3.218   0.230  0.00  0.00    +0.046 C 
ATOM      2  C   UNL     1       1.036  -3.142   0.110  0.00  0.00    -0.020 A 
ATOM      3  C   UNL     1       1.782  -4.257  -0.288  0.00  0.00    +0.095 A 
ATOM      4  C   UNL     1       3.183  -4.143  -0.387  0.00  0.00    +0.135 A 
ATOM      5  N   UNL     1       3.794  -3.006  -0.111  0.00  0.00    -0.230 NA
ATOM      6  C   UNL     1       3.121  -1.924   0.271  0.00  0.00    +0.092 A 
ATOM      7  C   UNL     1       1.716  -1.966   0.398  0.00  0.00    +0.013 A 
ATOM      8  C   UNL     1       1.280  -0.622   0.828  0.00  0.00    -0.011 C 
ATOM      9  C   UNL     1      -0.023  -0.225   1.067  0.00  0.00    +0.017 C 
ATOM     10  C   UNL     1       2.433   0.184   0.956  0.00  0.00    -0.023 C 
ATOM     11  C   UNL     1       3.548  -0.561   0.632  0.00  0.00    +0.081 C 
ATOM     12  C   UNL     1       2.443   1.630   1.381  0.00  0.00    +0.046 C 
ENDROOT
BRANCH   9  13
ATOM     13  C   UNL     1      -0.288   1.032   1.766  0.00  0.00    -0.020 A 
ATOM     14  C   UNL     1       0.432   1.358   2.926  0.00  0.00    +0.057 A 
ATOM     15  C   UNL     1       0.181   2.548   3.577  0.00  0.00    +0.163 A 
ATOM     16  C   UNL     1      -0.795   3.419   3.091  0.00  0.00    +0.173 A 
ATOM     17  C   UNL     1      -1.514   3.095   1.945  0.00  0.00    +0.063 A 
ATOM     18  C   UNL     1      -1.267   1.913   1.284  0.00  0.00    +0.027 A 
ATOM     19 BR   UNL     1      -2.835   4.282   1.294  0.00  0.00    -0.046 Br
BRANCH  16  20
ATOM     20  O   UNL     1      -1.044   4.586   3.737  0.00  0.00    -0.503 OA
ATOM     21  H   UNL     1      -1.812   5.274   3.355  0.00  0.00    +0.292 HD
ENDBRANCH  16  20
BRANCH  15  22
ATOM     22  O   UNL     1       0.880   2.869   4.698  0.00  0.00    -0.491 OA
ATOM     23  C   UNL     1       1.913   1.967   5.100  0.00  0.00    +0.277 C 
ENDBRANCH  15  22
ENDBRANCH   9  13
BRANCH   4  24
ATOM     24  N   UNL     1       3.930  -5.241  -0.780  0.00  0.00    -0.342 N 
ATOM     25  H   UNL     1       5.024  -5.162  -0.860  0.00  0.00    +0.144 HD
ATOM     26  H   UNL     1       3.429  -6.192  -1.012  0.00  0.00    +0.144 HD
ENDBRANCH   4  24
BRANCH  11  27
ATOM     27  C   UNL     1       4.899  -0.087   0.643  0.00  0.00    +0.102 C 
ATOM     28  N   UNL     1       5.971   0.289   0.652  0.00  0.00    -0.191 NA
ENDBRANCH  11  27
BRANCH   3  29
ATOM     29  C   UNL     1       1.131  -5.496  -0.591  0.00  0.00    +0.103 C 
ATOM     30  N   UNL     1       0.615  -6.479  -0.831  0.00  0.00    -0.191 NA
ENDBRANCH   3  29
TORSDOF 6
