REMARK  Name = ZINC63354149
REMARK  4 active torsions:
REMARK  status: ('A' for Active; 'I' for Inactive)
REMARK    1  A    between atoms: C_4  and  C_7
REMARK    2  A    between atoms: C_15  and  C_17
REMARK    3  A    between atoms: N_19  and  N_20
REMARK    4  A    between atoms: C_21  and  C_22
REMARK                            x       y       z     vdW  Elec       q    Type
REMARK                         _______ _______ _______ _____ _____    ______ ____
ROOT
ATOM      1  C   UNL     1       3.701  -0.666  -0.024  0.00  0.00    -0.000 C 
ATOM      2  C   UNL     1       4.970  -0.122  -0.125  0.00  0.00    +0.005 A 
ATOM      3  C   UNL     1       5.433   1.213  -0.229  0.00  0.00    +0.025 A 
ATOM      4  C   UNL     1       6.764   1.457  -0.317  0.00  0.00    +0.019 A 
ATOM      5  C   UNL     1       7.704   0.419  -0.308  0.00  0.00    +0.017 A 
ATOM      6  C   UNL     1       7.335  -0.880  -0.212  0.00  0.00    +0.027 A 
ATOM      7  C   UNL     1       5.957  -1.218  -0.116  0.00  0.00    +0.044 A 
ATOM      8  N   UNL     1       5.352  -2.380  -0.015  0.00  0.00    -0.370 N 
ATOM      9  C   UNL     1       3.904  -2.163   0.059  0.00  0.00    +0.199 C 
ATOM     10 BR   UNL     1       7.365   3.244  -0.455  0.00  0.00    -0.050 Br
ATOM     11  H   UNL     1       5.793  -3.244   0.010  0.00  0.00    +0.161 HD
ENDROOT
BRANCH   1  15
ATOM     12  C   UNL     1       0.019   1.425   0.059  0.00  0.00    +0.000 A 
ATOM     13  C   UNL     1       0.096   0.193  -0.567  0.00  0.00    +0.001 A 
ATOM     14  C   UNL     1       1.290  -0.495  -0.599  0.00  0.00    +0.008 A 
ATOM     15  C   UNL     1       2.429   0.057   0.005  0.00  0.00    -0.019 A 
ATOM     16  C   UNL     1       2.341   1.306   0.636  0.00  0.00    +0.008 A 
ATOM     17  C   UNL     1       1.139   1.979   0.658  0.00  0.00    +0.001 A 
ENDBRANCH   1  15
BRANCH   9  18
ATOM     18  C   UNL     1       3.363  -2.689   1.364  0.00  0.00    +0.259 C 
ATOM     19  O   UNL     1       4.102  -2.823   2.316  0.00  0.00    -0.271 OA
ATOM     20  N   UNL     1       2.058  -3.010   1.472  0.00  0.00    -0.205 N 
ATOM     21  H   UNL     1       1.484  -2.975   0.691  0.00  0.00    +0.177 HD
BRANCH  20  22
ATOM     22  N   UNL     1       1.532  -3.394   2.712  0.00  0.00    -0.188 NA
ATOM     23  C   UNL     1       0.276  -3.704   2.816  0.00  0.00    +0.139 C 
BRANCH  23  24
ATOM     24  C   UNL     1      -0.278  -4.108   4.122  0.00  0.00    +0.013 A 
ATOM     25  C   UNL     1      -1.628  -4.448   4.237  0.00  0.00    +0.011 A 
ATOM     26  C   UNL     1      -2.139  -4.826   5.460  0.00  0.00    +0.001 A 
ATOM     27  C   UNL     1      -1.318  -4.869   6.574  0.00  0.00    +0.001 A 
ATOM     28  C   UNL     1       0.020  -4.535   6.469  0.00  0.00    +0.020 A 
ATOM     29  C   UNL     1       0.547  -4.160   5.249  0.00  0.00    +0.050 A 
ATOM     30 CL   UNL     1       2.228  -3.748   5.117  0.00  0.00    -0.083 Cl
ENDBRANCH  23  24
ENDBRANCH  20  22
ENDBRANCH   9  18
TORSDOF 4
