REMARK  Name = ZINC19939401
REMARK  7 active torsions:
REMARK  status: ('A' for Active; 'I' for Inactive)
REMARK    1  A    between atoms: C_1  and  C_2
REMARK    2  A    between atoms: C_2  and  C_4
REMARK    3  A    between atoms: C_2  and  N_12
REMARK    4  A    between atoms: C_4  and  C_5
REMARK    5  A    between atoms: C_15  and  N_18
REMARK    6  A    between atoms: C_20  and  C_23
REMARK    7  A    between atoms: C_23  and  N_24
REMARK                            x       y       z     vdW  Elec       q    Type
REMARK                         _______ _______ _______ _____ _____    ______ ____
ROOT
ATOM      1  N   UNL     1       1.431   1.783  -2.451  0.00  0.00    +0.382 N 
ATOM      2  C   UNL     1       2.332   1.618  -1.303  0.00  0.00    -0.076 C 
ATOM      3  C   UNL     1       1.663   2.174  -0.044  0.00  0.00    +0.008 C 
ATOM      4  C   UNL     1       0.350   1.427   0.203  0.00  0.00    +0.105 C 
ATOM      5  C   UNL     1      -0.551   1.574  -1.026  0.00  0.00    +0.008 C 
ATOM      6  C   UNL     1       0.182   1.036  -2.257  0.00  0.00    -0.076 C 
ATOM      7  H   UNL     1       1.175   2.850  -2.526  0.00  0.00    -0.081 HD
ENDROOT
BRANCH   4   8
ATOM      8  N   UNL     1      -0.323   1.993   1.375  0.00  0.00    -0.248 N 
ATOM      9  C   UNL     1      -1.138   3.073   1.377  0.00  0.00    +0.135 A 
ATOM     10  C   UNL     1      -1.535   3.244   2.659  0.00  0.00    +0.100 A 
ATOM     11  N   UNL     1      -0.951   2.273   3.370  0.00  0.00    -0.133 NA
ATOM     12  N   UNL     1      -0.244   1.546   2.579  0.00  0.00    -0.065 NA
BRANCH  10  13
ATOM     13  C   UNL     1      -2.454   4.317   3.183  0.00  0.00    +0.164 C 
BRANCH  13  14
ATOM     14  N   UNL     1      -3.825   3.803   3.237  0.00  0.00    -0.294 N 
ATOM     15  C   UNL     1      -4.824   4.593   3.678  0.00  0.00    +0.297 C 
ATOM     16  O   UNL     1      -4.588   5.732   4.030  0.00  0.00    -0.253 OA
ATOM     17  N   UNL     1      -6.085   4.119   3.727  0.00  0.00    -0.313 N 
ATOM     18  H   UNL     1      -4.038   2.772   2.919  0.00  0.00    +0.151 HD
ATOM     19  H   UNL     1      -6.901   4.764   4.087  0.00  0.00    +0.146 HD
ATOM     20  H   UNL     1      -6.298   3.088   3.409  0.00  0.00    +0.146 HD
ENDBRANCH  13  14
ENDBRANCH  10  13
ENDBRANCH   4   8
BRANCH   1  22
ATOM     21  C   UNL     1       2.266  -0.133  -3.727  0.00  0.00    -0.013 C 
ATOM     22  C   UNL     1       2.093   1.387  -3.701  0.00  0.00    -0.067 C 
BRANCH  22  23
ATOM     23  C   UNL     1       1.236   1.823  -4.892  0.00  0.00    +0.019 C 
BRANCH  23  24
ATOM     24  C   UNL     1       1.172   3.328  -4.940  0.00  0.00    -0.049 A 
ATOM     25  C   UNL     1       0.164   3.998  -4.273  0.00  0.00    +0.006 A 
ATOM     26  C   UNL     1       0.107   5.378  -4.312  0.00  0.00    +0.038 A 
ATOM     27  C   UNL     1       1.054   6.089  -5.030  0.00  0.00    +0.123 A 
ATOM     28  C   UNL     1       2.060   5.417  -5.702  0.00  0.00    +0.038 A 
ATOM     29  C   UNL     1       2.118   4.037  -5.657  0.00  0.00    +0.006 A 
ATOM     30  F   UNL     1       0.996   7.438  -5.073  0.00  0.00    -0.205 F 
ENDBRANCH  23  24
ENDBRANCH  22  23
ENDBRANCH   1  22
TORSDOF 6
