REMARK  Name = ZINC08990829
REMARK  12 active torsions:
REMARK  status: ('A' for Active; 'I' for Inactive)
REMARK    1  A    between atoms: C_1  and  C_2
REMARK    2  A    between atoms: C_2  and  C_3
REMARK    3  A    between atoms: C_2  and  C_4
REMARK    4  A    between atoms: C_4  and  C_6
REMARK    5  A    between atoms: C_4  and  N_55
REMARK    6  A    between atoms: C_9  and  O_12
REMARK    7  A    between atoms: O_12  and  C_13
REMARK    8  A    between atoms: C_13  and  C_14
REMARK    9  A    between atoms: C_13  and  C_15
REMARK   10  A    between atoms: C_16  and  N_55
REMARK   11  A    between atoms: C_21  and  C_23
REMARK   12  A    between atoms: C_21  and  C_24
REMARK                            x       y       z     vdW  Elec       q    Type
REMARK                         _______ _______ _______ _____ _____    ______ ____
ROOT
ATOM      1  C   UNL     1      -0.391   5.434   0.001  0.00  0.00    -0.038 C 
ENDROOT
BRANCH   1   2
ATOM      2  C   UNL     1       0.205   4.071  -0.235  0.00  0.00    -0.061 A 
ATOM      3  C   UNL     1       1.550   3.947  -0.531  0.00  0.00    +0.005 A 
ATOM      4  C   UNL     1       2.099   2.698  -0.748  0.00  0.00    +0.046 A 
ATOM      5  C   UNL     1       1.300   1.567  -0.669  0.00  0.00    +0.121 A 
ATOM      6  C   UNL     1      -0.050   1.694  -0.377  0.00  0.00    +0.046 A 
ATOM      7  C   UNL     1      -0.594   2.945  -0.156  0.00  0.00    +0.005 A 
BRANCH   5   8
ATOM      8  O   UNL     1       1.838   0.337  -0.882  0.00  0.00    -0.489 OA
BRANCH   8   9
ATOM      9  C   UNL     1       0.936  -0.771  -0.902  0.00  0.00    +0.167 C 
ATOM     10  C   UNL     1       1.544  -1.909  -1.724  0.00  0.00    +0.051 C 
ATOM     11  C   UNL     1       0.685  -1.251   0.528  0.00  0.00    +0.051 C 
ENDBRANCH   8   9
ENDBRANCH   5   8
ENDBRANCH   1   2
BRANCH   1  13
ATOM     12  C   UNL     1      -1.787   7.249  -0.999  0.00  0.00    +0.006 C 
ATOM     13  C   UNL     1      -1.111   5.902  -1.265  0.00  0.00    -0.027 C 
ATOM     14  C   UNL     1      -0.097   6.057  -2.401  0.00  0.00    +0.006 C 
ENDBRANCH   1  13
BRANCH   1  15
ATOM     15  N   UNL     1      -1.360   5.363   1.111  0.00  0.00    +0.386 N 
ATOM     16  H   UNL     1      -1.894   4.489   1.038  0.00  0.00    -0.085 HD
ATOM     17  H   UNL     1      -2.003   6.162   1.051  0.00  0.00    -0.085 HD
BRANCH  15  18
ATOM     18  C   UNL     1      -0.658   5.398   2.407  0.00  0.00    -0.066 C 
ATOM     19  C   UNL     1      -0.368   6.852   2.794  0.00  0.00    +0.012 C 
ATOM     20  C   UNL     1       0.280   6.883   4.181  0.00  0.00    +0.159 C 
ATOM     21  O   UNL     1      -0.585   6.248   5.125  0.00  0.00    -0.374 OA
ATOM     22  C   UNL     1      -0.852   4.873   4.840  0.00  0.00    +0.063 C 
ATOM     23  C   UNL     1      -1.547   4.762   3.480  0.00  0.00    +0.019 C 
ATOM     24  C   UNL     1      -1.760   4.294   5.926  0.00  0.00    +0.041 C 
ATOM     25  C   UNL     1       0.464   4.094   4.805  0.00  0.00    +0.041 C 
ENDBRANCH  15  18
ENDBRANCH   1  15
TORSDOF 6
