REMARK  Name = ZINC64074268
REMARK  8 active torsions:
REMARK  status: ('A' for Active; 'I' for Inactive)
REMARK    1  A    between atoms: C_1  and  C_2
REMARK    2  A    between atoms: C_7  and  C_13
REMARK    3  A    between atoms: C_9  and  C_12
REMARK    4  A    between atoms: C_13  and  N_14
REMARK    5  A    between atoms: C_18  and  C_20
REMARK    6  A    between atoms: C_18  and  C_27
REMARK    7  A    between atoms: C_20  and  C_21
REMARK    8  A    between atoms: C_27  and  O_28
REMARK                            x       y       z     vdW  Elec       q    Type
REMARK                         _______ _______ _______ _____ _____    ______ ____
ROOT
ATOM      1  N   UNL     1      -1.231  -6.443   1.058  0.00  0.00    +0.382 N 
ATOM      2  C   UNL     1      -0.085  -7.296   1.393  0.00  0.00    -0.079 C 
ATOM      3  C   UNL     1      -0.094  -8.542   0.505  0.00  0.00    -0.018 C 
ATOM      4  C   UNL     1      -1.394  -9.317   0.736  0.00  0.00    +0.006 C 
ATOM      5  C   UNL     1      -2.584  -8.395   0.454  0.00  0.00    -0.017 C 
ATOM      6  C   UNL     1      -2.483  -7.155   1.345  0.00  0.00    -0.069 C 
ATOM      7  H   UNL     1      -1.197  -6.207   0.077  0.00  0.00    -0.082 HD
ENDROOT
BRANCH   1   8
ATOM      8  C   UNL     1      -1.175  -5.213   1.858  0.00  0.00    -0.049 C 
BRANCH   8  15
ATOM      9  C   UNL     1      -0.018   1.503   0.010  0.00  0.00    +0.044 C 
ATOM     10  C   UNL     1       0.002  -0.004   0.002  0.00  0.00    -0.050 A 
ATOM     11  C   UNL     1       0.005  -0.680  -1.226  0.00  0.00    +0.005 A 
ATOM     12  C   UNL     1       0.023  -2.026  -1.317  0.00  0.00    +0.026 A 
ATOM     13  C   UNL     1       0.039  -2.826  -0.141  0.00  0.00    +0.043 A 
ATOM     14  N   UNL     1       0.057  -4.126   0.030  0.00  0.00    -0.379 N 
ATOM     15  C   UNL     1       0.067  -4.408   1.470  0.00  0.00    +0.089 C 
ATOM     16  C   UNL     1       0.052  -3.060   2.156  0.00  0.00    -0.043 C 
ATOM     17  C   UNL     1       0.036  -2.137   1.168  0.00  0.00    -0.001 A 
ATOM     18  C   UNL     1       0.022  -0.669   1.180  0.00  0.00    +0.013 A 
ATOM     19  C   UNL     1       0.055  -2.799   3.641  0.00  0.00    +0.042 C 
ATOM     20  H   UNL     1       0.062  -4.790  -0.677  0.00  0.00    +0.160 HD
ENDBRANCH   8  15
ENDBRANCH   1   8
BRANCH   5  21
ATOM     21  C   UNL     1      -2.566  -7.971  -1.016  0.00  0.00    +0.042 C 
BRANCH  21  22
ATOM     22  C   UNL     1      -2.660  -9.194  -1.892  0.00  0.00    -0.047 A 
ATOM     23  C   UNL     1      -1.510  -9.843  -2.299  0.00  0.00    +0.003 A 
ATOM     24  C   UNL     1      -1.597 -10.964  -3.103  0.00  0.00    +0.000 A 
ATOM     25  C   UNL     1      -2.834 -11.437  -3.499  0.00  0.00    +0.000 A 
ATOM     26  C   UNL     1      -3.984 -10.788  -3.091  0.00  0.00    +0.000 A 
ATOM     27  C   UNL     1      -3.898  -9.669  -2.284  0.00  0.00    +0.003 A 
ENDBRANCH  21  22
ENDBRANCH   5  21
BRANCH   5  28
ATOM     28  C   UNL     1      -3.888  -9.136   0.757  0.00  0.00    +0.161 C 
BRANCH  28  29
ATOM     29  O   UNL     1      -3.979 -10.297  -0.071  0.00  0.00    -0.395 OA
ATOM     30  H   UNL     1      -4.783 -10.817   0.068  0.00  0.00    +0.209 HD
ENDBRANCH  28  29
ENDBRANCH   5  28
TORSDOF 6
