REMARK  Name = ZINC15082498
REMARK  5 active torsions:
REMARK  status: ('A' for Active; 'I' for Inactive)
REMARK    1  A    between atoms: C_1  and  C_2
REMARK    2  A    between atoms: C_2  and  N_3
REMARK    3  A    between atoms: C_15  and  C_23
REMARK    4  A    between atoms: C_17  and  C_21
REMARK    5  A    between atoms: C_18  and  N_20
REMARK                            x       y       z     vdW  Elec       q    Type
REMARK                         _______ _______ _______ _____ _____    ______ ____
ROOT
ATOM      1  N   UNL     1      -0.721   1.571  -1.179  0.00  0.00    -0.324 N 
ATOM      2  C   UNL     1      -0.258   1.251  -2.437  0.00  0.00    +0.161 A 
ATOM      3  N   UNL     1       0.794   0.528  -2.767  0.00  0.00    -0.207 NA
ATOM      4  C   UNL     1       1.132   0.294  -4.033  0.00  0.00    +0.154 A 
ATOM      5  C   UNL     1       0.288   0.873  -4.989  0.00  0.00    +0.100 A 
ATOM      6  S   UNL     1      -0.919   1.695  -3.981  0.00  0.00    -0.047 S 
ATOM      7  C   UNL     1       0.496   0.728  -6.356  0.00  0.00    +0.157 A 
ATOM      8  C   UNL     1       1.584  -0.016  -6.783  0.00  0.00    +0.073 A 
ATOM      9  C   UNL     1       2.426  -0.593  -5.829  0.00  0.00    +0.258 A 
ATOM     10  O   UNL     1       3.385  -1.249  -6.202  0.00  0.00    -0.267 OA
ATOM     11  N   UNL     1       2.208  -0.445  -4.515  0.00  0.00    -0.306 N 
ATOM     12  H   UNL     1       2.815  -0.864  -3.885  0.00  0.00    +0.170 HD
ATOM     13  C   UNL     1       1.860  -0.203  -8.249  0.00  0.00    +0.103 C 
ATOM     14  C   UNL     1       0.640   0.144  -9.056  0.00  0.00    +0.098 C 
ATOM     15  C   UNL     1      -0.374   0.863  -8.519  0.00  0.00    +0.199 C 
ATOM     16  O   UNL     1      -0.342   1.300  -7.248  0.00  0.00    -0.440 OA
ATOM     17  H   UNL     1      -1.516   2.118  -1.079  0.00  0.00    +0.148 HD
ENDROOT
BRANCH  13  18
ATOM     18  C   UNL     1       2.999   0.694  -8.661  0.00  0.00    -0.034 A 
ATOM     19  C   UNL     1       2.886   2.064  -8.517  0.00  0.00    +0.006 A 
ATOM     20  C   UNL     1       3.933   2.887  -8.889  0.00  0.00    +0.020 A 
ATOM     21  C   UNL     1       5.089   2.339  -9.416  0.00  0.00    +0.041 A 
ATOM     22  C   UNL     1       5.199   0.968  -9.565  0.00  0.00    +0.020 A 
ATOM     23  C   UNL     1       4.154   0.146  -9.187  0.00  0.00    +0.006 A 
ATOM     24 CL   UNL     1       6.401   3.372  -9.890  0.00  0.00    -0.084 Cl
ENDBRANCH  13  18
BRANCH  15  25
ATOM     25  N   UNL     1      -1.467   1.154  -9.296  0.00  0.00    -0.328 N 
ATOM     26  H   UNL     1      -1.505   0.846 -10.214  0.00  0.00    +0.145 HD
ATOM     27  H   UNL     1      -2.202   1.669  -8.926  0.00  0.00    +0.145 HD
ENDBRANCH  15  25
BRANCH   1  29
ATOM     28  C   UNL     1      -0.729   1.579   1.267  0.00  0.00    +0.024 C 
ATOM     29  C   UNL     1      -0.013   1.086   0.008  0.00  0.00    +0.100 C 
ENDBRANCH   1  29
BRANCH  14  30
ATOM     30  C   UNL     1       0.549  -0.293 -10.416  0.00  0.00    +0.101 C 
ATOM     31  N   UNL     1       0.476  -0.640 -11.495  0.00  0.00    -0.191 NA
ENDBRANCH  14  30
TORSDOF 4
