REMARK  Name = ZINC09236901
REMARK  4 active torsions:
REMARK  status: ('A' for Active; 'I' for Inactive)
REMARK    1  A    between atoms: C_1  and  C_2
REMARK    2  A    between atoms: C_6  and  C_34
REMARK    3  A    between atoms: C_7  and  N_8
REMARK    4  A    between atoms: C_27  and  C_32
REMARK                            x       y       z     vdW  Elec       q    Type
REMARK                         _______ _______ _______ _____ _____    ______ ____
ROOT
ATOM      1  N   UNL     1       1.235   0.270   3.040  0.00  0.00    -0.210 N 
ATOM      2  C   UNL     1       2.299   0.698   2.350  0.00  0.00    +0.228 C 
ATOM      3  O   UNL     1       3.218   1.342   2.808  0.00  0.00    -0.275 OA
ATOM      4  C   UNL     1       2.176   0.252   0.911  0.00  0.00    +0.074 C 
ATOM      5  C   UNL     1       1.950   1.482   0.013  0.00  0.00    -0.054 C 
ATOM      6  C   UNL     1       2.506   2.734   0.715  0.00  0.00    -0.016 C 
ATOM      7  C   UNL     1       1.327   3.311   1.523  0.00  0.00    -0.020 C 
ATOM      8  C   UNL     1       0.152   2.345   1.267  0.00  0.00    -0.076 C 
ATOM      9  C   UNL     1      -0.083   0.312  -0.019  0.00  0.00    +0.053 C 
ATOM     10  C   UNL     1       0.829  -0.521   0.889  0.00  0.00    +0.089 C 
ATOM     11  C   UNL     1       0.348  -0.425   2.319  0.00  0.00    +0.229 C 
ATOM     12  O   UNL     1      -0.681  -0.903   2.746  0.00  0.00    -0.275 OA
ATOM     13  C   UNL     1      -1.505   0.295   0.469  0.00  0.00    -0.026 A 
ATOM     14  C   UNL     1      -2.105   0.680   1.647  0.00  0.00    +0.024 A 
ATOM     15  C   UNL     1      -3.474   0.538   1.804  0.00  0.00    +0.042 A 
ATOM     16  C   UNL     1      -4.234   0.010   0.775  0.00  0.00    +0.025 A 
ATOM     17  C   UNL     1      -3.635  -0.376  -0.406  0.00  0.00    -0.028 A 
ATOM     18  C   UNL     1      -2.259  -0.237  -0.572  0.00  0.00    +0.039 A 
ATOM     19  N   UNL     1      -1.433  -0.550  -1.655  0.00  0.00    -0.286 N 
ATOM     20  C   UNL     1      -0.141  -0.257  -1.410  0.00  0.00    +0.212 C 
ATOM     21  O   UNL     1       0.793  -0.420  -2.166  0.00  0.00    -0.277 OA
ATOM     22  C   UNL     1      -4.471  -0.950  -1.520  0.00  0.00    +0.046 C 
ATOM     23 CL   UNL     1      -4.234   1.020   3.289  0.00  0.00    -0.084 Cl
ATOM     24  H   UNL     1      -1.753  -0.933  -2.487  0.00  0.00    +0.155 HD
ATOM     25  N   UNL     1       0.515   1.651   0.015  0.00  0.00    +0.395 N 
ATOM     26  H   UNL     1       0.208   2.198  -0.797  0.00  0.00    -0.079 HD
ENDROOT
BRANCH   1  33
ATOM     27  C   UNL     1       2.451  -1.499   4.910  0.00  0.00    +0.046 C 
ATOM     28  C   UNL     1       1.640  -0.308   5.352  0.00  0.00    -0.028 A 
ATOM     29  C   UNL     1       1.474  -0.046   6.698  0.00  0.00    +0.005 A 
ATOM     30  C   UNL     1       0.725   1.042   7.105  0.00  0.00    +0.001 A 
ATOM     31  C   UNL     1       0.145   1.876   6.167  0.00  0.00    +0.005 A 
ATOM     32  C   UNL     1       0.312   1.622   4.819  0.00  0.00    -0.028 A 
ATOM     33  C   UNL     1       1.064   0.530   4.407  0.00  0.00    +0.050 A 
ATOM     34  C   UNL     1      -0.320   2.531   3.797  0.00  0.00    +0.046 C 
ENDBRANCH   1  33
TORSDOF 1
