REMARK  Name = ZINC39990840
REMARK  9 active torsions:
REMARK  status: ('A' for Active; 'I' for Inactive)
REMARK    1  A    between atoms: C_1  and  C_2
REMARK    2  A    between atoms: C_2  and  C_4
REMARK    3  A    between atoms: C_2  and  S_15
REMARK    4  A    between atoms: C_4  and  C_6
REMARK    5  A    between atoms: S_15  and  C_16
REMARK    6  A    between atoms: C_20  and  C_30
REMARK    7  A    between atoms: N_21  and  C_22
REMARK    8  A    between atoms: C_22  and  C_23
REMARK    9  A    between atoms: C_23  and  N_24
REMARK                            x       y       z     vdW  Elec       q    Type
REMARK                         _______ _______ _______ _____ _____    ______ ____
ROOT
ATOM      1  C   UNL     1       2.654   0.008   1.255  0.00  0.00    +0.237 C 
ATOM      2  N   UNL     1       3.025  -0.517  -0.070  0.00  0.00    -0.237 N 
ATOM      3  N   UNL     1       3.182   0.596  -0.904  0.00  0.00    -0.169 NA
ATOM      4  C   UNL     1       2.959   1.699  -0.269  0.00  0.00    +0.148 C 
ATOM      5  N   UNL     1       2.627   1.468   1.068  0.00  0.00    -0.284 N 
ATOM      6  H   UNL     1       3.139  -1.449  -0.316  0.00  0.00    +0.171 HD
ENDROOT
BRANCH   4   7
ATOM      7  C   UNL     1       3.046   3.042  -0.882  0.00  0.00    +0.017 A 
ATOM      8  C   UNL     1       2.910   3.192  -2.263  0.00  0.00    +0.014 A 
ATOM      9  C   UNL     1       2.993   4.447  -2.829  0.00  0.00    +0.039 A 
ATOM     10  C   UNL     1       3.210   5.558  -2.029  0.00  0.00    +0.123 A 
ATOM     11  C   UNL     1       3.346   5.414  -0.657  0.00  0.00    +0.039 A 
ATOM     12  C   UNL     1       3.260   4.165  -0.080  0.00  0.00    +0.014 A 
ATOM     13  F   UNL     1       3.291   6.785  -2.589  0.00  0.00    -0.205 F 
ENDBRANCH   4   7
BRANCH   1  14
ATOM     14  S   UNL     1       1.017  -0.602   1.744  0.00  0.00    -0.107 S 
BRANCH  14  16
ATOM     15  C   UNL     1      -0.132   1.457   0.358  0.00  0.00    +0.027 C 
ATOM     16  C   UNL     1      -0.071  -0.071   0.393  0.00  0.00    +0.117 C 
BRANCH  16  17
ATOM     17  C   UNL     1      -1.455  -0.624   0.616  0.00  0.00    +0.174 C 
ATOM     18  O   UNL     1      -1.824  -0.901   1.739  0.00  0.00    -0.291 OA
BRANCH  17  19
ATOM     19  C   UNL     1      -2.322  -0.819  -0.480  0.00  0.00    +0.024 C 
ATOM     20  C   UNL     1      -3.615  -1.308  -0.447  0.00  0.00    +0.006 A 
ATOM     21  C   UNL     1      -4.452  -1.747   0.606  0.00  0.00    +0.010 A 
ATOM     22  C   UNL     1      -5.703  -2.186   0.345  0.00  0.00    +0.001 A 
ATOM     23  C   UNL     1      -6.231  -2.229  -0.956  0.00  0.00    +0.002 A 
ATOM     24  C   UNL     1      -5.515  -1.832  -2.031  0.00  0.00    +0.026 A 
ATOM     25  C   UNL     1      -4.142  -1.340  -1.834  0.00  0.00    +0.043 A 
ATOM     26  N   UNL     1      -3.246  -0.904  -2.673  0.00  0.00    -0.380 N 
ATOM     27  C   UNL     1      -2.034  -0.530  -1.937  0.00  0.00    +0.152 C 
ATOM     28  H   UNL     1      -3.364  -0.833  -3.633  0.00  0.00    +0.160 HD
ENDBRANCH  17  19
ENDBRANCH  16  17
ENDBRANCH  14  16
ENDBRANCH   1  14
BRANCH   5  29
ATOM     29  C   UNL     1       2.312   2.476   2.083  0.00  0.00    +0.124 C 
BRANCH  29  30
ATOM     30  C   UNL     1       3.570   2.797   2.891  0.00  0.00    +0.103 C 
BRANCH  30  31
ATOM     31  N   UNL     1       3.232   3.726   3.977  0.00  0.00    -0.297 NA
ATOM     32  C   UNL     1       2.824   5.034   3.443  0.00  0.00    +0.112 C 
ATOM     33  C   UNL     1       2.424   5.950   4.603  0.00  0.00    +0.175 C 
ATOM     34  O   UNL     1       3.517   6.056   5.519  0.00  0.00    -0.377 OA
ATOM     35  C   UNL     1       3.939   4.801   6.059  0.00  0.00    +0.175 C 
ATOM     36  C   UNL     1       4.354   3.873   4.915  0.00  0.00    +0.112 C 
ENDBRANCH  30  31
ENDBRANCH  29  30
ENDBRANCH   5  29
TORSDOF 8
