REMARK  Name = ZINC44973569
REMARK  10 active torsions:
REMARK  status: ('A' for Active; 'I' for Inactive)
REMARK    1  A    between atoms: C_1  and  C_2
REMARK    2  A    between atoms: C_5  and  C_8
REMARK    3  A    between atoms: C_13  and  S_26
REMARK    4  A    between atoms: C_22  and  C_24
REMARK    5  A    between atoms: C_22  and  C_25
REMARK    6  A    between atoms: S_26  and  C_27
REMARK    7  A    between atoms: C_27  and  C_28
REMARK    8  A    between atoms: C_28  and  C_29
REMARK    9  A    between atoms: C_29  and  C_30
REMARK   10  A    between atoms: C_29  and  C_31
REMARK                            x       y       z     vdW  Elec       q    Type
REMARK                         _______ _______ _______ _____ _____    ______ ____
ROOT
ATOM      1  C   UNL     1       0.059  -4.275  -0.021  0.00  0.00    +0.090 C 
ATOM      2  C   UNL     1       1.307  -4.753   0.658  0.00  0.00    +0.044 A 
ATOM      3  C   UNL     1       2.534  -4.715   0.001  0.00  0.00    +0.126 A 
ATOM      4  N   UNL     1       3.620  -5.146   0.639  0.00  0.00    -0.207 NA
ATOM      5  C   UNL     1       3.541  -5.604   1.880  0.00  0.00    +0.192 A 
ATOM      6  N   UNL     1       2.389  -5.656   2.534  0.00  0.00    -0.206 NA
ATOM      7  C   UNL     1       1.265  -5.243   1.956  0.00  0.00    +0.133 A 
ATOM      8  N   UNL     1       0.056  -5.301   2.628  0.00  0.00    -0.302 N 
ATOM      9  C   UNL     1      -1.125  -5.259   1.939  0.00  0.00    +0.017 C 
ATOM     10  C   UNL     1      -1.175  -4.789   0.676  0.00  0.00    +0.024 C 
ATOM     11  C   UNL     1      -2.387  -4.763  -0.037  0.00  0.00    +0.162 C 
ATOM     12  O   UNL     1      -2.401  -4.327  -1.171  0.00  0.00    -0.292 OA
ATOM     13  C   UNL     1      -3.666  -5.264   0.576  0.00  0.00    +0.086 C 
ATOM     14  C   UNL     1      -3.333  -6.344   1.610  0.00  0.00    -0.023 C 
ATOM     15  C   UNL     1      -2.371  -5.750   2.636  0.00  0.00    +0.058 C 
ATOM     16  C   UNL     1      -2.673  -7.537   0.915  0.00  0.00    +0.011 C 
ATOM     17  C   UNL     1      -4.616  -6.798   2.311  0.00  0.00    +0.011 C 
ATOM     18  N   UNL     1       2.623  -4.237  -1.297  0.00  0.00    -0.343 N 
ATOM     19  H   UNL     1       0.046  -5.372   3.596  0.00  0.00    +0.153 HD
ATOM     20  H   UNL     1       1.827  -3.925  -1.755  0.00  0.00    +0.144 HD
ATOM     21  H   UNL     1       3.482  -4.214  -1.748  0.00  0.00    +0.144 HD
ENDROOT
BRANCH   1  26
ATOM     22  C   UNL     1      -0.018   1.503   0.010  0.00  0.00    +0.044 C 
ATOM     23  C   UNL     1       0.002  -0.004   0.002  0.00  0.00    -0.050 A 
ATOM     24  C   UNL     1       0.006  -0.689  -1.199  0.00  0.00    +0.003 A 
ATOM     25  C   UNL     1       0.025  -2.071  -1.206  0.00  0.00    +0.005 A 
ATOM     26  C   UNL     1       0.040  -2.768  -0.013  0.00  0.00    -0.035 A 
ATOM     27  C   UNL     1       0.037  -2.084   1.188  0.00  0.00    +0.005 A 
ATOM     28  C   UNL     1       0.023  -0.702   1.195  0.00  0.00    +0.003 A 
ENDBRANCH   1  26
BRANCH   5  29
ATOM     29  S   UNL     1       5.008  -6.160   2.683  0.00  0.00    -0.086 S 
BRANCH  29  30
ATOM     30  C   UNL     1       6.308  -5.911   1.443  0.00  0.00    +0.078 C 
BRANCH  30  31
ATOM     31  C   UNL     1       7.653  -6.360   2.018  0.00  0.00    +0.014 C 
BRANCH  31  32
ATOM     32  C   UNL     1       8.750  -6.149   0.972  0.00  0.00    -0.016 C 
ATOM     33  C   UNL     1       8.908  -4.654   0.692  0.00  0.00    +0.007 C 
ATOM     34  C   UNL     1      10.072  -6.712   1.499  0.00  0.00    +0.007 C 
ENDBRANCH  31  32
ENDBRANCH  30  31
ENDBRANCH  29  30
ENDBRANCH   5  29
TORSDOF 5
