REMARK  Name = ZINC63165693
REMARK  10 active torsions:
REMARK  status: ('A' for Active; 'I' for Inactive)
REMARK    1  A    between atoms: C_1  and  C_2
REMARK    2  A    between atoms: C_2  and  C_3
REMARK    3  A    between atoms: C_3  and  C_33
REMARK    4  A    between atoms: N_6  and  N_10
REMARK    5  A    between atoms: C_11  and  C_13
REMARK    6  A    between atoms: C_13  and  C_14
REMARK    7  A    between atoms: C_14  and  C_15
REMARK    8  A    between atoms: C_23  and  C_25
REMARK    9  A    between atoms: C_28  and  O_31
REMARK   10  A    between atoms: O_31  and  C_32
REMARK                            x       y       z     vdW  Elec       q    Type
REMARK                         _______ _______ _______ _____ _____    ______ ____
ROOT
ATOM      1  N   UNL     1      -4.167   1.333  -1.528  0.00  0.00    -0.224 N 
ATOM      2  C   UNL     1      -5.410   0.825  -1.635  0.00  0.00    +0.230 C 
ATOM      3  O   UNL     1      -5.705  -0.187  -1.036  0.00  0.00    -0.274 OA
ATOM      4  H   UNL     1      -3.931   2.143  -2.007  0.00  0.00    +0.174 HD
ENDROOT
BRANCH   1   8
ATOM      5  C   UNL     1      -1.433  -0.534   0.013  0.00  0.00    +0.139 C 
ATOM      6  C   UNL     1      -2.192  -0.043  -1.205  0.00  0.00    +0.268 C 
ATOM      7  O   UNL     1      -1.933  -0.267  -2.368  0.00  0.00    -0.271 OA
ATOM      8  N   UNL     1      -3.214   0.692  -0.725  0.00  0.00    -0.137 N 
ATOM      9  C   UNL     1      -3.207   0.734   0.612  0.00  0.00    +0.327 C 
ATOM     10  O   UNL     1      -4.031   1.335   1.273  0.00  0.00    -0.251 OA
ATOM     11  N   UNL     1      -2.187   0.036   1.143  0.00  0.00    -0.280 N 
ATOM     12  H   UNL     1      -1.987  -0.072   2.086  0.00  0.00    +0.152 HD
BRANCH   5  13
ATOM     13  C   UNL     1      -1.441  -2.039   0.076  0.00  0.00    -0.015 A 
ATOM     14  C   UNL     1      -0.400  -2.759  -0.480  0.00  0.00    +0.006 A 
ATOM     15  C   UNL     1      -0.407  -4.141  -0.423  0.00  0.00    +0.000 A 
ATOM     16  C   UNL     1      -1.454  -4.802   0.191  0.00  0.00    +0.000 A 
ATOM     17  C   UNL     1      -2.495  -4.082   0.748  0.00  0.00    +0.000 A 
ATOM     18  C   UNL     1      -2.486  -2.700   0.694  0.00  0.00    +0.006 A 
ENDBRANCH   5  13
BRANCH   5  20
ATOM     19  C   UNL     1      -0.019   1.526   0.010  0.00  0.00    +0.007 C 
ATOM     20  C   UNL     1       0.002  -0.004   0.002  0.00  0.00    +0.037 C 
ENDBRANCH   5  20
ENDBRANCH   1   8
BRANCH   2  21
ATOM     21  C   UNL     1      -6.435   1.516  -2.498  0.00  0.00    +0.102 C 
BRANCH  21  22
ATOM     22  C   UNL     1      -7.752   0.740  -2.445  0.00  0.00    +0.043 C 
BRANCH  22  23
ATOM     23  C   UNL     1      -8.777   1.430  -3.309  0.00  0.00    -0.034 C 
ATOM     24  C   UNL     1      -8.600   2.556  -4.038  0.00  0.00    -0.000 A 
ATOM     25  C   UNL     1      -7.446   3.441  -4.237  0.00  0.00    +0.010 A 
ATOM     26  C   UNL     1      -7.577   4.518  -5.044  0.00  0.00    +0.001 A 
ATOM     27  C   UNL     1      -8.784   4.810  -5.694  0.00  0.00    +0.002 A 
ATOM     28  C   UNL     1      -9.888   4.044  -5.560  0.00  0.00    +0.026 A 
ATOM     29  C   UNL     1      -9.863   2.885  -4.736  0.00  0.00    +0.043 A 
ATOM     30  N   UNL     1     -10.785   1.998  -4.449  0.00  0.00    -0.374 N 
ATOM     31  C   UNL     1     -10.208   1.001  -3.541  0.00  0.00    +0.137 C 
ATOM     32  H   UNL     1     -11.695   1.999  -4.784  0.00  0.00    +0.161 HD
BRANCH  31  33
ATOM     33  C   UNL     1     -10.965   0.990  -2.237  0.00  0.00    -0.021 A 
ATOM     34  C   UNL     1     -11.454   2.173  -1.714  0.00  0.00    +0.009 A 
ATOM     35  C   UNL     1     -12.148   2.166  -0.519  0.00  0.00    +0.046 A 
ATOM     36  C   UNL     1     -12.353   0.971   0.155  0.00  0.00    +0.120 A 
ATOM     37  C   UNL     1     -11.861  -0.214  -0.372  0.00  0.00    +0.046 A 
ATOM     38  C   UNL     1     -11.173  -0.203  -1.570  0.00  0.00    +0.009 A 
BRANCH  36  39
ATOM     39  O   UNL     1     -13.035   0.961   1.331  0.00  0.00    -0.495 OA
ATOM     40  C   UNL     1     -13.208  -0.305   1.970  0.00  0.00    +0.277 C 
ENDBRANCH  36  39
ENDBRANCH  31  33
ENDBRANCH  22  23
ENDBRANCH  21  22
ENDBRANCH   2  21
TORSDOF 8
