REMARK  Name = ZINC14992336
REMARK  16 active torsions:
REMARK  status: ('A' for Active; 'I' for Inactive)
REMARK    1  A    between atoms: C_1  and  C_2
REMARK    2  A    between atoms: C_2  and  C_3
REMARK    3  A    between atoms: C_2  and  C_4
REMARK    4  A    between atoms: C_4  and  C_5
REMARK    5  A    between atoms: C_5  and  N_6
REMARK    6  A    between atoms: C_7  and  C_9
REMARK    7  A    between atoms: N_11  and  C_29
REMARK    8  A    between atoms: C_13  and  C_16
REMARK    9  A    between atoms: C_23  and  C_25
REMARK   10  A    between atoms: C_25  and  C_26
REMARK   11  A    between atoms: C_26  and  N_74
REMARK   12  A    between atoms: C_27  and  N_74
REMARK   13  A    between atoms: C_28  and  N_74
REMARK   14  A    between atoms: C_29  and  C_30
REMARK   15  A    between atoms: C_30  and  C_31
REMARK   16  A    between atoms: C_30  and  C_32
REMARK                            x       y       z     vdW  Elec       q    Type
REMARK                         _______ _______ _______ _____ _____    ______ ____
ROOT
ATOM      1  C   UNL     1      -0.214   3.488   1.859  0.00  0.00    +0.100 A 
ATOM      2  C   UNL     1      -1.314   2.903   1.272  0.00  0.00    +0.102 A 
ATOM      3  N   UNL     1      -1.197   1.811   0.498  0.00  0.00    -0.351 N 
ATOM      4  C   UNL     1      -0.024   1.207   0.246  0.00  0.00    +0.102 A 
ATOM      5  C   UNL     1       1.157   1.686   0.769  0.00  0.00    +0.100 A 
ATOM      6  C   UNL     1       1.108   2.884   1.624  0.00  0.00    +0.206 A 
ATOM      7  O   UNL     1       2.119   3.356   2.115  0.00  0.00    -0.286 OA
ENDROOT
BRANCH   5   8
ATOM      8  C   UNL     1       2.437   1.017   0.480  0.00  0.00    +0.252 C 
ATOM      9  O   UNL     1       3.450   1.675   0.344  0.00  0.00    -0.270 OA
ATOM     10  N   UNL     1       2.485  -0.326   0.365  0.00  0.00    -0.294 N 
ATOM     11  C   UNL     1       1.255  -1.127   0.431  0.00  0.00    +0.108 C 
ATOM     12  C   UNL     1       1.421  -2.207   1.497  0.00  0.00    +0.019 C 
ATOM     13  C   UNL     1       2.686  -3.019   1.205  0.00  0.00    +0.003 C 
ATOM     14  C   UNL     1       3.907  -2.098   1.253  0.00  0.00    +0.022 C 
ATOM     15  C   UNL     1       3.768  -1.016   0.178  0.00  0.00    +0.075 C 
BRANCH  15  16
ATOM     16  C   UNL     1       4.915  -0.011   0.310  0.00  0.00    +0.004 C 
BRANCH  16  17
ATOM     17  C   UNL     1       6.251  -0.740   0.159  0.00  0.00    -0.078 C 
BRANCH  17  20
ATOM     18  C   UNL     1       8.651  -0.431   0.266  0.00  0.00    -0.097 C 
ATOM     19  C   UNL     1       7.288   1.109  -1.012  0.00  0.00    -0.097 C 
ATOM     20  N   UNL     1       7.344   0.255   0.194  0.00  0.00    +0.376 N 
ATOM     21  H   UNL     1       7.231   0.846   1.026  0.00  0.00    -0.083 HD
ENDBRANCH  17  20
ENDBRANCH  16  17
ENDBRANCH  15  16
ENDBRANCH   5   8
BRANCH   1  23
ATOM     22  N   UNL     1      -1.574   5.228   2.906  0.00  0.00    -0.311 N 
ATOM     23  C   UNL     1      -0.356   4.689   2.701  0.00  0.00    +0.249 C 
ATOM     24  O   UNL     1       0.626   5.193   3.212  0.00  0.00    -0.270 OA
ATOM     25  H   UNL     1      -2.357   4.825   2.499  0.00  0.00    +0.149 HD
BRANCH  22  26
ATOM     26  C   UNL     1      -1.716   6.422   3.743  0.00  0.00    +0.105 C 
BRANCH  26  27
ATOM     27  C   UNL     1      -3.190   6.825   3.811  0.00  0.00    +0.022 C 
BRANCH  27  29
ATOM     28  C   UNL     1      -4.792   8.548   4.653  0.00  0.00    +0.007 C 
ATOM     29  C   UNL     1      -3.338   8.072   4.686  0.00  0.00    -0.016 C 
ATOM     30  C   UNL     1      -2.943   7.735   6.125  0.00  0.00    +0.007 C 
ENDBRANCH  27  29
ENDBRANCH  26  27
ENDBRANCH  22  26
ENDBRANCH   1  23
BRANCH   3  31
ATOM     31  C   UNL     1      -2.412   1.248  -0.097  0.00  0.00    +0.124 C 
BRANCH  31  32
ATOM     32  C   UNL     1      -3.016   0.216   0.857  0.00  0.00    +0.003 C 
ATOM     33  C   UNL     1      -4.348  -0.281   0.294  0.00  0.00    +0.009 C 
ATOM     34  C   UNL     1      -2.053  -0.964   1.008  0.00  0.00    +0.009 C 
ENDBRANCH  31  32
ENDBRANCH   3  31
TORSDOF 10
