REMARK  Name = ZINC14994422
REMARK  9 active torsions:
REMARK  status: ('A' for Active; 'I' for Inactive)
REMARK    1  A    between atoms: C_1  and  O_2
REMARK    2  A    between atoms: O_2  and  C_3
REMARK    3  A    between atoms: C_7  and  C_9
REMARK    4  A    between atoms: C_9  and  C_10
REMARK    5  A    between atoms: C_10  and  N_11
REMARK    6  A    between atoms: C_22  and  N_61
REMARK    7  A    between atoms: C_26  and  C_27
REMARK    8  A    between atoms: C_26  and  N_61
REMARK    9  A    between atoms: C_27  and  C_28
REMARK                            x       y       z     vdW  Elec       q    Type
REMARK                         _______ _______ _______ _____ _____    ______ ____
ROOT
ATOM      1  N   UNL     1      -2.521   1.066   7.744  0.00  0.00    -0.298 N 
ATOM      2  C   UNL     1      -3.639   1.834   7.691  0.00  0.00    +0.203 A 
ATOM      3  N   UNL     1      -4.232   2.242   8.782  0.00  0.00    -0.230 NA
ATOM      4  C   UNL     1      -3.756   1.916   9.980  0.00  0.00    +0.116 A 
ATOM      5  C   UNL     1      -2.606   1.127  10.136  0.00  0.00    +0.076 A 
ATOM      6  C   UNL     1      -1.983   0.692   8.920  0.00  0.00    +0.262 A 
ATOM      7  O   UNL     1      -0.981  -0.001   8.950  0.00  0.00    -0.267 OA
ATOM      8  C   UNL     1      -2.202   0.848  11.513  0.00  0.00    -0.023 A 
ATOM      9  C   UNL     1      -2.967   1.373  12.494  0.00  0.00    -0.006 A 
ATOM     10  S   UNL     1      -4.251   2.257  11.650  0.00  0.00    -0.073 S 
ATOM     11  C   UNL     1      -2.768   1.235  13.972  0.00  0.00    +0.027 C 
ATOM     12  C   UNL     1      -1.772   0.094  14.223  0.00  0.00    -0.067 C 
ATOM     13  C   UNL     1      -0.567   0.283  13.297  0.00  0.00    -0.011 C 
ATOM     14  C   UNL     1      -0.974   0.006  11.849  0.00  0.00    +0.035 C 
ENDROOT
BRANCH  12  15
ATOM     15  N   UNL     1      -1.319   0.130  15.626  0.00  0.00    +0.381 N 
ATOM     16  H   UNL     1      -1.255   1.107  15.936  0.00  0.00    -0.086 HD
ATOM     17  H   UNL     1      -0.395  -0.312  15.695  0.00  0.00    -0.086 HD
BRANCH  15  18
ATOM     18  C   UNL     1      -2.271  -0.594  16.490  0.00  0.00    -0.077 C 
BRANCH  18  19
ATOM     19  C   UNL     1      -1.775  -0.539  17.937  0.00  0.00    +0.017 C 
BRANCH  19  20
ATOM     20  C   UNL     1      -2.742  -1.276  18.827  0.00  0.00    -0.031 A 
ATOM     21  C   UNL     1      -3.735  -0.583  19.494  0.00  0.00    +0.005 A 
ATOM     22  C   UNL     1      -4.625  -1.260  20.307  0.00  0.00    +0.000 A 
ATOM     23  C   UNL     1      -4.516  -2.629  20.461  0.00  0.00    +0.001 A 
ATOM     24  C   UNL     1      -3.521  -3.323  19.799  0.00  0.00    +0.020 A 
ATOM     25  C   UNL     1      -2.634  -2.647  18.981  0.00  0.00    +0.044 A 
ATOM     26 CL   UNL     1      -1.383  -3.518  18.149  0.00  0.00    -0.083 Cl
ENDBRANCH  19  20
ENDBRANCH  18  19
ENDBRANCH  15  18
ENDBRANCH  12  15
BRANCH   1  27
ATOM     27  C   UNL     1      -1.889   0.632   6.496  0.00  0.00    +0.131 C 
BRANCH  27  28
ATOM     28  C   UNL     1      -0.853   1.670   6.060  0.00  0.00    +0.057 C 
BRANCH  28  33
ATOM     29  C   UNL     1      -0.149   1.182   2.380  0.00  0.00    +0.120 A 
ATOM     30  C   UNL     1       0.991   0.392   2.421  0.00  0.00    +0.045 A 
ATOM     31  C   UNL     1       1.534   0.027   3.637  0.00  0.00    +0.004 A 
ATOM     32  C   UNL     1       0.936   0.440   4.814  0.00  0.00    +0.004 A 
ATOM     33  C   UNL     1      -0.203   1.222   4.776  0.00  0.00    -0.042 A 
ATOM     34  C   UNL     1      -0.747   1.594   3.561  0.00  0.00    +0.049 A 
BRANCH  29  36
ATOM     35  C   UNL     1      -0.013   1.086   0.008  0.00  0.00    +0.277 C 
ATOM     36  O   UNL     1      -0.682   1.547   1.184  0.00  0.00    -0.495 OA
ENDBRANCH  29  36
ENDBRANCH  28  33
ENDBRANCH  27  28
ENDBRANCH   1  27
TORSDOF 8
