REMARK  Name = ZINC33959694
REMARK  9 active torsions:
REMARK  status: ('A' for Active; 'I' for Inactive)
REMARK    1  A    between atoms: C_1  and  C_2
REMARK    2  A    between atoms: C_2  and  C_4
REMARK    3  A    between atoms: C_2  and  N_20
REMARK    4  A    between atoms: N_6  and  N_7
REMARK    5  A    between atoms: C_8  and  C_9
REMARK    6  A    between atoms: C_11  and  O_18
REMARK    7  A    between atoms: C_12  and  O_16
REMARK    8  A    between atoms: O_16  and  C_17
REMARK    9  A    between atoms: O_18  and  C_19
REMARK                            x       y       z     vdW  Elec       q    Type
REMARK                         _______ _______ _______ _____ _____    ______ ____
ROOT
ATOM      1  C   UNL     1      -1.412  -0.526   0.013  0.00  0.00    +0.254 C 
ATOM      2  O   UNL     1      -1.808  -1.224  -0.897  0.00  0.00    -0.272 OA
ATOM      3  N   UNL     1      -2.236  -0.217   1.033  0.00  0.00    -0.205 N 
ATOM      4  H   UNL     1      -1.920   0.341   1.761  0.00  0.00    +0.177 HD
ENDROOT
BRANCH   1   6
ATOM      5  C   UNL     1      -0.019   1.526   0.010  0.00  0.00    +0.040 C 
ATOM      6  C   UNL     1       0.002  -0.004   0.002  0.00  0.00    +0.179 C 
BRANCH   6   7
ATOM      7  N   UNL     1       0.688  -0.476  -1.203  0.00  0.00    -0.217 N 
ATOM      8  C   UNL     1       1.899  -1.316  -1.244  0.00  0.00    +0.148 C 
ATOM      9  C   UNL     1       2.954  -0.590  -0.442  0.00  0.00    -0.001 C 
ATOM     10  C   UNL     1       4.035  -0.118  -1.044  0.00  0.00    -0.003 C 
ATOM     11  C   UNL     1       4.279  -0.260  -2.478  0.00  0.00    -0.002 C 
ATOM     12  C   UNL     1       3.438  -0.866  -3.300  0.00  0.00    +0.003 C 
ATOM     13  C   UNL     1       2.141  -1.470  -2.768  0.00  0.00    +0.178 C 
ATOM     14  N   UNL     1       1.040  -0.712  -3.375  0.00  0.00    -0.162 NA
ATOM     15  N   UNL     1       0.310  -0.219  -2.521  0.00  0.00    -0.082 NA
ENDBRANCH   6   7
ENDBRANCH   1   6
BRANCH   3  16
ATOM     16  N   UNL     1      -3.551  -0.702   1.043  0.00  0.00    -0.188 NA
ATOM     17  C   UNL     1      -4.345  -0.404   2.026  0.00  0.00    +0.138 C 
BRANCH  17  18
ATOM     18  C   UNL     1      -5.728  -0.915   2.036  0.00  0.00    -0.001 A 
ATOM     19  C   UNL     1      -6.586  -0.591   3.091  0.00  0.00    +0.059 A 
ATOM     20  C   UNL     1      -7.882  -1.072   3.096  0.00  0.00    +0.163 A 
ATOM     21  C   UNL     1      -8.330  -1.878   2.052  0.00  0.00    +0.175 A 
ATOM     22  C   UNL     1      -7.479  -2.200   1.004  0.00  0.00    +0.064 A 
ATOM     23  C   UNL     1      -6.185  -1.718   0.989  0.00  0.00    +0.028 A 
ATOM     24 BR   UNL     1      -8.094  -3.295  -0.409  0.00  0.00    -0.046 Br
BRANCH  21  25
ATOM     25  O   UNL     1      -9.605  -2.351   2.059  0.00  0.00    -0.490 OA
ATOM     26  C   UNL     1     -10.600  -1.542   1.430  0.00  0.00    +0.277 C 
ENDBRANCH  21  25
BRANCH  20  27
ATOM     27  O   UNL     1      -8.719  -0.758   4.120  0.00  0.00    -0.491 OA
ATOM     28  C   UNL     1      -8.193   0.072   5.157  0.00  0.00    +0.277 C 
ENDBRANCH  20  27
ENDBRANCH  17  18
ENDBRANCH   3  16
TORSDOF 6
