REMARK  Name = ZINC39690202
REMARK  10 active torsions:
REMARK  status: ('A' for Active; 'I' for Inactive)
REMARK    1  A    between atoms: C_1  and  C_2
REMARK    2  A    between atoms: C_4  and  C_31
REMARK    3  A    between atoms: C_8  and  C_12
REMARK    4  A    between atoms: C_12  and  S_13
REMARK    5  A    between atoms: S_13  and  C_14
REMARK    6  A    between atoms: N_24  and  C_25
REMARK    7  A    between atoms: C_25  and  C_26
REMARK    8  A    between atoms: C_26  and  C_27
REMARK    9  A    between atoms: C_27  and  C_28
REMARK   10  A    between atoms: C_27  and  C_29
REMARK                            x       y       z     vdW  Elec       q    Type
REMARK                         _______ _______ _______ _____ _____    ______ ____
ROOT
ATOM      1  S   UNL     1      -2.477  -4.165   5.283  0.00  0.00    -0.080 S 
ENDROOT
BRANCH   1   2
ATOM      2  C   UNL     1      -2.074  -4.954   6.806  0.00  0.00    +0.173 A 
ATOM      3  N   UNL     1      -0.865  -4.799   7.288  0.00  0.00    -0.223 NA
ATOM      4  C   UNL     1      -0.488  -5.373   8.448  0.00  0.00    +0.079 A 
ATOM      5  C   UNL     1       0.801  -5.208   8.963  0.00  0.00    +0.028 A 
ATOM      6  C   UNL     1       1.140  -5.808  10.143  0.00  0.00    +0.002 A 
ATOM      7  C   UNL     1       0.222  -6.583  10.841  0.00  0.00    +0.001 A 
ATOM      8  C   UNL     1      -1.046  -6.763  10.363  0.00  0.00    +0.015 A 
ATOM      9  C   UNL     1      -1.420  -6.162   9.162  0.00  0.00    +0.065 A 
ATOM     10  C   UNL     1      -2.768  -6.321   8.601  0.00  0.00    +0.262 A 
ATOM     11  O   UNL     1      -3.614  -6.987   9.168  0.00  0.00    -0.267 OA
ATOM     12  N   UNL     1      -3.037  -5.693   7.432  0.00  0.00    -0.287 N 
BRANCH  12  13
ATOM     13  C   UNL     1      -4.367  -5.813   6.831  0.00  0.00    +0.127 C 
BRANCH  13  14
ATOM     14  C   UNL     1      -4.399  -7.026   5.900  0.00  0.00    +0.025 C 
BRANCH  14  15
ATOM     15  C   UNL     1      -5.789  -7.151   5.272  0.00  0.00    -0.016 C 
ATOM     16  C   UNL     1      -6.052  -5.943   4.371  0.00  0.00    +0.007 C 
ATOM     17  C   UNL     1      -5.859  -8.433   4.440  0.00  0.00    +0.007 C 
ENDBRANCH  14  15
ENDBRANCH  13  14
ENDBRANCH  12  13
ENDBRANCH   1   2
BRANCH   1  18
ATOM     18  C   UNL     1      -0.948  -3.312   4.811  0.00  0.00    +0.151 C 
BRANCH  18  25
ATOM     19  C   UNL     1      -0.019   1.526   0.010  0.00  0.00    +0.057 C 
ATOM     20  C   UNL     1       0.002  -0.004   0.002  0.00  0.00    +0.210 C 
ATOM     21  C   UNL     1      -1.411  -0.541   0.029  0.00  0.00    +0.098 C 
ATOM     22  C   UNL     1      -1.518  -1.277   1.161  0.00  0.00    +0.114 C 
ATOM     23  C   UNL     1      -0.225  -1.240   1.876  0.00  0.00    +0.230 C 
ATOM     24  N   UNL     1      -0.135  -1.907   3.013  0.00  0.00    -0.199 NA
ATOM     25  C   UNL     1      -1.158  -2.587   3.507  0.00  0.00    +0.136 C 
ATOM     26  N   UNL     1      -2.338  -2.679   2.948  0.00  0.00    -0.160 NA
ATOM     27  C   UNL     1      -2.613  -2.063   1.783  0.00  0.00    +0.275 C 
ATOM     28  O   UNL     1      -3.711  -2.147   1.263  0.00  0.00    -0.268 OA
ATOM     29  O   UNL     1       0.649  -0.492   1.181  0.00  0.00    -0.468 OA
BRANCH  21  30
ATOM     30  C   UNL     1      -2.470  -0.309  -0.983  0.00  0.00    +0.387 C 
ATOM     31  O   UNL     1      -3.576  -0.806  -0.835  0.00  0.00    -0.241 OA
ATOM     32  O   UNL     1      -2.237   0.381  -1.964  0.00  0.00    -0.241 OA
ENDBRANCH  21  30
ENDBRANCH  18  25
ENDBRANCH   1  18
TORSDOF 7
