REMARK  Name = ZINC39467199
REMARK  7 active torsions:
REMARK  status: ('A' for Active; 'I' for Inactive)
REMARK    1  A    between atoms: C_1  and  C_2
REMARK    2  A    between atoms: C_2  and  O_3
REMARK    3  A    between atoms: O_3  and  C_4
REMARK    4  A    between atoms: C_16  and  O_17
REMARK    5  A    between atoms: O_17  and  C_18
REMARK    6  A    between atoms: P_21  and  C_24
REMARK    7  A    between atoms: C_29  and  O_30
REMARK                            x       y       z     vdW  Elec       q    Type
REMARK                         _______ _______ _______ _____ _____    ______ ____
ROOT
ATOM      1  C   UNL     1       0.777  -1.810  -1.336  0.00  0.00    +0.158 C 
ATOM      2  C   UNL     1       0.263  -2.641  -0.422  0.00  0.00    +0.025 C 
ATOM      3  C   UNL     1       0.387  -4.123  -0.640  0.00  0.00    +0.008 C 
ATOM      4  C   UNL     1      -0.674  -4.897   0.132  0.00  0.00    -0.046 C 
ATOM      5  N   UNL     1      -0.487  -6.344  -0.076  0.00  0.00    +0.398 N 
ATOM      6  C   UNL     1      -0.602  -6.700  -1.490  0.00  0.00    -0.020 C 
ATOM      7  C   UNL     1       0.410  -5.920  -2.341  0.00  0.00    -0.002 C 
ATOM      8  C   UNL     1       0.198  -4.423  -2.133  0.00  0.00    +0.019 C 
ATOM      9  C   UNL     1       1.189  -3.613  -2.922  0.00  0.00    +0.026 C 
ATOM     10  C   UNL     1       1.456  -2.364  -2.528  0.00  0.00    +0.158 C 
ATOM     11  C   UNL     1      -0.309  -8.188  -1.720  0.00  0.00    +0.157 C 
ATOM     12  O   UNL     1      -1.277  -8.979  -1.006  0.00  0.00    -0.316 OA
ATOM     13  P   UNL     1      -1.530  -8.633   0.564  0.00  0.00    +0.291 P 
ATOM     14  O   UNL     1      -0.472  -9.243   1.400  0.00  0.00    -0.269 OA
ATOM     15  N   UNL     1      -1.472  -6.970   0.659  0.00  0.00    -0.288 NA
ATOM     16  H   UNL     1      -2.085  -6.463   1.213  0.00  0.00    +0.111 HD
ATOM     17  H   UNL     1       0.419  -6.620   0.271  0.00  0.00    -0.055 HD
ENDROOT
BRANCH  13  18
ATOM     18  C   UNL     1      -3.162  -9.228   1.084  0.00  0.00    +0.091 A 
ATOM     19  C   UNL     1      -4.267  -8.406   0.968  0.00  0.00    +0.018 A 
ATOM     20  C   UNL     1      -5.511  -8.859   1.365  0.00  0.00    +0.001 A 
ATOM     21  C   UNL     1      -5.654 -10.135   1.879  0.00  0.00    +0.004 A 
ATOM     22  C   UNL     1      -4.553 -10.960   1.996  0.00  0.00    +0.046 A 
ATOM     23  C   UNL     1      -3.304 -10.510   1.594  0.00  0.00    +0.131 A 
BRANCH  23  24
ATOM     24  O   UNL     1      -2.220 -11.323   1.703  0.00  0.00    -0.506 OA
ATOM     25  H   UNL     1      -1.758 -11.250   2.550  0.00  0.00    +0.292 HD
ENDBRANCH  23  24
ENDBRANCH  13  18
BRANCH  10  26
ATOM     26  O   UNL     1       2.351  -1.610  -3.217  0.00  0.00    -0.492 OA
ATOM     27  C   UNL     1       2.966  -2.213  -4.357  0.00  0.00    +0.277 C 
ENDBRANCH  10  26
BRANCH   1  28
ATOM     28  O   UNL     1       0.671  -0.465  -1.174  0.00  0.00    -0.489 OA
BRANCH  28  30
ATOM     29  C   UNL     1      -0.019   1.526   0.010  0.00  0.00    +0.048 C 
ATOM     30  C   UNL     1       0.002  -0.004   0.002  0.00  0.00    +0.226 C 
ENDBRANCH  28  30
ENDBRANCH   1  28
TORSDOF 5
