REMARK  Name = ZINC64450636
REMARK  10 active torsions:
REMARK  status: ('A' for Active; 'I' for Inactive)
REMARK    1  A    between atoms: C_1  and  C_2
REMARK    2  A    between atoms: C_2  and  C_3
REMARK    3  A    between atoms: C_5  and  C_8
REMARK    4  A    between atoms: C_8  and  N_9
REMARK    5  A    between atoms: C_12  and  S_20
REMARK    6  A    between atoms: S_20  and  N_23
REMARK    7  A    between atoms: N_23  and  C_24
REMARK    8  A    between atoms: C_24  and  C_26
REMARK    9  A    between atoms: C_24  and  C_27
REMARK   10  A    between atoms: C_27  and  C_28
REMARK                            x       y       z     vdW  Elec       q    Type
REMARK                         _______ _______ _______ _____ _____    ______ ____
ROOT
ATOM      1  N   UNL     1       3.870  -2.953  -2.861  0.00  0.00    -0.258 N 
ATOM      2  C   UNL     1       4.443  -3.400  -1.663  0.00  0.00    +0.081 A 
ATOM      3  C   UNL     1       4.511  -2.568  -0.557  0.00  0.00    +0.055 A 
ATOM      4  C   UNL     1       5.082  -3.028   0.615  0.00  0.00    +0.107 A 
ATOM      5  C   UNL     1       5.585  -4.314   0.686  0.00  0.00    +0.032 A 
ATOM      6  C   UNL     1       5.519  -5.150  -0.414  0.00  0.00    +0.049 A 
ATOM      7  C   UNL     1       4.948  -4.697  -1.591  0.00  0.00    +0.143 A 
ATOM      8  O   UNL     1       4.873  -5.505  -2.681  0.00  0.00    -0.481 OA
ATOM      9  C   UNL     1       3.740  -5.329  -3.536  0.00  0.00    +0.325 C 
ATOM     10  C   UNL     1       3.527  -3.860  -3.801  0.00  0.00    +0.258 C 
ATOM     11  O   UNL     1       3.053  -3.495  -4.856  0.00  0.00    -0.271 OA
ENDROOT
BRANCH   4  12
ATOM     12  S   UNL     1       5.170  -1.972   2.023  0.00  0.00    +0.059 S 
ATOM     13  O   UNL     1       6.240  -2.453   2.825  0.00  0.00    -0.153 OA
ATOM     14  O   UNL     1       5.125  -0.638   1.534  0.00  0.00    -0.153 OA
BRANCH  12  15
ATOM     15  N   UNL     1       3.782  -2.203   2.896  0.00  0.00    -0.187 NA
ATOM     16  H   UNL     1       3.146  -1.478   2.996  0.00  0.00    +0.148 HD
BRANCH  15  17
ATOM     17  C   UNL     1       3.516  -3.502   3.518  0.00  0.00    +0.073 C 
ATOM     18  C   UNL     1       2.636  -4.341   2.588  0.00  0.00    +0.025 C 
BRANCH  17  19
ATOM     19  C   UNL     1       2.794  -3.291   4.850  0.00  0.00    +0.017 C 
ATOM     20  C   UNL     1       3.721  -2.560   5.823  0.00  0.00    +0.005 C 
ENDBRANCH  17  19
ENDBRANCH  15  17
ENDBRANCH  12  15
ENDBRANCH   4  12
BRANCH   1  21
ATOM     21  C   UNL     1       3.640  -1.524  -3.088  0.00  0.00    +0.193 C 
BRANCH  21  24
ATOM     22  C   UNL     1       0.707  -0.490  -1.238  0.00  0.00    +0.227 A 
ATOM     23  N   UNL     1       1.984  -0.732  -1.345  0.00  0.00    -0.194 NA
ATOM     24  C   UNL     1       2.270  -1.149  -2.584  0.00  0.00    +0.189 A 
ATOM     25  N   UNL     1       1.172  -1.177  -3.283  0.00  0.00    -0.060 NA
ATOM     26  O   UNL     1       0.130  -0.753  -2.417  0.00  0.00    -0.338 OA
BRANCH  22  28
ATOM     27  C   UNL     1      -0.019   1.526   0.010  0.00  0.00    +0.014 C 
ATOM     28  C   UNL     1       0.002  -0.004   0.002  0.00  0.00    +0.095 C 
ENDBRANCH  22  28
ENDBRANCH  21  24
ENDBRANCH   1  21
TORSDOF 7
