REMARK  Name = ZINC38605383
REMARK  9 active torsions:
REMARK  status: ('A' for Active; 'I' for Inactive)
REMARK    1  A    between atoms: C_1  and  C_2
REMARK    2  A    between atoms: C_2  and  O_3
REMARK    3  A    between atoms: O_3  and  C_4
REMARK    4  A    between atoms: C_4  and  C_6
REMARK    5  A    between atoms: C_8  and  N_17
REMARK    6  A    between atoms: C_18  and  C_20
REMARK    7  A    between atoms: C_20  and  C_22
REMARK    8  A    between atoms: C_20  and  N_23
REMARK    9  A    between atoms: C_26  and  C_29
REMARK                            x       y       z     vdW  Elec       q    Type
REMARK                         _______ _______ _______ _____ _____    ______ ____
ROOT
ATOM      1  C   UNL     1       0.254  -3.804  -4.046  0.00  0.00    +0.234 C 
ATOM      2  C   UNL     1       0.502  -2.384  -3.587  0.00  0.00    +0.053 C 
ATOM      3  C   UNL     1       1.282  -2.487  -2.448  0.00  0.00    +0.020 A 
ATOM      4  C   UNL     1       1.832  -1.517  -1.576  0.00  0.00    +0.050 A 
ATOM      5  C   UNL     1       2.575  -1.914  -0.512  0.00  0.00    +0.124 A 
ATOM      6  C   UNL     1       2.814  -3.268  -0.249  0.00  0.00    +0.040 A 
ATOM      7  C   UNL     1       2.319  -4.249  -1.041  0.00  0.00    +0.029 A 
ATOM      8  C   UNL     1       1.533  -3.913  -2.174  0.00  0.00    +0.045 A 
ATOM      9  N   UNL     1       0.947  -4.667  -3.084  0.00  0.00    -0.367 N 
ATOM     10  F   UNL     1       3.095  -0.980   0.314  0.00  0.00    -0.205 F 
ATOM     11  H   UNL     1       0.969  -5.637  -3.113  0.00  0.00    +0.161 HD
ENDROOT
BRANCH   2  12
ATOM     12  N   UNL     1       0.052  -1.239  -4.174  0.00  0.00    -0.288 N 
ATOM     13  C   UNL     1      -0.836  -1.305  -5.186  0.00  0.00    +0.203 C 
ATOM     14  O   UNL     1      -1.316  -2.372  -5.503  0.00  0.00    -0.277 OA
ATOM     15  H   UNL     1       0.370  -0.377  -3.863  0.00  0.00    +0.155 HD
BRANCH  13  16
ATOM     16  C   UNL     1      -1.230  -0.052  -5.925  0.00  0.00    +0.016 C 
ATOM     17  C   UNL     1      -1.976   0.887  -4.974  0.00  0.00    -0.004 C 
BRANCH  16  18
ATOM     18  N   UNL     1      -2.105  -0.403  -7.052  0.00  0.00    +0.387 N 
ATOM     19  C   UNL     1      -3.368  -0.946  -6.539  0.00  0.00    -0.078 C 
ATOM     20  C   UNL     1      -4.250  -1.389  -7.708  0.00  0.00    -0.015 C 
ATOM     21  C   UNL     1      -4.539  -0.183  -8.608  0.00  0.00    -0.018 C 
ATOM     22  C   UNL     1      -3.212   0.420  -9.077  0.00  0.00    -0.015 C 
ATOM     23  C   UNL     1      -2.368   0.796  -7.857  0.00  0.00    -0.078 C 
ATOM     24  C   UNL     1      -5.354  -0.634  -9.821  0.00  0.00    +0.007 C 
ATOM     25  H   UNL     1      -1.650  -1.099  -7.625  0.00  0.00    -0.081 HD
ENDBRANCH  16  18
ENDBRANCH  13  16
ENDBRANCH   2  12
BRANCH   1  26
ATOM     26  C   UNL     1       0.819  -4.009  -5.428  0.00  0.00    +0.336 C 
ATOM     27  O   UNL     1       1.951  -4.408  -5.565  0.00  0.00    -0.248 OA
BRANCH  26  28
ATOM     28  O   UNL     1       0.064  -3.748  -6.507  0.00  0.00    -0.463 OA
BRANCH  28  30
ATOM     29  C   UNL     1      -0.341  -3.615  -8.886  0.00  0.00    +0.048 C 
ATOM     30  C   UNL     1       0.663  -3.964  -7.786  0.00  0.00    +0.229 C 
ENDBRANCH  28  30
ENDBRANCH  26  28
ENDBRANCH   1  26
TORSDOF 6
