REMARK  Name = ZINC56047305
REMARK  5 active torsions:
REMARK  status: ('A' for Active; 'I' for Inactive)
REMARK    1  A    between atoms: C_1  and  O_2
REMARK    2  A    between atoms: O_2  and  C_3
REMARK    3  A    between atoms: C_3  and  C_5
REMARK    4  A    between atoms: C_7  and  C_13
REMARK    5  A    between atoms: C_20  and  C_22
REMARK                            x       y       z     vdW  Elec       q    Type
REMARK                         _______ _______ _______ _____ _____    ______ ____
ROOT
ATOM      1  C   UNL     1      -1.193  -2.383   1.240  0.00  0.00    +0.148 C 
ATOM      2  C   UNL     1      -2.355  -2.836   0.588  0.00  0.00    +0.054 C 
ATOM      3  C   UNL     1      -2.323  -4.244   0.024  0.00  0.00    +0.141 C 
ATOM      4  N   UNL     1      -1.072  -4.998   0.218  0.00  0.00    -0.314 N 
ATOM      5  C   UNL     1      -0.057  -4.400   0.871  0.00  0.00    +0.155 C 
ATOM      6  S   UNL     1       1.397  -5.274   1.096  0.00  0.00    -0.017 S 
ATOM      7  N   UNL     1      -0.131  -3.160   1.343  0.00  0.00    -0.186 NA
ATOM      8  C   UNL     1      -3.473  -2.036   0.467  0.00  0.00    +0.193 C 
ATOM      9  O   UNL     1      -4.677  -2.592   0.211  0.00  0.00    -0.287 OA
ATOM     10  H   UNL     1      -0.981  -5.904  -0.117  0.00  0.00    +0.149 HD
ENDROOT
BRANCH   3  11
ATOM     11  C   UNL     1      -3.441  -5.029   0.660  0.00  0.00    +0.013 A 
ATOM     12  C   UNL     1      -3.274  -5.574   1.919  0.00  0.00    +0.008 A 
ATOM     13  C   UNL     1      -4.300  -6.294   2.502  0.00  0.00    +0.001 A 
ATOM     14  C   UNL     1      -5.494  -6.470   1.828  0.00  0.00    +0.003 A 
ATOM     15  C   UNL     1      -5.663  -5.926   0.569  0.00  0.00    +0.039 A 
ATOM     16  C   UNL     1      -4.638  -5.200  -0.015  0.00  0.00    +0.129 A 
ATOM     17  F   UNL     1      -4.805  -4.663  -1.243  0.00  0.00    -0.205 F 
ENDBRANCH   3  11
BRANCH   8  18
ATOM     18  C   UNL     1      -3.353  -0.576   0.617  0.00  0.00    +0.022 A 
ATOM     19  C   UNL     1      -4.144   0.102   1.551  0.00  0.00    +0.014 A 
ATOM     20  C   UNL     1      -4.027   1.468   1.686  0.00  0.00    +0.039 A 
ATOM     21  C   UNL     1      -3.127   2.171   0.899  0.00  0.00    +0.123 A 
ATOM     22  C   UNL     1      -2.340   1.505  -0.030  0.00  0.00    +0.039 A 
ATOM     23  C   UNL     1      -2.443   0.139  -0.170  0.00  0.00    +0.014 A 
ATOM     24  F   UNL     1      -3.017   3.510   1.036  0.00  0.00    -0.205 F 
ENDBRANCH   8  18
BRANCH   1  25
ATOM     25  C   UNL     1      -1.159  -1.012   1.815  0.00  0.00    +0.356 C 
ATOM     26  O   UNL     1      -1.983  -0.681   2.643  0.00  0.00    -0.243 OA
BRANCH  25  28
ATOM     27  C   UNL     1      -0.163   1.115   2.102  0.00  0.00    +0.280 C 
ATOM     28  O   UNL     1      -0.215  -0.139   1.418  0.00  0.00    -0.464 OA
ENDBRANCH  25  28
ENDBRANCH   1  25
TORSDOF 4
