REMARK  Name = ZINC64705067
REMARK  8 active torsions:
REMARK  status: ('A' for Active; 'I' for Inactive)
REMARK    1  A    between atoms: C_1  and  C_2
REMARK    2  A    between atoms: C_5  and  C_8
REMARK    3  A    between atoms: C_8  and  N_9
REMARK    4  A    between atoms: N_9  and  C_10
REMARK    5  A    between atoms: C_11  and  C_13
REMARK    6  A    between atoms: C_13  and  N_14
REMARK    7  A    between atoms: C_17  and  C_22
REMARK    8  A    between atoms: C_22  and  C_23
REMARK                            x       y       z     vdW  Elec       q    Type
REMARK                         _______ _______ _______ _____ _____    ______ ____
ROOT
ATOM      1  N   UNL     1       6.126  -1.150  -0.746  0.00  0.00    -0.216 N 
ATOM      2  C   UNL     1       6.798  -1.440  -1.877  0.00  0.00    +0.244 C 
ATOM      3  O   UNL     1       6.890  -2.522  -2.417  0.00  0.00    -0.273 OA
ATOM      4  C   UNL     1       7.413  -0.133  -2.336  0.00  0.00    +0.165 C 
ATOM      5  N   UNL     1       6.976   0.833  -1.313  0.00  0.00    -0.287 N 
ATOM      6  C   UNL     1       6.226   0.146  -0.431  0.00  0.00    +0.310 C 
ATOM      7  O   UNL     1       5.702   0.648   0.544  0.00  0.00    -0.252 OA
ATOM      8  H   UNL     1       7.184   1.780  -1.283  0.00  0.00    +0.151 HD
ENDROOT
BRANCH   1   9
ATOM      9  C   UNL     1       5.374  -2.132   0.040  0.00  0.00    +0.213 C 
BRANCH   9  12
ATOM     10  N   UNL     1       3.071  -3.031   0.119  0.00  0.00    -0.300 N 
ATOM     11  C   UNL     1       3.494  -3.886   1.231  0.00  0.00    +0.132 C 
ATOM     12  C   UNL     1       3.953  -2.191  -0.458  0.00  0.00    +0.233 C 
ATOM     13  O   UNL     1       3.603  -1.484  -1.379  0.00  0.00    -0.274 OA
BRANCH  10  14
ATOM     14  C   UNL     1       1.690  -3.090  -0.365  0.00  0.00    +0.152 C 
BRANCH  14  19
ATOM     15  C   UNL     1      -0.018   1.503   0.010  0.00  0.00    +0.085 C 
ATOM     16  C   UNL     1       0.002  -0.004   0.002  0.00  0.00    +0.091 C 
ATOM     17  C   UNL     1      -1.089  -0.739   0.003  0.00  0.00    +0.017 C 
ATOM     18  C   UNL     1      -0.655  -2.195   0.005  0.00  0.00    +0.076 C 
ATOM     19  C   UNL     1       0.838  -2.076   0.402  0.00  0.00    +0.194 C 
ATOM     20  O   UNL     1       1.144  -0.729  -0.013  0.00  0.00    -0.492 OA
ENDBRANCH  14  19
ENDBRANCH  10  14
ENDBRANCH   9  12
ENDBRANCH   1   9
BRANCH   4  21
ATOM     21  C   UNL     1       8.939  -0.237  -2.365  0.00  0.00    +0.065 C 
BRANCH  21  22
ATOM     22  C   UNL     1       9.518   1.030  -2.939  0.00  0.00    -0.039 C 
ATOM     23  C   UNL     1       9.970   2.102  -2.250  0.00  0.00    -0.001 A 
ATOM     24  C   UNL     1      10.054   2.399  -0.815  0.00  0.00    +0.010 A 
ATOM     25  C   UNL     1      10.567   3.587  -0.419  0.00  0.00    +0.001 A 
ATOM     26  C   UNL     1      11.018   4.539  -1.343  0.00  0.00    +0.002 A 
ATOM     27  C   UNL     1      10.973   4.339  -2.678  0.00  0.00    +0.026 A 
ATOM     28  C   UNL     1      10.454   3.125  -3.205  0.00  0.00    +0.043 A 
ATOM     29  N   UNL     1      10.306   2.701  -4.437  0.00  0.00    -0.380 N 
ATOM     30  C   UNL     1       9.717   1.358  -4.402  0.00  0.00    +0.144 C 
ATOM     31  H   UNL     1      10.550   3.192  -5.238  0.00  0.00    +0.160 HD
ENDBRANCH  21  22
ENDBRANCH   4  21
TORSDOF 6
