REMARK  Name = ZINC67406480
REMARK  7 active torsions:
REMARK  status: ('A' for Active; 'I' for Inactive)
REMARK    1  A    between atoms: C_1  and  C_2
REMARK    2  A    between atoms: C_2  and  C_3
REMARK    3  A    between atoms: C_3  and  C_5
REMARK    4  A    between atoms: C_3  and  N_15
REMARK    5  A    between atoms: N_18  and  C_19
REMARK    6  A    between atoms: C_19  and  C_20
REMARK    7  A    between atoms: C_24  and  C_29
REMARK                            x       y       z     vdW  Elec       q    Type
REMARK                         _______ _______ _______ _____ _____    ______ ____
ROOT
ATOM      1  N   UNL     1      -0.055  -0.114  -2.441  0.00  0.00    -0.290 N 
ATOM      2  C   UNL     1       0.107   1.109  -2.984  0.00  0.00    +0.300 C 
ATOM      3  O   UNL     1       0.895   1.893  -2.492  0.00  0.00    -0.253 OA
ATOM      4  N   UNL     1      -0.604   1.462  -4.073  0.00  0.00    -0.294 N 
ATOM      5  H   UNL     1      -0.683  -0.740  -2.833  0.00  0.00    +0.151 HD
ATOM      6  H   UNL     1      -1.233   0.836  -4.466  0.00  0.00    +0.151 HD
ENDROOT
BRANCH   1   7
ATOM      7  C   UNL     1       0.718  -0.497  -1.257  0.00  0.00    +0.140 C 
BRANCH   7   8
ATOM      8  C   UNL     1       0.847  -1.998  -1.206  0.00  0.00    +0.129 A 
ATOM      9  N   UNL     1       0.413  -2.851  -2.172  0.00  0.00    -0.340 N 
ATOM     10  H   UNL     1      -0.027  -2.605  -3.001  0.00  0.00    +0.167 HD
ATOM     11  C   UNL     1       0.714  -4.132  -1.755  0.00  0.00    +0.066 A 
ATOM     12  C   UNL     1       0.523  -5.396  -2.298  0.00  0.00    +0.028 A 
ATOM     13  C   UNL     1       0.953  -6.508  -1.606  0.00  0.00    +0.002 A 
ATOM     14  C   UNL     1       1.572  -6.372  -0.372  0.00  0.00    +0.002 A 
ATOM     15  C   UNL     1       1.768  -5.137   0.178  0.00  0.00    +0.030 A 
ATOM     16  C   UNL     1       1.342  -3.995  -0.506  0.00  0.00    +0.089 A 
ATOM     17  N   UNL     1       1.396  -2.666  -0.233  0.00  0.00    -0.231 NA
ENDBRANCH   7   8
BRANCH   7  19
ATOM     18  C   UNL     1      -0.019   1.526   0.010  0.00  0.00    +0.006 C 
ATOM     19  C   UNL     1       0.002  -0.004   0.002  0.00  0.00    +0.027 C 
ENDBRANCH   7  19
ENDBRANCH   1   7
BRANCH   4  20
ATOM     20  C   UNL     1      -0.428   2.791  -4.664  0.00  0.00    +0.160 C 
BRANCH  20  21
ATOM     21  C   UNL     1      -1.332   2.932  -5.861  0.00  0.00    +0.051 A 
ATOM     22  C   UNL     1      -0.982   2.698  -7.145  0.00  0.00    +0.115 A 
ATOM     23  N   UNL     1      -2.087   2.941  -7.916  0.00  0.00    -0.308 N 
ATOM     24  C   UNL     1      -2.308   2.867  -9.261  0.00  0.00    +0.096 A 
ATOM     25  C   UNL     1      -3.520   3.166  -9.775  0.00  0.00    -0.034 A 
ATOM     26  C   UNL     1      -4.571   3.560  -8.930  0.00  0.00    +0.008 A 
ATOM     27  C   UNL     1      -4.363   3.637  -7.588  0.00  0.00    +0.045 A 
ATOM     28  C   UNL     1      -3.093   3.321  -7.066  0.00  0.00    +0.115 A 
ATOM     29  N   UNL     1      -2.614   3.303  -5.830  0.00  0.00    -0.342 N 
ATOM     30  C   UNL     1      -3.745   3.079 -11.262  0.00  0.00    +0.045 C 
ATOM     31  H   UNL     1      -3.115   3.527  -5.030  0.00  0.00    +0.167 HD
ENDBRANCH  20  21
ENDBRANCH   4  20
TORSDOF 5
