REMARK  Name = ZINC09262873
REMARK  5 active torsions:
REMARK  status: ('A' for Active; 'I' for Inactive)
REMARK    1  A    between atoms: C_3  and  C_9
REMARK    2  A    between atoms: C_6  and  C_7
REMARK    3  A    between atoms: C_12  and  C_14
REMARK    4  A    between atoms: N_18  and  C_22
REMARK    5  A    between atoms: C_22  and  C_23
REMARK                            x       y       z     vdW  Elec       q    Type
REMARK                         _______ _______ _______ _____ _____    ______ ____
ROOT
ATOM      1  C   UNL     1      -4.528   6.800   0.079  0.00  0.00    +0.074 C 
ATOM      2  C   UNL     1      -3.709   7.886   0.178  0.00  0.00    +0.101 C 
ATOM      3  C   UNL     1      -2.242   7.899   0.180  0.00  0.00    +0.269 C 
ATOM      4  O   UNL     1      -1.503   6.936   0.092  0.00  0.00    -0.268 OA
ATOM      5  N   UNL     1      -1.876   9.192   0.298  0.00  0.00    -0.216 N 
ATOM      6  C   UNL     1      -2.969   9.968   0.369  0.00  0.00    +0.313 C 
ATOM      7  O   UNL     1      -2.947  11.179   0.480  0.00  0.00    -0.252 OA
ATOM      8  N   UNL     1      -4.090   9.230   0.294  0.00  0.00    -0.265 N 
ATOM      9  H   UNL     1      -4.999   9.566   0.320  0.00  0.00    +0.157 HD
ENDROOT
BRANCH   1  13
ATOM     10  C   UNL     1      -2.564   3.857   0.517  0.00  0.00    +0.136 A 
ATOM     11  C   UNL     1      -3.770   3.277   0.193  0.00  0.00    +0.050 A 
ATOM     12  C   UNL     1      -4.681   4.316  -0.011  0.00  0.00    +0.050 A 
ATOM     13  C   UNL     1      -3.990   5.499   0.188  0.00  0.00    +0.131 A 
ATOM     14  O   UNL     1      -2.715   5.194   0.506  0.00  0.00    -0.455 OA
BRANCH  10  17
ATOM     15  C   UNL     1      -0.136   1.067   1.075  0.00  0.00    +0.019 A 
ATOM     16  C   UNL     1      -1.291   1.736   0.790  0.00  0.00    +0.013 A 
ATOM     17  C   UNL     1      -1.315   3.134   0.819  0.00  0.00    +0.017 A 
ATOM     18  C   UNL     1      -0.152   3.847   1.129  0.00  0.00    +0.013 A 
ATOM     19  C   UNL     1       1.005   3.177   1.409  0.00  0.00    +0.019 A 
ATOM     20  C   UNL     1       1.027   1.779   1.386  0.00  0.00    +0.052 A 
BRANCH  20  21
ATOM     21  C   UNL     1       2.240   1.077   1.679  0.00  0.00    +0.099 C 
ATOM     22  N   UNL     1       3.203   0.520   1.911  0.00  0.00    -0.191 NA
ENDBRANCH  20  21
ENDBRANCH  10  17
ENDBRANCH   1  13
BRANCH   5  23
ATOM     23  C   UNL     1      -0.494   9.675   0.343  0.00  0.00    +0.153 C 
BRANCH  23  24
ATOM     24  C   UNL     1      -0.020   9.970  -1.056  0.00  0.00    -0.028 A 
ATOM     25  C   UNL     1       0.600   8.982  -1.798  0.00  0.00    +0.007 A 
ATOM     26  C   UNL     1       1.032   9.250  -3.084  0.00  0.00    +0.022 A 
ATOM     27  C   UNL     1       0.853  10.511  -3.625  0.00  0.00    +0.059 A 
ATOM     28  C   UNL     1       0.237  11.502  -2.880  0.00  0.00    +0.060 A 
ATOM     29  C   UNL     1      -0.199  11.230  -1.595  0.00  0.00    +0.026 A 
ATOM     30 CL   UNL     1       0.011  13.084  -3.558  0.00  0.00    -0.082 Cl
ATOM     31 CL   UNL     1       1.401  10.850  -5.237  0.00  0.00    -0.082 Cl
ENDBRANCH  23  24
ENDBRANCH   5  23
TORSDOF 5
