REMARK  Name = ZINC20255730
REMARK  7 active torsions:
REMARK  status: ('A' for Active; 'I' for Inactive)
REMARK    1  A    between atoms: C_1  and  C_2
REMARK    2  A    between atoms: C_3  and  S_9
REMARK    3  A    between atoms: C_4  and  C_8
REMARK    4  A    between atoms: S_9  and  N_12
REMARK    5  A    between atoms: N_12  and  C_13
REMARK    6  A    between atoms: C_13  and  C_14
REMARK    7  A    between atoms: C_14  and  C_15
REMARK                            x       y       z     vdW  Elec       q    Type
REMARK                         _______ _______ _______ _____ _____    ______ ____
ROOT
ATOM      1  N   UNL     1      -2.425   6.983   1.454  0.00  0.00    -0.190 NA
ATOM      2  H   UNL     1      -1.637   7.580   0.973  0.00  0.00    +0.148 HD
ENDROOT
BRANCH   1   3
ATOM      3  S   UNL     1      -3.520   7.735   2.444  0.00  0.00    +0.062 S 
ATOM      4  O   UNL     1      -3.305   9.132   2.299  0.00  0.00    -0.153 OA
ATOM      5  O   UNL     1      -4.779   7.128   2.192  0.00  0.00    -0.153 OA
BRANCH   3   8
ATOM      6  C   UNL     1      -4.512   5.223   4.313  0.00  0.00    +0.067 C 
ATOM      7  C   UNL     1      -3.544   6.267   4.807  0.00  0.00    +0.060 A 
ATOM      8  C   UNL     1      -3.087   7.328   4.103  0.00  0.00    +0.148 A 
ATOM      9  C   UNL     1      -2.216   8.049   4.926  0.00  0.00    +0.086 A 
ATOM     10  N   UNL     1      -2.148   7.439   6.082  0.00  0.00    -0.177 NA
ATOM     11  N   UNL     1      -2.975   6.309   6.030  0.00  0.00    -0.280 N 
ATOM     12  H   UNL     1      -3.204   5.528   6.770  0.00  0.00    +0.189 HD
ATOM     13  C   UNL     1      -1.483   9.310   4.548  0.00  0.00    +0.069 C 
ENDBRANCH   3   8
ENDBRANCH   1   3
BRANCH   1  14
ATOM     14  C   UNL     1      -2.375   5.520   1.396  0.00  0.00    +0.104 C 
BRANCH  14  15
ATOM     15  C   UNL     1      -1.571   5.086   0.168  0.00  0.00    +0.001 C 
BRANCH  15  16
ATOM     16  C   UNL     1      -1.519   3.558   0.108  0.00  0.00    -0.071 C 
ATOM     17  C   UNL     1      -0.823   3.123  -1.184  0.00  0.00    -0.016 C 
ATOM     18  C   UNL     1      -0.755   1.594  -1.231  0.00  0.00    -0.003 C 
ATOM     19  C   UNL     1      -0.013   1.086   0.008  0.00  0.00    -0.019 C 
ATOM     20  C   UNL     1      -0.731   1.580   1.266  0.00  0.00    -0.082 C 
ATOM     21  N   UNL     1      -0.770   3.048   1.264  0.00  0.00    +0.381 N 
ATOM     22  H   UNL     1       0.262   3.427   1.228  0.00  0.00    -0.086 HD
ATOM     23  H   UNL     1      -1.253   3.387   2.192  0.00  0.00    -0.086 HD
ENDBRANCH  15  16
ENDBRANCH  14  15
ENDBRANCH   1  14
TORSDOF 5
