REMARK  Name = ZINC59884624
REMARK  8 active torsions:
REMARK  status: ('A' for Active; 'I' for Inactive)
REMARK    1  A    between atoms: C_4  and  N_28
REMARK    2  A    between atoms: C_5  and  C_7
REMARK    3  A    between atoms: N_8  and  N_9
REMARK    4  A    between atoms: C_13  and  S_16
REMARK    5  A    between atoms: N_14  and  N_15
REMARK    6  A    between atoms: S_16  and  C_17
REMARK    7  A    between atoms: C_17  and  C_18
REMARK    8  A    between atoms: N_20  and  C_21
REMARK                            x       y       z     vdW  Elec       q    Type
REMARK                         _______ _______ _______ _____ _____    ______ ____
ROOT
ATOM      1  N   UNL     1       2.745  -5.132  -0.050  0.00  0.00    -0.204 N 
ATOM      2  C   UNL     1       3.875  -5.836   0.058  0.00  0.00    +0.254 A 
ATOM      3  N   UNL     1       5.122  -5.335   0.170  0.00  0.00    -0.109 NA
ATOM      4  N   UNL     1       5.968  -6.299   0.253  0.00  0.00    -0.119 NA
ATOM      5  C   UNL     1       5.315  -7.480   0.199  0.00  0.00    +0.210 A 
ATOM      6  N   UNL     1       3.981  -7.205   0.081  0.00  0.00    -0.211 N 
ATOM      7  H   UNL     1       1.893  -5.590  -0.121  0.00  0.00    +0.177 HD
ENDROOT
BRANCH   6   8
ATOM      8  N   UNL     1       2.960  -8.108   0.000  0.00  0.00    -0.294 N 
ATOM      9  H   UNL     1       2.773  -8.357  -0.960  0.00  0.00    +0.163 HD
ATOM     10  H   UNL     1       3.158  -8.928   0.554  0.00  0.00    +0.163 HD
ENDBRANCH   6   8
BRANCH   1  12
ATOM     11  C   UNL     1       1.675  -3.149  -0.165  0.00  0.00    +0.140 C 
ATOM     12  N   UNL     1       2.787  -3.842  -0.059  0.00  0.00    -0.187 NA
BRANCH  11  17
ATOM     13  C   UNL     1       2.993   0.358  -0.193  0.00  0.00    +0.001 A 
ATOM     14  C   UNL     1       1.813   1.085  -0.194  0.00  0.00    +0.002 A 
ATOM     15  C   UNL     1       0.589   0.436  -0.186  0.00  0.00    +0.033 A 
ATOM     16  C   UNL     1       0.534  -0.940  -0.176  0.00  0.00    +0.135 A 
ATOM     17  C   UNL     1       1.723  -1.685  -0.175  0.00  0.00    +0.025 A 
ATOM     18  C   UNL     1       2.959  -1.019  -0.184  0.00  0.00    +0.012 A 
BRANCH  16  19
ATOM     19  N   UNL     1      -0.776  -1.630  -0.167  0.00  0.00    +0.057 N 
ATOM     20  O   UNL     1      -1.887  -0.932  -0.060  0.00  0.00    -0.126 OA
ATOM     21  O   UNL     1      -0.829  -2.942  -0.266  0.00  0.00    -0.126 OA
ENDBRANCH  16  19
ENDBRANCH  11  17
ENDBRANCH   1  12
BRANCH   5  22
ATOM     22  S   UNL     1       6.004  -8.989   0.270  0.00  0.00    -0.075 S 
BRANCH  22  23
ATOM     23  C   UNL     1       7.779  -8.653   0.431  0.00  0.00    +0.173 C 
BRANCH  23  24
ATOM     24  C   UNL     1       8.532  -9.957   0.506  0.00  0.00    +0.228 C 
ATOM     25  O   UNL     1       7.930 -11.008   0.456  0.00  0.00    -0.275 OA
ATOM     26  N   UNL     1       9.874  -9.953   0.629  0.00  0.00    -0.284 N 
ATOM     27  H   UNL     1      10.348  -9.116   0.752  0.00  0.00    +0.155 HD
BRANCH  26  28
ATOM     28  C   UNL     1      10.585 -11.159   0.580  0.00  0.00    +0.047 A 
ATOM     29  C   UNL     1      10.048 -12.256  -0.082  0.00  0.00    +0.024 A 
ATOM     30  C   UNL     1      10.752 -13.443  -0.129  0.00  0.00    +0.002 A 
ATOM     31  C   UNL     1      11.989 -13.541   0.481  0.00  0.00    +0.001 A 
ATOM     32  C   UNL     1      12.526 -12.451   1.141  0.00  0.00    +0.017 A 
ATOM     33  C   UNL     1      11.830 -11.258   1.187  0.00  0.00    +0.039 A 
ATOM     34 BR   UNL     1      12.569  -9.765   2.083  0.00  0.00    -0.048 Br
ENDBRANCH  26  28
ENDBRANCH  23  24
ENDBRANCH  22  23
ENDBRANCH   5  22
TORSDOF 8
