REMARK  Name = ZINC67300421
REMARK  7 active torsions:
REMARK  status: ('A' for Active; 'I' for Inactive)
REMARK    1  A    between atoms: C_1  and  C_2
REMARK    2  A    between atoms: C_3  and  C_13
REMARK    3  A    between atoms: C_5  and  C_7
REMARK    4  A    between atoms: C_20  and  C_22
REMARK    5  A    between atoms: C_22  and  N_23
REMARK    6  A    between atoms: N_23  and  C_24
REMARK    7  A    between atoms: N_23  and  C_25
REMARK                            x       y       z     vdW  Elec       q    Type
REMARK                         _______ _______ _______ _____ _____    ______ ____
ROOT
ATOM      1  C   UNL     1      -0.665   0.587  -2.396  0.00  0.00    +0.255 C 
ATOM      2  O   UNL     1      -1.092   1.562  -2.985  0.00  0.00    -0.269 OA
ATOM      3  N   UNL     1       0.032  -0.354  -3.064  0.00  0.00    -0.296 N 
ATOM      4  C   UNL     1       0.416  -1.610  -2.406  0.00  0.00    +0.108 C 
ATOM      5  C   UNL     1      -0.070  -2.784  -3.261  0.00  0.00    +0.019 C 
ATOM      6  C   UNL     1       0.469  -2.630  -4.686  0.00  0.00    +0.003 C 
ATOM      7  C   UNL     1      -0.065  -1.332  -5.297  0.00  0.00    +0.021 C 
ATOM      8  C   UNL     1       0.417  -0.145  -4.467  0.00  0.00    +0.060 C 
ENDROOT
BRANCH   1  11
ATOM      9  C   UNL     1      -2.565   2.319  -0.622  0.00  0.00    +0.067 C 
ATOM     10  C   UNL     1      -1.735   1.167  -0.116  0.00  0.00    +0.058 A 
ATOM     11  C   UNL     1      -0.908   0.435  -0.958  0.00  0.00    +0.097 A 
ATOM     12  S   UNL     1      -0.224  -0.743   0.197  0.00  0.00    -0.059 S 
ATOM     13  C   UNL     1      -1.024  -0.208   1.577  0.00  0.00    +0.148 A 
ATOM     14  N   UNL     1      -1.751   0.807   1.140  0.00  0.00    -0.240 NA
BRANCH  13  15
ATOM     15  C   UNL     1      -0.933  -0.743   2.952  0.00  0.00    +0.206 A 
ATOM     16  N   UNL     1      -1.598  -0.275   4.019  0.00  0.00    -0.213 NA
ATOM     17  H   UNL     1       0.005  -2.589   5.287  0.00  0.00    +0.190 HD
ATOM     18  C   UNL     1      -1.286  -0.975   5.076  0.00  0.00    +0.216 A 
ATOM     19  N   UNL     1      -0.402  -1.923   4.711  0.00  0.00    -0.265 N 
ATOM     20  N   UNL     1      -0.190  -1.761   3.333  0.00  0.00    -0.150 NA
ENDBRANCH  13  15
ENDBRANCH   1  11
BRANCH   8  21
ATOM     21  C   UNL     1      -0.230   1.140  -4.989  0.00  0.00    -0.057 C 
BRANCH  21  22
ATOM     22  N   UNL     1       0.088   1.303  -6.414  0.00  0.00    +0.377 N 
ATOM     23  C   UNL     1      -0.942   0.639  -7.225  0.00  0.00    -0.097 C 
ATOM     24  C   UNL     1       0.127   2.733  -6.747  0.00  0.00    -0.097 C 
ATOM     25  H   UNL     1       0.988   0.888  -6.608  0.00  0.00    -0.083 HD
ENDBRANCH  21  22
ENDBRANCH   8  21
TORSDOF 4
