REMARK  Name = ZINC52913097
REMARK  7 active torsions:
REMARK  status: ('A' for Active; 'I' for Inactive)
REMARK    1  A    between atoms: C_1  and  C_2
REMARK    2  A    between atoms: C_2  and  O_3
REMARK    3  A    between atoms: O_3  and  C_4
REMARK    4  A    between atoms: C_12  and  C_14
REMARK    5  A    between atoms: C_14  and  C_16
REMARK    6  A    between atoms: C_14  and  S_17
REMARK    7  A    between atoms: S_17  and  C_18
REMARK                            x       y       z     vdW  Elec       q    Type
REMARK                         _______ _______ _______ _____ _____    ______ ____
ROOT
ATOM      1  C   UNL     1      -1.497  -1.836   0.006  0.00  0.00    +0.403 C 
ATOM      2  O   UNL     1      -0.523  -2.563  -0.007  0.00  0.00    -0.226 OA
ATOM      3  N   UNL     1      -2.735  -2.368   0.015  0.00  0.00    -0.264 N 
ATOM      4  C   UNL     1      -3.922  -1.501   0.025  0.00  0.00    +0.130 C 
ATOM      5  C   UNL     1      -4.815  -1.879  -1.162  0.00  0.00    +0.127 C 
ATOM      6  N   UNL     1      -5.003  -3.337  -1.163  0.00  0.00    -0.298 N 
ATOM      7  C   UNL     1      -3.817  -4.204  -1.173  0.00  0.00    +0.127 C 
ATOM      8  C   UNL     1      -2.923  -3.825   0.009  0.00  0.00    +0.130 C 
ATOM      9  C   UNL     1      -6.241  -3.869  -1.154  0.00  0.00    +0.229 C 
ATOM     10  O   UNL     1      -7.213  -3.143  -1.145  0.00  0.00    -0.274 OA
ENDROOT
BRANCH   9  11
ATOM     11  C   UNL     1      -6.418  -5.365  -1.154  0.00  0.00    +0.136 C 
ATOM     12  C   UNL     1      -6.241  -5.900  -2.577  0.00  0.00    +0.029 C 
BRANCH  11  13
ATOM     13  S   UNL     1      -8.081  -5.778  -0.557  0.00  0.00    -0.084 S 
BRANCH  13  14
ATOM     14  C   UNL     1      -8.080  -7.538  -0.476  0.00  0.00    +0.161 A 
ATOM     15  N   UNL     1      -7.114  -8.388  -0.766  0.00  0.00    -0.133 NA
ATOM     16  N   UNL     1      -7.329  -9.740  -0.630  0.00  0.00    -0.125 NA
ATOM     17  C   UNL     1      -8.498 -10.180  -0.210  0.00  0.00    +0.185 A 
ATOM     18  S   UNL     1      -9.385  -8.648   0.029  0.00  0.00    -0.024 S 
ATOM     19  N   UNL     1      -8.925 -11.487  -0.004  0.00  0.00    -0.308 N 
ATOM     20  C   UNL     1     -10.260 -11.888   0.464  0.00  0.00    +0.107 C 
ATOM     21  C   UNL     1     -10.265 -13.428   0.568  0.00  0.00    +0.020 C 
ATOM     22  C   UNL     1      -8.758 -13.773   0.696  0.00  0.00    +0.020 C 
ATOM     23  C   UNL     1      -8.117 -12.700  -0.223  0.00  0.00    +0.107 C 
ENDBRANCH  13  14
ENDBRANCH  11  13
ENDBRANCH   9  11
BRANCH   1  24
ATOM     24  O   UNL     1      -1.339  -0.499   0.012  0.00  0.00    -0.451 OA
BRANCH  24  26
ATOM     25  C   UNL     1      -0.019   1.526   0.010  0.00  0.00    +0.048 C 
ATOM     26  C   UNL     1       0.002  -0.004   0.002  0.00  0.00    +0.230 C 
ENDBRANCH  24  26
ENDBRANCH   1  24
TORSDOF 5
