REMARK  Name = ZINC38180209
REMARK  12 active torsions:
REMARK  status: ('A' for Active; 'I' for Inactive)
REMARK    1  A    between atoms: C_1  and  C_2
REMARK    2  A    between atoms: N_9  and  N_10
REMARK    3  A    between atoms: C_11  and  C_13
REMARK    4  A    between atoms: C_13  and  C_14
REMARK    5  A    between atoms: C_14  and  C_15
REMARK    6  A    between atoms: C_15  and  C_16
REMARK    7  A    between atoms: C_16  and  C_17
REMARK    8  A    between atoms: C_17  and  N_18
REMARK    9  A    between atoms: C_19  and  C_21
REMARK   10  A    between atoms: N_30  and  C_31
REMARK   11  A    between atoms: C_31  and  C_32
REMARK   12  A    between atoms: C_31  and  C_33
REMARK                            x       y       z     vdW  Elec       q    Type
REMARK                         _______ _______ _______ _____ _____    ______ ____
ROOT
ATOM      1  N   UNL     1       0.077  -4.009   4.423  0.00  0.00    -0.206 N 
ATOM      2  C   UNL     1       0.080  -3.804   5.755  0.00  0.00    +0.232 C 
ATOM      3  O   UNL     1       0.067  -2.675   6.195  0.00  0.00    -0.274 OA
ATOM      4  H   UNL     1       0.087  -4.913   4.071  0.00  0.00    +0.177 HD
ENDROOT
BRANCH   1  13
ATOM      5  C   UNL     1      -0.018   1.503   0.010  0.00  0.00    +0.044 C 
ATOM      6  C   UNL     1       0.002  -0.004   0.002  0.00  0.00    -0.050 A 
ATOM      7  C   UNL     1       0.006  -0.689  -1.201  0.00  0.00    +0.005 A 
ATOM      8  C   UNL     1       0.024  -2.069  -1.225  0.00  0.00    +0.024 A 
ATOM      9  C   UNL     1       0.039  -2.787  -0.034  0.00  0.00    +0.046 A 
ATOM     10  C   UNL     1       0.035  -2.090   1.181  0.00  0.00    +0.029 A 
ATOM     11  C   UNL     1       0.023  -0.700   1.194  0.00  0.00    +0.015 A 
ATOM     12  C   UNL     1       0.054  -3.115   2.251  0.00  0.00    +0.153 C 
ATOM     13  N   UNL     1       0.058  -2.916   3.547  0.00  0.00    -0.175 NA
ATOM     14  C   UNL     1       0.069  -4.409   1.539  0.00  0.00    +0.272 C 
ATOM     15  O   UNL     1       0.086  -5.511   2.056  0.00  0.00    -0.268 OA
ATOM     16  N   UNL     1       0.059  -4.154   0.220  0.00  0.00    -0.263 N 
BRANCH  16  17
ATOM     17  C   UNL     1       0.068  -5.186  -0.820  0.00  0.00    +0.076 C 
ATOM     18  C   UNL     1       1.330  -6.041  -0.679  0.00  0.00    +0.028 C 
ATOM     19  C   UNL     1      -1.169  -6.074  -0.668  0.00  0.00    +0.028 C 
ENDBRANCH  16  17
ENDBRANCH   1  13
BRANCH   2  20
ATOM     20  C   UNL     1       0.101  -4.980   6.698  0.00  0.00    +0.097 C 
BRANCH  20  21
ATOM     21  C   UNL     1       0.101  -4.476   8.142  0.00  0.00    +0.009 C 
BRANCH  21  22
ATOM     22  C   UNL     1       0.121  -5.669   9.099  0.00  0.00    +0.002 C 
BRANCH  22  23
ATOM     23  C   UNL     1       0.121  -5.165  10.544  0.00  0.00    +0.019 C 
BRANCH  23  24
ATOM     24  C   UNL     1       0.142  -6.358  11.501  0.00  0.00    +0.104 C 
BRANCH  24  25
ATOM     25  N   UNL     1       0.142  -5.875  12.884  0.00  0.00    -0.311 N 
ATOM     26  C   UNL     1       0.158  -6.755  13.905  0.00  0.00    +0.245 C 
ATOM     27  O   UNL     1       0.174  -7.949  13.678  0.00  0.00    -0.270 OA
ATOM     28  H   UNL     1       0.130  -4.922  13.065  0.00  0.00    +0.149 HD
BRANCH  26  29
ATOM     29  C   UNL     1       0.158  -6.268  15.300  0.00  0.00    +0.051 A 
ATOM     30  C   UNL     1       0.135  -4.897  15.564  0.00  0.00    +0.014 A 
ATOM     31  C   UNL     1       0.135  -4.449  16.868  0.00  0.00    +0.001 A 
ATOM     32  C   UNL     1       0.158  -5.354  17.915  0.00  0.00    +0.001 A 
ATOM     33  C   UNL     1       0.181  -6.713  17.662  0.00  0.00    +0.016 A 
ATOM     34  C   UNL     1       0.176  -7.176  16.360  0.00  0.00    +0.030 A 
ATOM     35 BR   UNL     1       0.199  -9.035  16.016  0.00  0.00    -0.050 Br
ENDBRANCH  26  29
ENDBRANCH  24  25
ENDBRANCH  23  24
ENDBRANCH  22  23
ENDBRANCH  21  22
ENDBRANCH  20  21
ENDBRANCH   2  20
TORSDOF 9
