REMARK  Name = ZINC22681308
REMARK  7 active torsions:
REMARK  status: ('A' for Active; 'I' for Inactive)
REMARK    1  A    between atoms: C_1  and  C_2
REMARK    2  A    between atoms: N_5  and  C_8
REMARK    3  A    between atoms: C_8  and  C_10
REMARK    4  A    between atoms: C_8  and  C_24
REMARK    5  A    between atoms: C_10  and  N_11
REMARK    6  A    between atoms: C_12  and  C_14
REMARK    7  A    between atoms: C_17  and  N_21
REMARK                            x       y       z     vdW  Elec       q    Type
REMARK                         _______ _______ _______ _____ _____    ______ ____
ROOT
ATOM      1  C   UNL     1      -4.921   3.832   0.127  0.00  0.00    +0.094 C 
ENDROOT
BRANCH   1   2
ATOM      2  N   UNL     1      -3.697   3.045   0.292  0.00  0.00    -0.313 N 
ATOM      3  C   UNL     1      -2.502   3.665   0.364  0.00  0.00    +0.244 C 
ATOM      4  O   UNL     1      -2.441   4.877   0.293  0.00  0.00    -0.270 OA
ATOM      5  H   UNL     1      -3.752   1.949   0.356  0.00  0.00    +0.149 HD
BRANCH   3   6
ATOM      6  C   UNL     1      -1.266   2.871   0.531  0.00  0.00    +0.040 A 
ATOM      7  C   UNL     1      -1.333   1.478   0.608  0.00  0.00    +0.015 A 
ATOM      8  C   UNL     1      -0.178   0.741   0.768  0.00  0.00    +0.037 A 
ATOM      9  C   UNL     1       1.048   1.375   0.843  0.00  0.00    +0.173 A 
ATOM     10  C   UNL     1       1.125   2.759   0.762  0.00  0.00    +0.210 A 
ATOM     11  C   UNL     1      -0.028   3.510   0.606  0.00  0.00    +0.066 A 
ATOM     12  O   UNL     1       2.333   3.377   0.837  0.00  0.00    -0.285 OA
BRANCH   9  13
ATOM     13  N   UNL     1       2.283   0.576   1.009  0.00  0.00    +0.060 N 
ATOM     14  O   UNL     1       2.218  -0.638   1.080  0.00  0.00    -0.126 OA
ATOM     15  O   UNL     1       3.364   1.133   1.075  0.00  0.00    -0.126 OA
ENDBRANCH   9  13
ENDBRANCH   3   6
ENDBRANCH   1   2
BRANCH   1  16
ATOM     16  C   UNL     1      -6.113   2.890  -0.051  0.00  0.00    -0.013 C 
BRANCH  16  21
ATOM     17  C   UNL     1      -5.814  -0.140  -4.889  0.00  0.00    +0.007 C 
ATOM     18  C   UNL     1      -6.218   0.883  -3.826  0.00  0.00    -0.018 C 
ATOM     19  C   UNL     1      -5.011   1.754  -3.468  0.00  0.00    -0.015 C 
ATOM     20  C   UNL     1      -5.404   2.734  -2.361  0.00  0.00    -0.078 C 
ATOM     21  N   UNL     1      -5.858   1.986  -1.182  0.00  0.00    +0.386 N 
ATOM     22  C   UNL     1      -7.046   1.180  -1.489  0.00  0.00    -0.078 C 
ATOM     23  C   UNL     1      -6.701   0.153  -2.570  0.00  0.00    -0.015 C 
ATOM     24  H   UNL     1      -5.051   1.298  -0.891  0.00  0.00    -0.081 HD
ENDBRANCH  16  21
BRANCH  16  25
ATOM     25  C   UNL     1      -7.356   3.697  -0.325  0.00  0.00    -0.022 A 
ATOM     26  C   UNL     1      -8.349   4.050   0.528  0.00  0.00    +0.009 A 
ATOM     27  C   UNL     1      -9.405   4.804   0.051  0.00  0.00    +0.008 A 
ATOM     28  C   UNL     1      -9.416   5.169  -1.254  0.00  0.00    +0.045 A 
ATOM     29  S   UNL     1      -7.898   4.444  -1.853  0.00  0.00    -0.103 S 
ENDBRANCH  16  25
ENDBRANCH   1  16
TORSDOF 6
