REMARK  Name = ZINC38872396
REMARK  6 active torsions:
REMARK  status: ('A' for Active; 'I' for Inactive)
REMARK    1  A    between atoms: C_3  and  C_9
REMARK    2  A    between atoms: C_11  and  C_14
REMARK    3  A    between atoms: C_14  and  N_15
REMARK    4  A    between atoms: C_18  and  C_21
REMARK    5  A    between atoms: N_23  and  C_24
REMARK    6  A    between atoms: C_24  and  C_25
REMARK                            x       y       z     vdW  Elec       q    Type
REMARK                         _______ _______ _______ _____ _____    ______ ____
ROOT
ATOM      1  N   UNL     1       7.752   2.310  -1.454  0.00  0.00    +0.386 N 
ATOM      2  C   UNL     1       7.523   3.610  -2.098  0.00  0.00    -0.077 C 
ATOM      3  C   UNL     1       7.934   3.534  -3.570  0.00  0.00    -0.006 C 
ATOM      4  C   UNL     1       9.420   3.172  -3.661  0.00  0.00    +0.071 C 
ATOM      5  C   UNL     1       9.660   1.852  -2.922  0.00  0.00    -0.006 C 
ATOM      6  C   UNL     1       9.184   1.990  -1.474  0.00  0.00    -0.077 C 
ATOM      7  H   UNL     1       7.242   1.596  -1.952  0.00  0.00    -0.081 HD
ENDROOT
BRANCH   4   8
ATOM      8  C   UNL     1       9.813   3.019  -5.107  0.00  0.00    +0.216 C 
ATOM      9  O   UNL     1       8.988   3.182  -5.981  0.00  0.00    -0.276 OA
ATOM     10  N   UNL     1      11.082   2.700  -5.430  0.00  0.00    -0.313 N 
ATOM     11  H   UNL     1      11.742   2.569  -4.732  0.00  0.00    +0.149 HD
BRANCH  10  12
ATOM     12  C   UNL     1      11.465   2.551  -6.837  0.00  0.00    +0.135 C 
BRANCH  12  13
ATOM     13  C   UNL     1      12.949   2.190  -6.926  0.00  0.00    +0.135 C 
ATOM     14  C   UNL     1      13.383   2.062  -8.408  0.00  0.00    +0.035 C 
ATOM     15  C   UNL     1      14.905   2.348  -8.295  0.00  0.00    +0.031 C 
ATOM     16  C   UNL     1      14.960   3.384  -7.151  0.00  0.00    +0.160 C 
ATOM     17  O   UNL     1      13.754   3.251  -6.387  0.00  0.00    -0.375 OA
ENDBRANCH  12  13
ENDBRANCH  10  12
ENDBRANCH   4   8
BRANCH   1  18
ATOM     18  C   UNL     1       7.283   2.365  -0.063  0.00  0.00    +0.022 C 
BRANCH  18  21
ATOM     19  C   UNL     1       3.659   2.168  -0.022  0.00  0.00    +0.203 A 
ATOM     20  N   UNL     1       4.892   1.629  -0.042  0.00  0.00    -0.193 NA
ATOM     21  C   UNL     1       5.790   2.572  -0.044  0.00  0.00    +0.211 A 
ATOM     22  O   UNL     1       5.164   3.756  -0.025  0.00  0.00    -0.340 OA
ATOM     23  N   UNL     1       3.773   3.473  -0.017  0.00  0.00    -0.056 NA
BRANCH  19  26
ATOM     24  C   UNL     1      -0.017   1.380   0.010  0.00  0.00    +0.021 A 
ATOM     25  C   UNL     1       1.167   2.089   0.002  0.00  0.00    +0.014 A 
ATOM     26  C   UNL     1       2.384   1.410  -0.013  0.00  0.00    +0.041 A 
ATOM     27  C   UNL     1       2.398   0.015  -0.021  0.00  0.00    +0.053 A 
ATOM     28  C   UNL     1       1.207  -0.685  -0.013  0.00  0.00    +0.040 A 
ATOM     29  C   UNL     1       0.002  -0.004   0.002  0.00  0.00    +0.042 A 
ATOM     30 CL   UNL     1      -1.491  -0.889   0.011  0.00  0.00    -0.083 Cl
ATOM     31 CL   UNL     1       3.909  -0.839  -0.040  0.00  0.00    -0.083 Cl
ENDBRANCH  19  26
ENDBRANCH  18  21
ENDBRANCH   1  18
TORSDOF 6
