REMARK  Name = ZINC32634758
REMARK  7 active torsions:
REMARK  status: ('A' for Active; 'I' for Inactive)
REMARK    1  A    between atoms: C_1  and  C_2
REMARK    2  A    between atoms: C_4  and  C_31
REMARK    3  A    between atoms: C_6  and  N_8
REMARK    4  A    between atoms: N_20  and  C_21
REMARK    5  A    between atoms: C_21  and  C_23
REMARK    6  A    between atoms: C_23  and  O_24
REMARK    7  A    between atoms: O_24  and  C_25
REMARK                            x       y       z     vdW  Elec       q    Type
REMARK                         _______ _______ _______ _____ _____    ______ ____
ROOT
ATOM      1  N   UNL     1       1.986   3.400   0.540  0.00  0.00    -0.276 N 
ATOM      2  C   UNL     1       1.476   2.137   0.034  0.00  0.00    +0.116 C 
ATOM      3  C   UNL     1      -0.019   1.820   0.087  0.00  0.00    +0.190 C 
ATOM      4  S   UNL     1       0.024  -0.032   0.109  0.00  0.00    -0.028 S 
ATOM      5  O   UNL     1      -0.649  -0.498   1.270  0.00  0.00    -0.174 OA
ATOM      6  O   UNL     1      -0.363  -0.520  -1.168  0.00  0.00    -0.174 OA
ATOM      7  C   UNL     1       1.853  -0.280   0.326  0.00  0.00    +0.182 C 
ATOM      8  C   UNL     1       2.174   1.059   0.944  0.00  0.00    +0.097 C 
ATOM      9  S   UNL     1       3.844   1.740   0.878  0.00  0.00    -0.086 S 
ATOM     10  C   UNL     1       3.385   3.407   0.528  0.00  0.00    +0.154 C 
ATOM     11  N   UNL     1       4.190   4.442   0.315  0.00  0.00    -0.156 NA
ENDROOT
BRANCH   1  17
ATOM     12  C   UNL     1      -1.261   6.951  -0.470  0.00  0.00    +0.044 C 
ATOM     13  C   UNL     1      -0.396   6.201   0.510  0.00  0.00    -0.048 A 
ATOM     14  C   UNL     1      -0.391   6.563   1.845  0.00  0.00    +0.006 A 
ATOM     15  C   UNL     1       0.402   5.877   2.747  0.00  0.00    -0.048 A 
ATOM     16  C   UNL     1       1.190   4.828   2.318  0.00  0.00    +0.027 A 
ATOM     17  C   UNL     1       1.188   4.462   0.978  0.00  0.00    +0.036 A 
ATOM     18  C   UNL     1       0.395   5.156   0.073  0.00  0.00    +0.027 A 
ATOM     19  C   UNL     1       0.404   6.275   4.201  0.00  0.00    +0.044 C 
ENDBRANCH   1  17
BRANCH  11  20
ATOM     20  C   UNL     1       5.510   4.274   0.340  0.00  0.00    +0.276 C 
ATOM     21  O   UNL     1       5.979   3.174   0.557  0.00  0.00    -0.270 OA
BRANCH  20  22
ATOM     22  C   UNL     1       6.423   5.448   0.098  0.00  0.00    +0.326 C 
BRANCH  22  23
ATOM     23  O   UNL     1       7.783   5.018   0.174  0.00  0.00    -0.483 OA
BRANCH  23  24
ATOM     24  C   UNL     1       8.742   5.961  -0.022  0.00  0.00    +0.121 A 
ATOM     25  C   UNL     1       8.380   7.274  -0.288  0.00  0.00    +0.045 A 
ATOM     26  C   UNL     1       9.356   8.232  -0.482  0.00  0.00    +0.004 A 
ATOM     27  C   UNL     1      10.692   7.882  -0.421  0.00  0.00    +0.000 A 
ATOM     28  C   UNL     1      11.055   6.574  -0.161  0.00  0.00    +0.004 A 
ATOM     29  C   UNL     1      10.083   5.612   0.039  0.00  0.00    +0.045 A 
ENDBRANCH  23  24
ENDBRANCH  22  23
ENDBRANCH  20  22
ENDBRANCH  11  20
TORSDOF 5
