REMARK  Name = ZINC48186517
REMARK  11 active torsions:
REMARK  status: ('A' for Active; 'I' for Inactive)
REMARK    1  A    between atoms: C_1  and  C_2
REMARK    2  A    between atoms: C_5  and  C_7
REMARK    3  A    between atoms: C_7  and  C_9
REMARK    4  A    between atoms: C_7  and  S_10
REMARK    5  A    between atoms: S_10  and  C_11
REMARK    6  A    between atoms: C_14  and  C_17
REMARK    7  A    between atoms: N_15  and  N_16
REMARK    8  A    between atoms: C_20  and  C_23
REMARK    9  A    between atoms: C_23  and  C_24
REMARK   10  A    between atoms: C_23  and  C_25
REMARK   11  A    between atoms: C_23  and  C_26
REMARK                            x       y       z     vdW  Elec       q    Type
REMARK                         _______ _______ _______ _____ _____    ______ ____
ROOT
ATOM      1  C   UNL     1      -1.104  -5.846   1.927  0.00  0.00    +0.209 A 
ATOM      2  N   UNL     1      -0.369  -5.919   3.014  0.00  0.00    -0.121 NA
ATOM      3  N   UNL     1      -0.589  -7.029   3.622  0.00  0.00    -0.127 NA
ATOM      4  C   UNL     1      -1.478  -7.733   2.961  0.00  0.00    +0.182 A 
ATOM      5  N   UNL     1      -1.840  -6.994   1.859  0.00  0.00    -0.224 N 
ENDROOT
BRANCH   4   6
ATOM      6  C   UNL     1      -1.998  -9.066   3.335  0.00  0.00    +0.021 A 
ATOM      7  C   UNL     1      -2.689  -9.836   2.398  0.00  0.00    +0.012 A 
ATOM      8  C   UNL     1      -3.171 -11.079   2.753  0.00  0.00    +0.005 A 
ATOM      9  C   UNL     1      -2.971 -11.563   4.034  0.00  0.00    -0.042 A 
ATOM     10  C   UNL     1      -2.287 -10.804   4.967  0.00  0.00    +0.005 A 
ATOM     11  C   UNL     1      -1.795  -9.562   4.624  0.00  0.00    +0.012 A 
BRANCH   9  12
ATOM     12  C   UNL     1      -3.500 -12.921   4.414  0.00  0.00    -0.013 C 
ATOM     13  C   UNL     1      -2.870 -13.985   3.513  0.00  0.00    +0.015 C 
ATOM     14  C   UNL     1      -3.147 -13.216   5.874  0.00  0.00    +0.015 C 
ATOM     15  C   UNL     1      -5.020 -12.943   4.243  0.00  0.00    +0.015 C 
ENDBRANCH   9  12
ENDBRANCH   4   6
BRANCH   5  16
ATOM     16  N   UNL     1      -2.744  -7.338   0.895  0.00  0.00    -0.295 N 
ATOM     17  H   UNL     1      -2.297  -7.840   0.142  0.00  0.00    +0.163 HD
ATOM     18  H   UNL     1      -3.504  -7.875   1.286  0.00  0.00    +0.163 HD
ENDBRANCH   5  16
BRANCH   1  19
ATOM     19  S   UNL     1      -1.140  -4.511   0.777  0.00  0.00    -0.072 S 
BRANCH  19  20
ATOM     20  C   UNL     1       0.055  -3.322   1.448  0.00  0.00    +0.139 C 
ATOM     21  C   UNL     1       1.457  -3.934   1.412  0.00  0.00    +0.029 C 
BRANCH  20  26
ATOM     22  C   UNL     1      -0.018   1.503   0.010  0.00  0.00    +0.111 C 
ATOM     23  C   UNL     1       0.002  -0.004   0.002  0.00  0.00    +0.214 A 
ATOM     24  N   UNL     1       0.008  -0.769  -1.052  0.00  0.00    -0.113 NA
ATOM     25  N   UNL     1       0.027  -2.002  -0.685  0.00  0.00    -0.111 NA
ATOM     26  C   UNL     1       0.034  -2.066   0.616  0.00  0.00    +0.230 A 
ATOM     27  O   UNL     1       0.023  -0.805   1.081  0.00  0.00    -0.424 OA
ENDBRANCH  20  26
ENDBRANCH  19  20
ENDBRANCH   1  19
TORSDOF 6
