REMARK  Name = ZINC39695139
REMARK  10 active torsions:
REMARK  status: ('A' for Active; 'I' for Inactive)
REMARK    1  A    between atoms: C_1  and  C_2
REMARK    2  A    between atoms: C_3  and  C_9
REMARK    3  A    between atoms: C_9  and  N_10
REMARK    4  A    between atoms: C_11  and  C_13
REMARK    5  A    between atoms: C_24  and  C_26
REMARK    6  A    between atoms: C_26  and  C_28
REMARK    7  A    between atoms: C_26  and  O_31
REMARK    8  A    between atoms: C_28  and  C_29
REMARK    9  A    between atoms: C_28  and  C_30
REMARK   10  A    between atoms: O_31  and  C_32
REMARK                            x       y       z     vdW  Elec       q    Type
REMARK                         _______ _______ _______ _____ _____    ______ ____
ROOT
ATOM      1  C   UNL     1       2.933   1.771  -4.344  0.00  0.00    +0.100 C 
ATOM      2  C   UNL     1       3.905   0.570  -4.370  0.00  0.00    +0.121 C 
ATOM      3  N   UNL     1       4.019   0.212  -5.804  0.00  0.00    -0.297 N 
ATOM      4  C   UNL     1       4.050   1.516  -6.508  0.00  0.00    +0.115 C 
ATOM      5  C   UNL     1       3.034   2.391  -5.747  0.00  0.00    -0.004 C 
ATOM      6  C   UNL     1       1.677   2.348  -6.443  0.00  0.00    -0.010 C 
ATOM      7  C   UNL     1       1.790   3.021  -7.814  0.00  0.00    -0.082 C 
ATOM      8  N   UNL     1       2.231   4.411  -7.643  0.00  0.00    +0.379 N 
ATOM      9  C   UNL     1       3.576   4.442  -7.058  0.00  0.00    -0.082 C 
ATOM     10  C   UNL     1       3.539   3.828  -5.656  0.00  0.00    -0.010 C 
ATOM     11  C   UNL     1       4.081  -1.021  -6.345  0.00  0.00    +0.257 C 
ATOM     12  O   UNL     1       4.174  -1.151  -7.547  0.00  0.00    -0.272 OA
ATOM     13  H   UNL     1       2.245   4.870  -8.542  0.00  0.00    -0.086 HD
ATOM     14  H   UNL     1       1.589   4.893  -7.033  0.00  0.00    -0.086 HD
ENDROOT
BRANCH   1  16
ATOM     15  N   UNL     1       0.659   2.107  -3.432  0.00  0.00    -0.311 N 
ATOM     16  C   UNL     1       1.526   1.302  -4.077  0.00  0.00    +0.218 C 
ATOM     17  O   UNL     1       1.175   0.200  -4.443  0.00  0.00    -0.275 OA
ATOM     18  H   UNL     1       0.940   2.988  -3.139  0.00  0.00    +0.149 HD
BRANCH  15  19
ATOM     19  C   UNL     1      -0.709   1.651  -3.173  0.00  0.00    +0.139 C 
BRANCH  19  22
ATOM     20  C   UNL     1      -1.808   3.886  -4.638  0.00  0.00    +0.045 C 
ATOM     21  C   UNL     1      -1.995   3.798  -3.145  0.00  0.00    -0.027 A 
ATOM     22  C   UNL     1      -1.469   2.729  -2.444  0.00  0.00    -0.026 A 
ATOM     23  C   UNL     1      -1.640   2.649  -1.075  0.00  0.00    +0.005 A 
ATOM     24  C   UNL     1      -2.337   3.638  -0.405  0.00  0.00    +0.002 A 
ATOM     25  C   UNL     1      -2.863   4.707  -1.105  0.00  0.00    +0.020 A 
ATOM     26  C   UNL     1      -2.687   4.791  -2.475  0.00  0.00    +0.044 A 
ATOM     27 CL   UNL     1      -3.342   6.137  -3.354  0.00  0.00    -0.083 Cl
ENDBRANCH  19  22
ENDBRANCH  15  19
ENDBRANCH   1  16
BRANCH  11  28
ATOM     28  C   UNL     1       4.034  -2.237  -5.456  0.00  0.00    +0.261 C 
BRANCH  28  29
ATOM     29  C   UNL     1       5.278  -2.267  -4.566  0.00  0.00    +0.033 C 
ATOM     30  C   UNL     1       5.230  -3.502  -3.664  0.00  0.00    +0.011 C 
ATOM     31  C   UNL     1       6.531  -2.324  -5.443  0.00  0.00    +0.011 C 
ENDBRANCH  28  29
BRANCH  28  32
ATOM     32  O   UNL     1       3.997  -3.416  -6.264  0.00  0.00    -0.479 OA
BRANCH  32  33
ATOM     33  C   UNL     1       3.292  -4.472  -5.781  0.00  0.00    +0.122 A 
ATOM     34  C   UNL     1       2.578  -4.349  -4.598  0.00  0.00    +0.045 A 
ATOM     35  C   UNL     1       1.861  -5.425  -4.109  0.00  0.00    +0.004 A 
ATOM     36  C   UNL     1       1.856  -6.623  -4.798  0.00  0.00    +0.000 A 
ATOM     37  C   UNL     1       2.568  -6.749  -5.977  0.00  0.00    +0.004 A 
ATOM     38  C   UNL     1       3.280  -5.675  -6.473  0.00  0.00    +0.045 A 
ENDBRANCH  32  33
ENDBRANCH  28  32
ENDBRANCH  11  28
TORSDOF 7
