REMARK  Name = ZINC44183790
REMARK  6 active torsions:
REMARK  status: ('A' for Active; 'I' for Inactive)
REMARK    1  A    between atoms: C_1  and  O_2
REMARK    2  A    between atoms: O_2  and  C_3
REMARK    3  A    between atoms: C_8  and  C_9
REMARK    4  A    between atoms: C_9  and  C_11
REMARK    5  A    between atoms: C_9  and  O_22
REMARK    6  A    between atoms: C_11  and  N_12
REMARK                            x       y       z     vdW  Elec       q    Type
REMARK                         _______ _______ _______ _____ _____    ______ ____
ROOT
ATOM      1  C   UNL     1       0.018  -2.829  -0.013  0.00  0.00    +0.169 C 
ENDROOT
BRANCH   1   7
ATOM      2  C   UNL     1      -1.200  -0.637   0.010  0.00  0.00    +0.126 A 
ATOM      3  C   UNL     1      -2.375   0.101   0.019  0.00  0.00    +0.046 A 
ATOM      4  C   UNL     1      -3.596  -0.545   0.027  0.00  0.00    +0.004 A 
ATOM      5  C   UNL     1      -3.648  -1.927   0.026  0.00  0.00    +0.001 A 
ATOM      6  C   UNL     1      -2.479  -2.665   0.017  0.00  0.00    +0.010 A 
ATOM      7  C   UNL     1      -1.255  -2.023   0.003  0.00  0.00    +0.024 A 
BRANCH   2   9
ATOM      8  C   UNL     1      -0.017   1.425   0.010  0.00  0.00    +0.277 C 
ATOM      9  O   UNL     1       0.002  -0.004   0.002  0.00  0.00    -0.495 OA
ENDBRANCH   2   9
ENDBRANCH   1   7
BRANCH   1  10
ATOM     10  O   UNL     1      -0.237  -4.112  -0.587  0.00  0.00    -0.385 OA
ATOM     11  H   UNL     1      -0.897  -4.633  -0.109  0.00  0.00    +0.210 HD
ENDBRANCH   1  10
BRANCH   1  12
ATOM     12  C   UNL     1       0.530  -3.003   1.419  0.00  0.00    +0.185 C 
BRANCH  12  13
ATOM     13  N   UNL     1       1.828  -3.682   1.394  0.00  0.00    -0.209 N 
ATOM     14  C   UNL     1       3.036  -3.087   1.324  0.00  0.00    +0.351 A 
ATOM     15  O   UNL     1       3.244  -1.887   1.270  0.00  0.00    -0.244 OA
ATOM     16  N   UNL     1       3.975  -4.055   1.326  0.00  0.00    -0.251 N 
ATOM     17  C   UNL     1       5.347  -4.002   1.270  0.00  0.00    +0.098 A 
ATOM     18  C   UNL     1       6.079  -5.129   1.285  0.00  0.00    +0.018 A 
ATOM     19  C   UNL     1       5.453  -6.390   1.358  0.00  0.00    +0.005 A 
ATOM     20  C   UNL     1       4.101  -6.470   1.415  0.00  0.00    +0.049 A 
ATOM     21  C   UNL     1       3.334  -5.278   1.398  0.00  0.00    +0.162 A 
ATOM     22  N   UNL     1       2.039  -5.066   1.446  0.00  0.00    -0.149 NA
ENDBRANCH  12  13
ENDBRANCH   1  12
TORSDOF 5
