REMARK  Name = ZINC15069801
REMARK  7 active torsions:
REMARK  status: ('A' for Active; 'I' for Inactive)
REMARK    1  A    between atoms: C_1  and  N_2
REMARK    2  A    between atoms: N_2  and  C_3
REMARK    3  A    between atoms: C_3  and  C_4
REMARK    4  A    between atoms: C_14  and  C_16
REMARK    5  A    between atoms: C_20  and  C_25
REMARK    6  A    between atoms: C_25  and  O_34
REMARK    7  A    between atoms: C_30  and  N_66
REMARK                            x       y       z     vdW  Elec       q    Type
REMARK                         _______ _______ _______ _____ _____    ______ ____
ROOT
ATOM      1  C   UNL     1       7.242   4.844   1.473  0.00  0.00    +0.191 A 
ATOM      2  C   UNL     1       5.919   5.095   1.649  0.00  0.00    +0.063 A 
ATOM      3  C   UNL     1       5.208   4.042   0.925  0.00  0.00    +0.021 A 
ATOM      4  C   UNL     1       3.859   3.744   0.717  0.00  0.00    +0.018 A 
ATOM      5  C   UNL     1       3.513   2.652  -0.027  0.00  0.00    -0.015 A 
ATOM      6  C   UNL     1       4.494   1.843  -0.586  0.00  0.00    +0.010 A 
ATOM      7  C   UNL     1       5.830   2.122  -0.397  0.00  0.00    +0.047 A 
ATOM      8  C   UNL     1       6.205   3.225   0.361  0.00  0.00    +0.136 A 
ATOM      9  O   UNL     1       7.400   3.740   0.713  0.00  0.00    -0.450 OA
ENDROOT
BRANCH   5  10
ATOM     10  C   UNL     1       2.059   2.326  -0.248  0.00  0.00    +0.088 C 
ATOM     11  C   UNL     1       1.562   3.027  -1.515  0.00  0.00    +0.021 C 
ATOM     12  C   UNL     1       0.102   2.644  -1.766  0.00  0.00    -0.075 C 
ATOM     13  C   UNL     1       0.423   0.493  -0.695  0.00  0.00    -0.075 C 
ATOM     14  C   UNL     1       1.893   0.812  -0.413  0.00  0.00    +0.021 C 
ATOM     15  N   UNL     1       0.014   1.178  -1.940  0.00  0.00    +0.382 N 
ATOM     16  H   UNL     1       0.645   0.894  -2.699  0.00  0.00    -0.081 HD
BRANCH  15  17
ATOM     17  C   UNL     1      -1.368   0.795  -2.296  0.00  0.00    -0.069 C 
ATOM     18  C   UNL     1      -2.301   0.573  -1.095  0.00  0.00    -0.015 C 
ATOM     19  C   UNL     1      -2.869  -0.635  -1.859  0.00  0.00    -0.003 C 
ATOM     20  C   UNL     1      -1.518  -0.707  -2.590  0.00  0.00    -0.015 C 
ENDBRANCH  15  17
BRANCH  10  21
ATOM     21  O   UNL     1       1.294   2.771   0.875  0.00  0.00    -0.384 OA
ATOM     22  H   UNL     1       1.353   3.722   1.038  0.00  0.00    +0.211 HD
ENDBRANCH  10  21
ENDBRANCH   5  10
BRANCH   1  25
ATOM     23  C   UNL     1       9.913   4.009   1.159  0.00  0.00    +0.133 C 
ATOM     24  N   UNL     1       9.613   5.234   1.905  0.00  0.00    -0.294 N 
ATOM     25  C   UNL     1       8.338   5.652   2.028  0.00  0.00    +0.282 C 
ATOM     26  O   UNL     1       8.093   6.699   2.598  0.00  0.00    -0.267 OA
BRANCH  24  27
ATOM     27  C   UNL     1      10.698   6.004   2.517  0.00  0.00    +0.145 C 
BRANCH  27  28
ATOM     28  C   UNL     1      10.937   5.508   3.920  0.00  0.00    -0.004 A 
ATOM     29  C   UNL     1      10.423   6.188   4.981  0.00  0.00    +0.007 A 
ATOM     30  C   UNL     1      10.631   5.748   6.287  0.00  0.00    +0.001 A 
ATOM     31  C   UNL     1      11.355   4.622   6.537  0.00  0.00    +0.010 A 
ATOM     32  C   UNL     1      11.900   3.895   5.466  0.00  0.00    +0.001 A 
ATOM     33  C   UNL     1      11.685   4.338   4.138  0.00  0.00    +0.076 A 
ATOM     34  N   UNL     1      12.196   3.646   3.114  0.00  0.00    -0.255 NA
ATOM     35  C   UNL     1      12.894   2.554   3.312  0.00  0.00    +0.111 A 
ATOM     36  C   UNL     1      13.137   2.060   4.592  0.00  0.00    +0.020 A 
ATOM     37  C   UNL     1      12.654   2.726   5.682  0.00  0.00    +0.011 A 
ENDBRANCH  27  28
ENDBRANCH  24  27
ENDBRANCH   1  25
TORSDOF 6
