REMARK  Name = ZINC67375280
REMARK  5 active torsions:
REMARK  status: ('A' for Active; 'I' for Inactive)
REMARK    1  A    between atoms: C_1  and  C_2
REMARK    2  A    between atoms: N_11  and  C_12
REMARK    3  A    between atoms: C_12  and  C_13
REMARK    4  A    between atoms: C_15  and  C_18
REMARK    5  A    between atoms: C_18  and  C_19
REMARK                            x       y       z     vdW  Elec       q    Type
REMARK                         _______ _______ _______ _____ _____    ______ ____
ROOT
ATOM      1  C   UNL     1       0.734  -0.602   3.613  0.00  0.00    +0.211 A 
ATOM      2  N   UNL     1       1.550   0.170   4.275  0.00  0.00    -0.197 NA
ATOM      3  C   UNL     1       2.084  -0.501   5.303  0.00  0.00    +0.176 A 
ATOM      4  N   UNL     1       1.612  -1.714   5.306  0.00  0.00    -0.061 NA
ATOM      5  O   UNL     1       0.717  -1.802   4.207  0.00  0.00    -0.340 OA
ENDROOT
BRANCH   1   6
ATOM      6  C   UNL     1      -0.059  -0.209   2.393  0.00  0.00    +0.023 C 
BRANCH   6  16
ATOM      7  C   UNL     1      -0.019   1.526   0.010  0.00  0.00    -0.007 C 
ATOM      8  C   UNL     1       0.002  -0.004   0.002  0.00  0.00    -0.023 C 
ATOM      9  C   UNL     1       0.721  -0.497  -1.230  0.00  0.00    +0.005 A 
ATOM     10  C   UNL     1       0.605  -0.057  -2.492  0.00  0.00    +0.021 A 
ATOM     11  C   UNL     1       1.483  -0.825  -3.286  0.00  0.00    +0.019 A 
ATOM     12  C   UNL     1       2.100  -1.708  -2.472  0.00  0.00    +0.086 A 
ATOM     13  N   UNL     1       1.637  -1.516  -1.211  0.00  0.00    -0.354 N 
ATOM     14  C   UNL     1       2.005  -2.240   0.012  0.00  0.00    +0.103 C 
ATOM     15  C   UNL     1       0.937  -1.948   1.074  0.00  0.00    -0.055 C 
ATOM     16  N   UNL     1       0.726  -0.498   1.186  0.00  0.00    +0.392 N 
ATOM     17  H   UNL     1       1.620  -0.034   1.250  0.00  0.00    -0.080 HD
ENDBRANCH   6  16
ENDBRANCH   1   6
BRANCH   3  18
ATOM     18  C   UNL     1       3.073   0.057   6.294  0.00  0.00    +0.114 C 
BRANCH  18  19
ATOM     19  C   UNL     1       2.330   0.664   7.456  0.00  0.00    -0.039 A 
ATOM     20  C   UNL     1       1.959   1.996   7.420  0.00  0.00    +0.004 A 
ATOM     21  C   UNL     1       1.278   2.553   8.486  0.00  0.00    +0.001 A 
ATOM     22  C   UNL     1       0.968   1.779   9.589  0.00  0.00    +0.015 A 
ATOM     23  C   UNL     1       1.339   0.447   9.626  0.00  0.00    +0.018 A 
ATOM     24  C   UNL     1       2.017  -0.111   8.556  0.00  0.00    +0.019 A 
ATOM     25 BR   UNL     1       0.917  -0.611  11.135  0.00  0.00    -0.050 Br
ENDBRANCH  18  19
ENDBRANCH   3  18
TORSDOF 4
