REMARK  Name = ZINC63641765
REMARK  4 active torsions:
REMARK  status: ('A' for Active; 'I' for Inactive)
REMARK    1  A    between atoms: C_8  and  C_16
REMARK    2  A    between atoms: C_18  and  O_30
REMARK    3  A    between atoms: C_21  and  S_29
REMARK    4  A    between atoms: N_23  and  C_26
REMARK                            x       y       z     vdW  Elec       q    Type
REMARK                         _______ _______ _______ _____ _____    ______ ____
ROOT
ATOM      1  C   UNL     1      -0.077   0.793  -0.381  0.00  0.00    +0.001 A 
ATOM      2  C   UNL     1       0.959   1.727  -0.239  0.00  0.00    +0.002 A 
ATOM      3  C   UNL     1       2.255   1.366  -0.135  0.00  0.00    +0.026 A 
ATOM      4  C   UNL     1       2.626  -0.005  -0.165  0.00  0.00    +0.043 A 
ATOM      5  N   UNL     1       3.795  -0.597  -0.059  0.00  0.00    -0.376 N 
ATOM      6  C   UNL     1       3.607  -2.030  -0.252  0.00  0.00    +0.124 C 
ATOM      7  C   UNL     1       4.141  -2.859   0.920  0.00  0.00    +0.096 C 
ATOM      8  N   UNL     1       3.651  -4.238   0.773  0.00  0.00    -0.310 NA
ATOM      9  C   UNL     1       2.198  -4.356   0.933  0.00  0.00    +0.085 C 
ATOM     10  C   UNL     1       1.480  -3.611  -0.207  0.00  0.00    +0.048 C 
ATOM     11  C   UNL     1       2.101  -2.235  -0.297  0.00  0.00    -0.036 C 
ATOM     12  C   UNL     1       1.548  -1.016  -0.304  0.00  0.00    -0.001 A 
ATOM     13  C   UNL     1       0.165  -0.536  -0.417  0.00  0.00    +0.010 A 
ATOM     14  H   UNL     1       3.951  -4.638  -0.103  0.00  0.00    +0.122 HD
ATOM     15  H   UNL     1       4.640  -0.154   0.119  0.00  0.00    +0.160 HD
ENDROOT
BRANCH   7  16
ATOM     16  C   UNL     1       3.638  -2.269   2.239  0.00  0.00    +0.138 C 
ATOM     17  C   UNL     1       4.267  -0.890   2.454  0.00  0.00    +0.198 C 
ATOM     18  N   UNL     1       3.999  -0.467   3.839  0.00  0.00    -0.264 NA
ATOM     19  C   UNL     1       4.755  -1.298   4.783  0.00  0.00    +0.203 C 
ATOM     20  N   UNL     1       4.514  -2.714   4.528  0.00  0.00    -0.274 N 
ATOM     21  C   UNL     1       4.024  -3.178   3.374  0.00  0.00    +0.226 C 
ATOM     22  O   UNL     1       3.885  -4.375   3.237  0.00  0.00    -0.275 OA
ATOM     23  H   UNL     1       4.213   0.511   3.966  0.00  0.00    +0.127 HD
BRANCH  20  24
ATOM     24  C   UNL     1       4.825  -3.675   5.589  0.00  0.00    +0.078 C 
ATOM     25  C   UNL     1       5.321  -3.117   6.924  0.00  0.00    +0.024 C 
ATOM     26  C   UNL     1       6.293  -3.837   5.987  0.00  0.00    +0.024 C 
ENDBRANCH  20  24
BRANCH  19  27
ATOM     27  S   UNL     1       6.526  -0.951   4.601  0.00  0.00    -0.140 S 
ATOM     28  H   UNL     1       6.631   0.360   4.880  0.00  0.00    +0.105 HD
ENDBRANCH  19  27
BRANCH  17  29
ATOM     29  O   UNL     1       5.677  -0.964   2.234  0.00  0.00    -0.377 OA
ATOM     30  H   UNL     1       6.138  -0.123   2.354  0.00  0.00    +0.211 HD
ENDBRANCH  17  29
ENDBRANCH   7  16
TORSDOF 4
