REMARK  Name = ZINC32797334
REMARK  9 active torsions:
REMARK  status: ('A' for Active; 'I' for Inactive)
REMARK    1  A    between atoms: C_1  and  C_2
REMARK    2  A    between atoms: C_2  and  N_3
REMARK    3  A    between atoms: C_5  and  C_14
REMARK    4  A    between atoms: C_14  and  N_15
REMARK    5  A    between atoms: N_15  and  C_16
REMARK    6  A    between atoms: N_15  and  C_17
REMARK    7  A    between atoms: C_17  and  C_18
REMARK    8  A    between atoms: N_24  and  C_25
REMARK    9  A    between atoms: C_30  and  C_31
REMARK                            x       y       z     vdW  Elec       q    Type
REMARK                         _______ _______ _______ _____ _____    ______ ____
ROOT
ATOM      1  C   UNL     1       0.007   0.208  -0.145  0.00  0.00    +0.120 A 
ATOM      2  N   UNL     1       1.101  -0.475  -0.438  0.00  0.00    -0.202 NA
ATOM      3  C   UNL     1       2.185   0.159  -0.878  0.00  0.00    +0.217 A 
ATOM      4  N   UNL     1       2.167   1.480  -1.023  0.00  0.00    -0.181 NA
ATOM      5  C   UNL     1       1.066   2.162  -0.729  0.00  0.00    +0.224 A 
ATOM      6  N   UNL     1      -0.015   1.521  -0.289  0.00  0.00    -0.201 NA
ATOM      7  N   UNL     1       1.042   3.535  -0.879  0.00  0.00    -0.283 N 
ATOM      8  N   UNL     1       3.327  -0.554  -1.182  0.00  0.00    -0.327 N 
ATOM      9  H   UNL     1       0.103   4.088  -0.732  0.00  0.00    +0.155 HD
ATOM     10  H   UNL     1       4.223  -0.029  -1.546  0.00  0.00    +0.145 HD
ATOM     11  H   UNL     1       3.341  -1.647  -1.061  0.00  0.00    +0.145 HD
ENDROOT
BRANCH   7  12
ATOM     12  C   UNL     1       2.212   4.222  -1.218  0.00  0.00    +0.036 A 
ATOM     13  C   UNL     1       3.451   3.708  -0.856  0.00  0.00    +0.023 A 
ATOM     14  C   UNL     1       4.604   4.386  -1.198  0.00  0.00    +0.002 A 
ATOM     15  C   UNL     1       4.527   5.581  -1.889  0.00  0.00    +0.000 A 
ATOM     16  C   UNL     1       3.296   6.098  -2.247  0.00  0.00    +0.005 A 
ATOM     17  C   UNL     1       2.138   5.422  -1.913  0.00  0.00    -0.029 A 
ATOM     18  C   UNL     1       0.796   5.986  -2.304  0.00  0.00    +0.045 C 
ENDBRANCH   7  12
BRANCH   1  19
ATOM     19  C   UNL     1      -1.218  -0.514   0.353  0.00  0.00    -0.001 C 
BRANCH  19  20
ATOM     20  N   UNL     1      -2.058  -0.899  -0.789  0.00  0.00    +0.385 N 
ATOM     21  C   UNL     1      -1.381  -1.897  -1.628  0.00  0.00    -0.095 C 
ATOM     22  H   UNL     1      -2.227  -0.001  -1.402  0.00  0.00    -0.081 HD
BRANCH  20  23
ATOM     23  C   UNL     1      -3.367  -1.390  -0.339  0.00  0.00    -0.032 C 
BRANCH  23  26
ATOM     24  N   UNL     1      -6.402   0.436   1.008  0.00  0.00    -0.324 N 
ATOM     25  C   UNL     1      -5.614  -0.710   0.538  0.00  0.00    +0.147 C 
ATOM     26  C   UNL     1      -4.236  -0.207   0.090  0.00  0.00    +0.174 C 
ATOM     27  O   UNL     1      -4.431   0.678  -1.019  0.00  0.00    -0.487 OA
ATOM     28  C   UNL     1      -5.425   1.600  -0.898  0.00  0.00    +0.142 A 
ATOM     29  C   UNL     1      -6.399   1.489   0.087  0.00  0.00    +0.072 A 
ATOM     30  C   UNL     1      -7.404   2.447   0.169  0.00  0.00    +0.027 A 
ATOM     31  C   UNL     1      -7.432   3.503  -0.720  0.00  0.00    +0.002 A 
ATOM     32  C   UNL     1      -6.460   3.613  -1.697  0.00  0.00    +0.004 A 
ATOM     33  C   UNL     1      -5.459   2.665  -1.786  0.00  0.00    +0.047 A 
BRANCH  24  35
ATOM     34  C   UNL     1      -7.745  -0.946   2.518  0.00  0.00    +0.024 C 
ATOM     35  C   UNL     1      -7.774   0.031   1.341  0.00  0.00    +0.102 C 
ENDBRANCH  24  35
ENDBRANCH  23  26
ENDBRANCH  20  23
ENDBRANCH  19  20
ENDBRANCH   1  19
TORSDOF 6
