REMARK  Name = ZINC35965338
REMARK  6 active torsions:
REMARK  status: ('A' for Active; 'I' for Inactive)
REMARK    1  A    between atoms: C_2  and  C_3
REMARK    2  A    between atoms: C_3  and  N_4
REMARK    3  A    between atoms: C_7  and  C_12
REMARK    4  A    between atoms: N_21  and  C_23
REMARK    5  A    between atoms: C_23  and  C_24
REMARK    6  A    between atoms: N_26  and  N_27
REMARK                            x       y       z     vdW  Elec       q    Type
REMARK                         _______ _______ _______ _____ _____    ______ ____
ROOT
ATOM      1  N   UNL     1      -1.318  -1.700  -1.126  0.00  0.00    -0.253 N 
ATOM      2  C   UNL     1      -1.835  -1.255  -2.309  0.00  0.00    +0.043 C 
ATOM      3  C   UNL     1      -1.887  -2.054  -3.394  0.00  0.00    +0.058 C 
ATOM      4  C   UNL     1      -1.352  -3.465  -3.256  0.00  0.00    +0.143 C 
ATOM      5  N   UNL     1      -0.816  -3.849  -1.939  0.00  0.00    -0.288 N 
ATOM      6  C   UNL     1      -0.827  -2.933  -0.949  0.00  0.00    +0.307 C 
ATOM      7  O   UNL     1      -0.383  -3.239   0.140  0.00  0.00    -0.252 OA
ATOM      8  C   UNL     1      -2.460  -1.366  -4.483  0.00  0.00    +0.247 C 
ATOM      9  O   UNL     1      -2.631  -1.847  -5.588  0.00  0.00    -0.270 OA
ATOM     10  N   UNL     1      -2.795  -0.109  -4.141  0.00  0.00    -0.283 N 
ATOM     11  C   UNL     1      -2.427   0.072  -2.729  0.00  0.00    +0.160 C 
ATOM     12  H   UNL     1      -0.459  -4.738  -1.788  0.00  0.00    +0.151 HD
ENDROOT
BRANCH   4  13
ATOM     13  C   UNL     1      -2.466  -4.420  -3.599  0.00  0.00    -0.004 A 
ATOM     14  C   UNL     1      -3.255  -4.951  -2.596  0.00  0.00    +0.007 A 
ATOM     15  C   UNL     1      -4.277  -5.827  -2.910  0.00  0.00    +0.000 A 
ATOM     16  C   UNL     1      -4.510  -6.173  -4.229  0.00  0.00    +0.001 A 
ATOM     17  C   UNL     1      -3.722  -5.643  -5.232  0.00  0.00    +0.020 A 
ATOM     18  C   UNL     1      -2.702  -4.761  -4.918  0.00  0.00    +0.046 A 
ATOM     19 CL   UNL     1      -1.716  -4.090  -6.179  0.00  0.00    -0.083 Cl
ENDBRANCH   4  13
BRANCH   1  20
ATOM     20  C   UNL     1      -1.293  -0.775   0.010  0.00  0.00    +0.141 C 
BRANCH  20  22
ATOM     21  C   UNL     1      -0.016   1.306   0.009  0.00  0.00    +0.005 C 
ATOM     22  C   UNL     1       0.002  -0.004   0.002  0.00  0.00    -0.015 C 
ENDBRANCH  20  22
ENDBRANCH   1  20
BRANCH  10  23
ATOM     23  C   UNL     1      -3.412   0.894  -5.014  0.00  0.00    +0.205 C 
BRANCH  23  24
ATOM     24  C   UNL     1      -4.912   0.787  -4.919  0.00  0.00    +0.244 C 
ATOM     25  O   UNL     1      -5.417  -0.044  -4.194  0.00  0.00    -0.273 OA
ATOM     26  N   UNL     1      -5.693   1.616  -5.639  0.00  0.00    -0.247 N 
ATOM     27  H   UNL     1      -5.290   2.281  -6.219  0.00  0.00    +0.169 HD
BRANCH  26  28
ATOM     28  N   UNL     1      -7.053   1.520  -5.553  0.00  0.00    -0.223 NA
ATOM     29  C   UNL     1      -7.637   1.133  -6.846  0.00  0.00    +0.133 C 
ATOM     30  C   UNL     1      -9.152   0.979  -6.690  0.00  0.00    +0.177 C 
ATOM     31  O   UNL     1      -9.702   2.201  -6.192  0.00  0.00    -0.377 OA
ATOM     32  C   UNL     1      -9.156   2.608  -4.934  0.00  0.00    +0.177 C 
ATOM     33  C   UNL     1      -7.641   2.779  -5.073  0.00  0.00    +0.133 C 
ENDBRANCH  26  28
ENDBRANCH  23  24
ENDBRANCH  10  23
TORSDOF 6
