REMARK  Name = ZINC11867003
REMARK  12 active torsions:
REMARK  status: ('A' for Active; 'I' for Inactive)
REMARK    1  A    between atoms: C_1  and  C_2
REMARK    2  A    between atoms: C_2  and  C_3
REMARK    3  A    between atoms: C_3  and  C_4
REMARK    4  A    between atoms: C_13  and  O_16
REMARK    5  A    between atoms: C_14  and  C_15
REMARK    6  A    between atoms: O_16  and  C_17
REMARK    7  A    between atoms: C_17  and  C_18
REMARK    8  A    between atoms: N_20  and  C_21
REMARK    9  A    between atoms: C_21  and  C_22
REMARK   10  A    between atoms: C_22  and  C_23
REMARK   11  A    between atoms: C_23  and  C_24
REMARK   12  A    between atoms: C_29  and  O_37
REMARK                            x       y       z     vdW  Elec       q    Type
REMARK                         _______ _______ _______ _____ _____    ______ ____
ROOT
ATOM      1  C   UNL     1       1.788  -6.875   5.785  0.00  0.00    +0.251 C 
ATOM      2  O   UNL     1       2.928  -6.594   6.091  0.00  0.00    -0.272 OA
ATOM      3  N   UNL     1       1.223  -6.311   4.699  0.00  0.00    -0.312 N 
ATOM      4  H   UNL     1       0.312  -6.536   4.455  0.00  0.00    +0.149 HD
ENDROOT
BRANCH   1   5
ATOM      5  C   UNL     1       1.004  -7.856   6.618  0.00  0.00    +0.324 C 
BRANCH   5   6
ATOM      6  O   UNL     1       1.813  -8.311   7.705  0.00  0.00    -0.482 OA
BRANCH   6  16
ATOM      7  C   UNL     1      -0.500 -11.996  11.211  0.00  0.00    -0.030 A 
ATOM      8  C   UNL     1       0.256 -12.437  12.249  0.00  0.00    +0.096 A 
ATOM      9  C   UNL     1       1.575 -11.964  12.408  0.00  0.00    +0.337 A 
ATOM     10  O   UNL     1       2.242 -12.368  13.343  0.00  0.00    -0.245 OA
ATOM     11  O   UNL     1       2.114 -11.079  11.555  0.00  0.00    -0.422 OA
ATOM     12  C   UNL     1       1.416 -10.600  10.502  0.00  0.00    +0.146 A 
ATOM     13  C   UNL     1       0.094 -11.030  10.284  0.00  0.00    +0.021 A 
ATOM     14  C   UNL     1      -0.633 -10.536   9.195  0.00  0.00    +0.015 A 
ATOM     15  C   UNL     1      -0.056  -9.636   8.347  0.00  0.00    +0.047 A 
ATOM     16  C   UNL     1       1.253  -9.207   8.557  0.00  0.00    +0.128 A 
ATOM     17  C   UNL     1       1.989  -9.690   9.627  0.00  0.00    +0.034 A 
ATOM     18  C   UNL     1       3.406  -9.224   9.842  0.00  0.00    +0.051 C 
BRANCH   7  19
ATOM     19  C   UNL     1      -1.912 -12.486  11.018  0.00  0.00    +0.036 C 
BRANCH  19  21
ATOM     20  C   UNL     1      -3.349 -14.157   9.842  0.00  0.00    +0.004 C 
ATOM     21  C   UNL     1      -1.915 -13.659  10.037  0.00  0.00    +0.001 C 
ENDBRANCH  19  21
ENDBRANCH   7  19
ENDBRANCH   6  16
ENDBRANCH   5   6
ENDBRANCH   1   5
BRANCH   3  22
ATOM     22  C   UNL     1       1.985  -5.357   3.889  0.00  0.00    +0.105 C 
BRANCH  22  23
ATOM     23  C   UNL     1       1.119  -4.870   2.726  0.00  0.00    +0.028 C 
BRANCH  23  24
ATOM     24  C   UNL     1       1.914  -3.874   1.880  0.00  0.00    +0.097 C 
BRANCH  24  25
ATOM     25  C   UNL     1       1.061  -3.393   0.734  0.00  0.00    +0.216 C 
ATOM     26  O   UNL     1      -0.072  -3.807   0.607  0.00  0.00    -0.276 OA
ATOM     27  N   UNL     1       1.557  -2.505  -0.149  0.00  0.00    -0.301 N 
ATOM     28  C   UNL     1       2.928  -1.994  -0.009  0.00  0.00    +0.110 C 
ATOM     29  C   UNL     1       2.885  -0.464  -0.002  0.00  0.00    +0.054 C 
ATOM     30  C   UNL     1       2.159   0.030  -1.257  0.00  0.00    +0.072 C 
ATOM     31  C   UNL     1       2.136   1.561  -1.256  0.00  0.00    +0.035 C 
ATOM     32  C   UNL     1       1.416   2.057  -0.000  0.00  0.00    +0.003 C 
ATOM     33  C   UNL     1      -0.019   1.526   0.010  0.00  0.00    +0.001 C 
ATOM     34  C   UNL     1       0.002  -0.004   0.002  0.00  0.00    +0.008 C 
ATOM     35  C   UNL     1       0.722  -0.496  -1.255  0.00  0.00    +0.038 C 
ATOM     36  C   UNL     1       0.738  -2.027  -1.271  0.00  0.00    +0.114 C 
BRANCH  30  37
ATOM     37  O   UNL     1       2.840  -0.443  -2.420  0.00  0.00    -0.388 OA
ATOM     38  H   UNL     1       3.759  -0.148  -2.486  0.00  0.00    +0.210 HD
ENDBRANCH  30  37
ENDBRANCH  24  25
ENDBRANCH  23  24
ENDBRANCH  22  23
ENDBRANCH   3  22
TORSDOF 10
