REMARK  Name = ZINC64392502
REMARK  6 active torsions:
REMARK  status: ('A' for Active; 'I' for Inactive)
REMARK    1  A    between atoms: C_1  and  O_2
REMARK    2  A    between atoms: O_2  and  C_3
REMARK    3  A    between atoms: C_6  and  C_9
REMARK    4  A    between atoms: C_9  and  N_10
REMARK    5  A    between atoms: C_16  and  C_23
REMARK    6  A    between atoms: C_26  and  C_29
REMARK                            x       y       z     vdW  Elec       q    Type
REMARK                         _______ _______ _______ _____ _____    ______ ____
ROOT
ATOM      1  N   UNL     1       3.955  -2.757  -4.455  0.00  0.00    -0.256 N 
ATOM      2  C   UNL     1       4.864  -1.807  -4.764  0.00  0.00    +0.265 A 
ATOM      3  O   UNL     1       4.533  -0.798  -5.357  0.00  0.00    -0.267 OA
ATOM      4  C   UNL     1       6.265  -2.023  -4.363  0.00  0.00    +0.063 A 
ATOM      5  C   UNL     1       7.260  -1.090  -4.644  0.00  0.00    +0.016 A 
ATOM      6  C   UNL     1       8.557  -1.340  -4.248  0.00  0.00    +0.009 A 
ATOM      7  C   UNL     1       8.872  -2.510  -3.574  0.00  0.00    +0.006 A 
ATOM      8  C   UNL     1       7.895  -3.443  -3.289  0.00  0.00    +0.034 A 
ATOM      9  C   UNL     1       6.586  -3.209  -3.680  0.00  0.00    +0.056 A 
ATOM     10  N   UNL     1       5.574  -4.120  -3.413  0.00  0.00    -0.307 N 
ATOM     11  H   UNL     1       5.780  -4.943  -2.942  0.00  0.00    +0.170 HD
ATOM     12  C   UNL     1       4.310  -3.872  -3.796  0.00  0.00    +0.330 A 
ATOM     13  O   UNL     1       3.451  -4.694  -3.539  0.00  0.00    -0.246 OA
ENDROOT
BRANCH   7  14
ATOM     14  C   UNL     1      10.295  -2.767  -3.149  0.00  0.00    +0.274 C 
ATOM     15  N   UNL     1      10.990  -1.496  -2.909  0.00  0.00    -0.339 N 
ATOM     16  C   UNL     1      11.994  -1.411  -3.726  0.00  0.00    +0.135 C 
ATOM     17  N   UNL     1      12.078  -2.516  -4.535  0.00  0.00    -0.247 N 
ATOM     18  O   UNL     1      11.022  -3.408  -4.208  0.00  0.00    -0.243 OA
ATOM     19  H   UNL     1      12.750  -2.665  -5.220  0.00  0.00    +0.196 HD
ATOM     20  H   UNL     1      10.741  -0.832  -2.248  0.00  0.00    +0.164 HD
BRANCH  16  21
ATOM     21  C   UNL     1      12.931  -0.265  -3.780  0.00  0.00    +0.035 A 
ATOM     22  C   UNL     1      12.445   1.027  -3.981  0.00  0.00    +0.013 A 
ATOM     23  C   UNL     1      13.323   2.091  -4.030  0.00  0.00    +0.001 A 
ATOM     24  C   UNL     1      14.682   1.878  -3.880  0.00  0.00    +0.001 A 
ATOM     25  C   UNL     1      15.170   0.600  -3.680  0.00  0.00    +0.021 A 
ATOM     26  C   UNL     1      14.302  -0.473  -3.623  0.00  0.00    +0.052 A 
ATOM     27 CL   UNL     1      14.915  -2.076  -3.364  0.00  0.00    -0.083 Cl
ENDBRANCH  16  21
ENDBRANCH   7  14
BRANCH   1  28
ATOM     28  C   UNL     1       2.555  -2.566  -4.841  0.00  0.00    +0.165 C 
BRANCH  28  32
ATOM     29  C   UNL     1       0.477  -0.533  -1.709  0.00  0.00    +0.120 A 
ATOM     30  C   UNL     1       1.097   0.192  -2.717  0.00  0.00    +0.046 A 
ATOM     31  C   UNL     1       1.768  -0.467  -3.728  0.00  0.00    +0.009 A 
ATOM     32  C   UNL     1       1.823  -1.849  -3.737  0.00  0.00    -0.027 A 
ATOM     33  C   UNL     1       1.206  -2.574  -2.734  0.00  0.00    +0.009 A 
ATOM     34  C   UNL     1       0.538  -1.919  -1.717  0.00  0.00    +0.046 A 
BRANCH  29  36
ATOM     35  C   UNL     1      -0.205   1.542  -0.769  0.00  0.00    +0.277 C 
ATOM     36  O   UNL     1      -0.183   0.114  -0.713  0.00  0.00    -0.495 OA
ENDBRANCH  29  36
ENDBRANCH  28  32
ENDBRANCH   1  28
TORSDOF 5
