REMARK  Name = ZINC39016892
REMARK  9 active torsions:
REMARK  status: ('A' for Active; 'I' for Inactive)
REMARK    1  A    between atoms: C_1  and  C_2
REMARK    2  A    between atoms: N_12  and  C_13
REMARK    3  A    between atoms: C_13  and  C_14
REMARK    4  A    between atoms: N_16  and  C_17
REMARK    5  A    between atoms: C_21  and  O_31
REMARK    6  A    between atoms: C_25  and  C_27
REMARK    7  A    between atoms: C_27  and  O_29
REMARK    8  A    between atoms: O_29  and  C_30
REMARK    9  A    between atoms: O_31  and  C_32
REMARK                            x       y       z     vdW  Elec       q    Type
REMARK                         _______ _______ _______ _____ _____    ______ ____
ROOT
ATOM      1  C   UNL     1       0.471   0.562   4.737  0.00  0.00    +0.234 C 
ATOM      2  O   UNL     1      -0.203  -0.026   3.919  0.00  0.00    -0.274 OA
ATOM      3  N   UNL     1      -0.109   1.099   5.828  0.00  0.00    -0.285 N 
ATOM      4  H   UNL     1       0.434   1.545   6.497  0.00  0.00    +0.155 HD
ENDROOT
BRANCH   3   5
ATOM      5  C   UNL     1      -1.460   1.016   5.992  0.00  0.00    +0.053 C 
ATOM      6  C   UNL     1      -2.222   1.642   6.961  0.00  0.00    +0.018 A 
ATOM      7  C   UNL     1      -1.884   2.511   8.027  0.00  0.00    +0.015 A 
ATOM      8  C   UNL     1      -2.855   2.986   8.842  0.00  0.00    +0.046 A 
ATOM      9  C   UNL     1      -4.202   2.638   8.659  0.00  0.00    +0.122 A 
ATOM     10  C   UNL     1      -4.597   1.807   7.654  0.00  0.00    +0.071 A 
ATOM     11  C   UNL     1      -3.636   1.273   6.764  0.00  0.00    +0.048 A 
ATOM     12  N   UNL     1      -3.759   0.462   5.731  0.00  0.00    -0.367 N 
ATOM     13  C   UNL     1      -2.435   0.227   5.147  0.00  0.00    +0.234 C 
ATOM     14  H   UNL     1      -4.592   0.086   5.407  0.00  0.00    +0.161 HD
BRANCH  13  15
ATOM     15  C   UNL     1      -2.099  -1.241   5.204  0.00  0.00    +0.335 C 
ATOM     16  O   UNL     1      -2.334  -1.876   6.205  0.00  0.00    -0.248 OA
BRANCH  15  17
ATOM     17  O   UNL     1      -1.540  -1.844   4.143  0.00  0.00    -0.466 OA
ATOM     18  C   UNL     1      -1.249  -3.237   4.266  0.00  0.00    +0.280 C 
ENDBRANCH  15  17
ENDBRANCH  13  15
BRANCH   9  19
ATOM     19  O   UNL     1      -5.136   3.142   9.505  0.00  0.00    -0.495 OA
ATOM     20  C   UNL     1      -4.671   4.008  10.542  0.00  0.00    +0.277 C 
ENDBRANCH   9  19
ENDBRANCH   3   5
BRANCH   1  21
ATOM     21  C   UNL     1       1.959   0.692   4.534  0.00  0.00    +0.201 C 
BRANCH  21  32
ATOM     22  C   UNL     1       2.322   2.277   2.301  0.00  0.00    +0.028 C 
ATOM     23  C   UNL     1       2.355   0.774   2.018  0.00  0.00    +0.071 C 
ATOM     24  C   UNL     1       3.648   0.413   1.275  0.00  0.00    +0.027 C 
ATOM     25  C   UNL     1       3.626  -1.079   0.943  0.00  0.00    +0.039 C 
ATOM     26  C   UNL     1       3.322  -1.889   2.175  0.00  0.00    -0.024 A 
ATOM     27  C   UNL     1       3.674  -3.229   2.199  0.00  0.00    +0.043 A 
ATOM     28  C   UNL     1       3.405  -4.001   3.315  0.00  0.00    +0.124 A 
ATOM     29  C   UNL     1       2.782  -3.437   4.416  0.00  0.00    +0.040 A 
ATOM     30  C   UNL     1       2.430  -2.103   4.398  0.00  0.00    +0.026 A 
ATOM     31  C   UNL     1       2.701  -1.325   3.278  0.00  0.00    +0.034 A 
ATOM     32  N   UNL     1       2.341   0.029   3.285  0.00  0.00    -0.318 N 
ATOM     33  F   UNL     1       3.751  -5.307   3.331  0.00  0.00    -0.205 F 
ENDBRANCH  21  32
ENDBRANCH   1  21
TORSDOF 6
