REMARK  Name = ZINC39379622
REMARK  8 active torsions:
REMARK  status: ('A' for Active; 'I' for Inactive)
REMARK    1  A    between atoms: C_1  and  C_2
REMARK    2  A    between atoms: C_5  and  C_8
REMARK    3  A    between atoms: C_14  and  S_18
REMARK    4  A    between atoms: S_18  and  C_19
REMARK    5  A    between atoms: C_19  and  C_20
REMARK    6  A    between atoms: C_23  and  C_29
REMARK    7  A    between atoms: C_25  and  O_27
REMARK    8  A    between atoms: O_27  and  C_28
REMARK                            x       y       z     vdW  Elec       q    Type
REMARK                         _______ _______ _______ _____ _____    ______ ____
ROOT
ATOM      1  C   UNL     1       0.059  -4.275  -0.021  0.00  0.00    +0.077 C 
ATOM      2  C   UNL     1      -1.168  -4.807   0.708  0.00  0.00    +0.157 C 
ATOM      3  C   UNL     1      -0.991  -4.511   2.182  0.00  0.00    +0.145 C 
ATOM      4  N   UNL     1      -2.031  -4.006   2.826  0.00  0.00    -0.208 NA
ATOM      5  C   UNL     1      -3.155  -3.688   2.189  0.00  0.00    +0.182 C 
ATOM      6  N   UNL     1      -3.326  -3.719   0.876  0.00  0.00    -0.154 NA
ATOM      7  C   UNL     1      -2.412  -4.253   0.048  0.00  0.00    +0.250 C 
ATOM      8  O   UNL     1      -2.565  -4.283  -1.158  0.00  0.00    -0.273 OA
ATOM      9  N   UNL     1       0.177  -4.686   2.768  0.00  0.00    -0.236 NA
ATOM     10  C   UNL     1       1.278  -4.920   2.072  0.00  0.00    +0.051 C 
ATOM     11  C   UNL     1       1.299  -4.771   0.689  0.00  0.00    +0.066 C 
ATOM     12  C   UNL     1       2.438  -5.075  -0.031  0.00  0.00    +0.337 C 
ATOM     13  O   UNL     1       3.539  -5.516   0.605  0.00  0.00    -0.245 OA
ATOM     14  C   UNL     1       2.531  -5.352   2.789  0.00  0.00    +0.066 C 
ENDROOT
BRANCH   1  19
ATOM     15  C   UNL     1      -0.018   1.503   0.010  0.00  0.00    +0.044 C 
ATOM     16  C   UNL     1       0.002  -0.004   0.002  0.00  0.00    -0.050 A 
ATOM     17  C   UNL     1       0.006  -0.689  -1.199  0.00  0.00    +0.003 A 
ATOM     18  C   UNL     1       0.025  -2.071  -1.206  0.00  0.00    +0.004 A 
ATOM     19  C   UNL     1       0.040  -2.768  -0.013  0.00  0.00    -0.039 A 
ATOM     20  C   UNL     1       0.037  -2.084   1.188  0.00  0.00    +0.004 A 
ATOM     21  C   UNL     1       0.023  -0.702   1.195  0.00  0.00    +0.003 A 
ENDBRANCH   1  19
BRANCH  12  22
ATOM     22  O   UNL     1       2.447  -4.930  -1.370  0.00  0.00    -0.465 OA
ATOM     23  C   UNL     1       3.658  -5.262  -2.051  0.00  0.00    +0.280 C 
ENDBRANCH  12  22
BRANCH   5  24
ATOM     24  S   UNL     1      -4.528  -3.185   3.173  0.00  0.00    -0.084 S 
BRANCH  24  25
ATOM     25  C   UNL     1      -5.835  -2.846   1.961  0.00  0.00    +0.103 C 
BRANCH  25  26
ATOM     26  C   UNL     1      -7.082  -2.400   2.679  0.00  0.00    -0.023 C 
ATOM     27  C   UNL     1      -7.538  -1.184   2.507  0.00  0.00    +0.005 C 
ENDBRANCH  25  26
ENDBRANCH  24  25
ENDBRANCH   5  24
TORSDOF 5
