REMARK  Name = ZINC39611309
REMARK  11 active torsions:
REMARK  status: ('A' for Active; 'I' for Inactive)
REMARK    1  A    between atoms: C_1  and  C_2
REMARK    2  A    between atoms: C_4  and  C_33
REMARK    3  A    between atoms: C_8  and  C_12
REMARK    4  A    between atoms: C_12  and  S_13
REMARK    5  A    between atoms: S_13  and  C_14
REMARK    6  A    between atoms: C_14  and  C_16
REMARK    7  A    between atoms: C_14  and  C_17
REMARK    8  A    between atoms: C_17  and  O_19
REMARK    9  A    between atoms: O_19  and  C_20
REMARK   10  A    between atoms: C_20  and  C_21
REMARK   11  A    between atoms: C_21  and  C_23
REMARK                            x       y       z     vdW  Elec       q    Type
REMARK                         _______ _______ _______ _____ _____    ______ ____
ROOT
ATOM      1  C   UNL     1      -4.029  -5.250   6.260  0.00  0.00    +0.152 C 
ATOM      2  C   UNL     1      -3.081  -6.447   6.160  0.00  0.00    +0.031 C 
ENDROOT
BRANCH   1   3
ATOM      3  C   UNL     1      -5.436  -5.742   6.482  0.00  0.00    +0.320 C 
ATOM      4  O   UNL     1      -6.181  -5.886   5.541  0.00  0.00    -0.250 OA
BRANCH   3   5
ATOM      5  O   UNL     1      -5.862  -6.019   7.724  0.00  0.00    -0.456 OA
BRANCH   5   6
ATOM      6  C   UNL     1      -7.208  -6.481   7.861  0.00  0.00    +0.311 C 
BRANCH   6   7
ATOM      7  C   UNL     1      -7.505  -6.738   9.315  0.00  0.00    +0.199 C 
ATOM      8  O   UNL     1      -6.649  -6.545  10.154  0.00  0.00    -0.289 OA
BRANCH   7   9
ATOM      9  C   UNL     1      -8.780  -7.204   9.703  0.00  0.00    +0.026 C 
ATOM     10  C   UNL     1      -9.214  -7.482  10.987  0.00  0.00    +0.006 A 
ATOM     11  C   UNL     1      -8.586  -7.405  12.253  0.00  0.00    +0.010 A 
ATOM     12  C   UNL     1      -9.264  -7.748  13.371  0.00  0.00    +0.001 A 
ATOM     13  C   UNL     1     -10.597  -8.189  13.339  0.00  0.00    +0.002 A 
ATOM     14  C   UNL     1     -11.286  -8.298  12.183  0.00  0.00    +0.026 A 
ATOM     15  C   UNL     1     -10.622  -7.944  10.918  0.00  0.00    +0.043 A 
ATOM     16  N   UNL     1     -11.039  -7.955   9.684  0.00  0.00    -0.380 N 
ATOM     17  C   UNL     1      -9.960  -7.497   8.803  0.00  0.00    +0.152 C 
ATOM     18  H   UNL     1     -11.926  -8.220   9.394  0.00  0.00    +0.160 HD
ENDBRANCH   7   9
ENDBRANCH   6   7
ENDBRANCH   5   6
ENDBRANCH   3   5
ENDBRANCH   1   3
BRANCH   1  19
ATOM     19  S   UNL     1      -3.959  -4.293   4.721  0.00  0.00    -0.139 S 
BRANCH  19  20
ATOM     20  C   UNL     1      -2.262  -3.654   4.678  0.00  0.00    +0.143 C 
BRANCH  20  27
ATOM     21  C   UNL     1      -0.019   1.526   0.010  0.00  0.00    +0.024 C 
ATOM     22  C   UNL     1       0.002  -0.004   0.002  0.00  0.00    +0.076 C 
ATOM     23  C   UNL     1      -1.399  -0.565   0.089  0.00  0.00    -0.045 C 
ATOM     24  C   UNL     1      -1.704  -1.321   1.155  0.00  0.00    +0.071 C 
ATOM     25  C   UNL     1      -0.645  -1.546   2.162  0.00  0.00    +0.111 C 
ATOM     26  N   UNL     1      -0.881  -2.276   3.226  0.00  0.00    -0.227 NA
ATOM     27  C   UNL     1      -2.066  -2.829   3.432  0.00  0.00    +0.133 C 
ATOM     28  N   UNL     1      -3.079  -2.698   2.609  0.00  0.00    -0.161 NA
ATOM     29  C   UNL     1      -3.005  -1.988   1.478  0.00  0.00    +0.271 C 
ATOM     30  O   UNL     1      -3.966  -1.886   0.735  0.00  0.00    -0.268 OA
ATOM     31  S   UNL     1       0.764  -0.661   1.541  0.00  0.00    -0.098 S 
ATOM     32  C   UNL     1      -2.419  -0.284  -0.984  0.00  0.00    +0.041 C 
ENDBRANCH  20  27
ENDBRANCH  19  20
ENDBRANCH   1  19
TORSDOF 8
