REMARK  Name = ZINC65182795
REMARK  11 active torsions:
REMARK  status: ('A' for Active; 'I' for Inactive)
REMARK    1  A    between atoms: C_1  and  C_2
REMARK    2  A    between atoms: C_2  and  C_3
REMARK    3  A    between atoms: C_2  and  C_4
REMARK    4  A    between atoms: C_4  and  N_5
REMARK    5  A    between atoms: N_8  and  N_9
REMARK    6  A    between atoms: C_10  and  C_12
REMARK    7  A    between atoms: C_12  and  C_13
REMARK    8  A    between atoms: C_12  and  N_17
REMARK    9  A    between atoms: C_13  and  C_14
REMARK   10  A    between atoms: C_14  and  S_15
REMARK   11  A    between atoms: S_15  and  C_16
REMARK                            x       y       z     vdW  Elec       q    Type
REMARK                         _______ _______ _______ _____ _____    ______ ____
ROOT
ATOM      1  C   UNL     1      -3.193   1.742  -5.740  0.00  0.00    +0.173 C 
ENDROOT
BRANCH   1   2
ATOM      2  N   UNL     1      -4.077   1.998  -6.880  0.00  0.00    -0.222 N 
ATOM      3  C   UNL     1      -4.651   1.038  -7.628  0.00  0.00    +0.254 C 
ATOM      4  O   UNL     1      -4.520  -0.158  -7.469  0.00  0.00    -0.270 OA
ATOM      5  C   UNL     1      -5.467   1.685  -8.677  0.00  0.00    +0.049 A 
ATOM      6  C   UNL     1      -6.264   1.216  -9.710  0.00  0.00    +0.014 A 
ATOM      7  C   UNL     1      -6.913   2.116 -10.540  0.00  0.00    +0.001 A 
ATOM      8  C   UNL     1      -6.770   3.477 -10.345  0.00  0.00    +0.001 A 
ATOM      9  C   UNL     1      -5.976   3.961  -9.317  0.00  0.00    +0.014 A 
ATOM     10  C   UNL     1      -5.322   3.073  -8.479  0.00  0.00    +0.049 A 
ATOM     11  C   UNL     1      -4.426   3.223  -7.313  0.00  0.00    +0.254 C 
ATOM     12  O   UNL     1      -4.064   4.276  -6.828  0.00  0.00    -0.270 OA
ENDBRANCH   1   2
BRANCH   1  14
ATOM     13  N   UNL     1      -3.316   0.589  -3.555  0.00  0.00    -0.232 N 
ATOM     14  C   UNL     1      -3.934   0.943  -4.699  0.00  0.00    +0.250 C 
ATOM     15  O   UNL     1      -5.087   0.620  -4.891  0.00  0.00    -0.272 OA
ATOM     16  H   UNL     1      -2.394   0.848  -3.402  0.00  0.00    +0.173 HD
BRANCH  13  20
ATOM     17  N   UNL     1      -2.105  -0.148  -1.230  0.00  0.00    -0.298 N 
ATOM     18  C   UNL     1      -3.387  -0.508  -1.443  0.00  0.00    +0.316 C 
ATOM     19  O   UNL     1      -3.985  -1.153  -0.604  0.00  0.00    -0.251 OA
ATOM     20  N   UNL     1      -4.005  -0.154  -2.587  0.00  0.00    -0.218 N 
ATOM     21  H   UNL     1      -1.628   0.366  -1.901  0.00  0.00    +0.150 HD
ATOM     22  H   UNL     1      -4.927  -0.413  -2.741  0.00  0.00    +0.174 HD
BRANCH  17  23
ATOM     23  C   UNL     1      -1.433  -0.534   0.013  0.00  0.00    +0.108 C 
BRANCH  23  25
ATOM     24  C   UNL     1      -0.019   1.526   0.010  0.00  0.00    +0.009 C 
ATOM     25  C   UNL     1       0.002  -0.004   0.002  0.00  0.00    -0.000 C 
ATOM     26  C   UNL     1       0.742  -0.511   1.242  0.00  0.00    +0.009 C 
ENDBRANCH  23  25
ENDBRANCH  17  23
ENDBRANCH  13  20
ENDBRANCH   1  14
BRANCH   1  27
ATOM     27  C   UNL     1      -1.968   0.955  -6.210  0.00  0.00    +0.043 C 
BRANCH  27  28
ATOM     28  C   UNL     1      -1.148   1.815  -7.173  0.00  0.00    +0.071 C 
BRANCH  28  29
ATOM     29  S   UNL     1       0.304   0.881  -7.731  0.00  0.00    -0.164 S 
ATOM     30  C   UNL     1       1.158   2.026  -8.850  0.00  0.00    +0.084 C 
ENDBRANCH  28  29
ENDBRANCH  27  28
ENDBRANCH   1  27
TORSDOF 8
