REMARK  Name = ZINC35512940
REMARK  9 active torsions:
REMARK  status: ('A' for Active; 'I' for Inactive)
REMARK    1  A    between atoms: C_1  and  C_2
REMARK    2  A    between atoms: C_2  and  O_3
REMARK    3  A    between atoms: O_3  and  C_4
REMARK    4  A    between atoms: C_6  and  C_11
REMARK    5  A    between atoms: C_9  and  O_10
REMARK    6  A    between atoms: C_18  and  C_35
REMARK    7  A    between atoms: C_19  and  C_34
REMARK    8  A    between atoms: C_29  and  C_33
REMARK    9  A    between atoms: C_30  and  C_32
REMARK                            x       y       z     vdW  Elec       q    Type
REMARK                         _______ _______ _______ _____ _____    ______ ____
ROOT
ATOM      1  C   UNL     1      -0.229  -4.969   0.477  0.00  0.00    +0.152 C 
ATOM      2  C   UNL     1       0.851  -5.488   1.369  0.00  0.00    +0.072 A 
ATOM      3  C   UNL     1       1.784  -4.793   2.261  0.00  0.00    +0.199 A 
ATOM      4  O   UNL     1       1.687  -3.610   2.538  0.00  0.00    -0.287 OA
ATOM      5  C   UNL     1       2.858  -5.668   2.796  0.00  0.00    +0.065 A 
ATOM      6  C   UNL     1       3.933  -5.120   3.495  0.00  0.00    +0.019 A 
ATOM      7  C   UNL     1       4.917  -5.938   3.976  0.00  0.00    -0.047 A 
ATOM      8  C   UNL     1       4.849  -7.309   3.770  0.00  0.00    -0.044 A 
ATOM      9  C   UNL     1       3.794  -7.867   3.084  0.00  0.00    +0.050 A 
ATOM     10  C   UNL     1       2.776  -7.054   2.585  0.00  0.00    +0.140 A 
ATOM     11  O   UNL     1       1.745  -7.624   1.922  0.00  0.00    -0.450 OA
ATOM     12  C   UNL     1       0.880  -6.848   1.240  0.00  0.00    +0.199 A 
ATOM     13  C   UNL     1      -0.159  -7.242   0.274  0.00  0.00    +0.289 C 
ATOM     14  O   UNL     1      -0.393  -8.384  -0.068  0.00  0.00    -0.266 OA
ATOM     15  N   UNL     1      -0.814  -6.151  -0.177  0.00  0.00    -0.232 N 
ATOM     16  C   UNL     1      -1.855  -6.143  -1.094  0.00  0.00    +0.169 A 
ATOM     17  N   UNL     1      -2.520  -5.111  -1.568  0.00  0.00    -0.229 NA
ATOM     18  C   UNL     1      -3.493  -5.271  -2.445  0.00  0.00    +0.050 A 
ATOM     19  C   UNL     1      -3.772  -6.541  -2.831  0.00  0.00    +0.011 A 
ATOM     20  S   UNL     1      -2.569  -7.451  -1.877  0.00  0.00    -0.057 S 
ATOM     21  C   UNL     1      -4.809  -7.045  -3.802  0.00  0.00    +0.053 C 
ATOM     22  C   UNL     1      -4.260  -4.095  -2.993  0.00  0.00    +0.066 C 
ATOM     23  C   UNL     1       5.943  -8.197   4.304  0.00  0.00    +0.044 C 
ATOM     24  C   UNL     1       6.080  -5.349   4.732  0.00  0.00    +0.044 C 
ENDROOT
BRANCH   1  27
ATOM     25  C   UNL     1       0.777  -1.811  -1.336  0.00  0.00    +0.162 A 
ATOM     26  C   UNL     1       0.243  -2.669  -0.388  0.00  0.00    +0.055 A 
ATOM     27  C   UNL     1       0.352  -4.037  -0.555  0.00  0.00    -0.018 A 
ATOM     28  C   UNL     1       0.992  -4.552  -1.667  0.00  0.00    +0.009 A 
ATOM     29  C   UNL     1       1.526  -3.702  -2.616  0.00  0.00    +0.049 A 
ATOM     30  C   UNL     1       1.416  -2.330  -2.458  0.00  0.00    +0.158 A 
BRANCH  30  31
ATOM     31  O   UNL     1       1.936  -1.492  -3.394  0.00  0.00    -0.503 OA
ATOM     32  H   UNL     1       2.856  -1.241  -3.231  0.00  0.00    +0.292 HD
ENDBRANCH  30  31
BRANCH  25  33
ATOM     33  O   UNL     1       0.671  -0.465  -1.174  0.00  0.00    -0.489 OA
BRANCH  33  35
ATOM     34  C   UNL     1      -0.019   1.526   0.010  0.00  0.00    +0.048 C 
ATOM     35  C   UNL     1       0.002  -0.004   0.002  0.00  0.00    +0.226 C 
ENDBRANCH  33  35
ENDBRANCH  25  33
ENDBRANCH   1  27
TORSDOF 4
