REMARK  Name = ZINC29068923
REMARK  6 active torsions:
REMARK  status: ('A' for Active; 'I' for Inactive)
REMARK    1  A    between atoms: C_1  and  C_2
REMARK    2  A    between atoms: C_2  and  C_4
REMARK    3  A    between atoms: C_2  and  S_20
REMARK    4  A    between atoms: C_10  and  C_15
REMARK    5  A    between atoms: S_20  and  C_21
REMARK    6  A    between atoms: N_25  and  C_26
REMARK                            x       y       z     vdW  Elec       q    Type
REMARK                         _______ _______ _______ _____ _____    ______ ____
ROOT
ATOM      1  C   UNL     1      -0.530   2.273   0.000  0.00  0.00    +0.027 C 
ATOM      2  C   UNL     1      -0.352   0.781  -0.287  0.00  0.00    +0.117 C 
ENDROOT
BRANCH   2   3
ATOM      3  C   UNL     1       0.232   0.601  -1.665  0.00  0.00    +0.124 A 
ATOM      4  N   UNL     1      -0.598   0.382  -2.717  0.00  0.00    -0.309 N 
ATOM      5  H   UNL     1      -1.555   0.345  -2.569  0.00  0.00    +0.170 HD
ATOM      6  C   UNL     1      -0.117   0.217  -3.964  0.00  0.00    +0.260 A 
ATOM      7  O   UNL     1      -0.875   0.022  -4.899  0.00  0.00    -0.267 OA
ATOM      8  C   UNL     1       1.297   0.274  -4.175  0.00  0.00    +0.083 A 
ATOM      9  C   UNL     1       2.052   0.127  -5.415  0.00  0.00    +0.039 A 
ATOM     10  C   UNL     1       3.405   0.221  -5.369  0.00  0.00    +0.059 A 
ATOM     11  S   UNL     1       3.740   0.513  -3.642  0.00  0.00    -0.076 S 
ATOM     12  C   UNL     1       2.075   0.503  -3.028  0.00  0.00    +0.116 A 
ATOM     13  N   UNL     1       1.526   0.663  -1.827  0.00  0.00    -0.225 NA
BRANCH   9  14
ATOM     14  C   UNL     1       1.357  -0.118  -6.695  0.00  0.00    +0.136 A 
ATOM     15  C   UNL     1       1.555   0.564  -7.854  0.00  0.00    +0.050 A 
ATOM     16  C   UNL     1       0.688  -0.001  -8.812  0.00  0.00    +0.042 A 
ATOM     17  C   UNL     1       0.011  -0.989  -8.196  0.00  0.00    +0.196 A 
ATOM     18  O   UNL     1       0.422  -1.061  -6.918  0.00  0.00    -0.463 OA
ENDBRANCH   9  14
ENDBRANCH   2   3
BRANCH   2  19
ATOM     19  S   UNL     1      -1.963  -0.049  -0.200  0.00  0.00    -0.075 S 
BRANCH  19  20
ATOM     20  C   UNL     1      -2.439   0.122   1.488  0.00  0.00    +0.194 A 
ATOM     21  N   UNL     1      -1.752   0.727   2.425  0.00  0.00    -0.121 NA
ATOM     22  N   UNL     1      -2.479   0.640   3.620  0.00  0.00    -0.112 NA
ATOM     23  C   UNL     1      -3.586  -0.015   3.373  0.00  0.00    +0.221 A 
ATOM     24  N   UNL     1      -3.594  -0.348   2.048  0.00  0.00    -0.287 N 
ATOM     25  N   UNL     1      -4.581  -0.314   4.296  0.00  0.00    -0.300 N 
ATOM     26  C   UNL     1      -5.818  -1.055   4.012  0.00  0.00    +0.108 C 
ATOM     27  C   UNL     1      -6.625  -1.121   5.326  0.00  0.00    +0.020 C 
ATOM     28  C   UNL     1      -6.062   0.075   6.139  0.00  0.00    +0.020 C 
ATOM     29  C   UNL     1      -4.567   0.055   5.723  0.00  0.00    +0.108 C 
BRANCH  24  30
ATOM     30  C   UNL     1      -4.653  -1.083   1.351  0.00  0.00    +0.093 C 
ATOM     31  C   UNL     1      -4.305  -1.712   0.001  0.00  0.00    +0.027 C 
ATOM     32  C   UNL     1      -5.202  -0.474   0.059  0.00  0.00    +0.027 C 
ENDBRANCH  24  30
ENDBRANCH  19  20
ENDBRANCH   2  19
TORSDOF 5
