REMARK  Name = ZINC55504786
REMARK  6 active torsions:
REMARK  status: ('A' for Active; 'I' for Inactive)
REMARK    1  A    between atoms: C_1  and  O_2
REMARK    2  A    between atoms: O_2  and  C_3
REMARK    3  A    between atoms: C_6  and  C_9
REMARK    4  A    between atoms: C_9  and  C_11
REMARK    5  A    between atoms: N_14  and  C_17
REMARK    6  A    between atoms: C_17  and  C_18
REMARK                            x       y       z     vdW  Elec       q    Type
REMARK                         _______ _______ _______ _____ _____    ______ ____
ROOT
ATOM      1  C   UNL     1      -5.004  -4.116   0.033  0.00  0.00    +0.057 C 
ATOM      2  C   UNL     1      -4.919  -4.630  -1.407  0.00  0.00    -0.007 C 
ATOM      3  C   UNL     1      -5.058  -6.154  -1.408  0.00  0.00    -0.077 C 
ATOM      4  N   UNL     1      -6.353  -6.531  -0.829  0.00  0.00    +0.385 N 
ATOM      5  C   UNL     1      -6.414  -6.104   0.575  0.00  0.00    -0.077 C 
ATOM      6  C   UNL     1      -6.326  -4.578   0.652  0.00  0.00    -0.007 C 
ATOM      7  H   UNL     1      -7.095  -6.085  -1.347  0.00  0.00    -0.081 HD
ENDROOT
BRANCH   1   8
ATOM      8  C   UNL     1      -4.945  -2.610   0.034  0.00  0.00    +0.166 C 
ATOM      9  O   UNL     1      -5.971  -1.964   0.043  0.00  0.00    -0.292 OA
BRANCH   8  13
ATOM     10  C   UNL     1      -1.198  -0.636   0.010  0.00  0.00    +0.120 A 
ATOM     11  C   UNL     1      -2.373   0.108   0.019  0.00  0.00    +0.046 A 
ATOM     12  C   UNL     1      -3.589  -0.527   0.027  0.00  0.00    +0.015 A 
ATOM     13  C   UNL     1      -3.646  -1.926   0.026  0.00  0.00    +0.018 A 
ATOM     14  C   UNL     1      -2.460  -2.670   0.016  0.00  0.00    +0.015 A 
ATOM     15  C   UNL     1      -1.249  -2.026   0.003  0.00  0.00    +0.046 A 
BRANCH  10  17
ATOM     16  C   UNL     1      -0.017   1.425   0.010  0.00  0.00    +0.277 C 
ATOM     17  O   UNL     1       0.002  -0.004   0.002  0.00  0.00    -0.495 OA
ENDBRANCH  10  17
ENDBRANCH   8  13
ENDBRANCH   1   8
BRANCH   4  18
ATOM     18  C   UNL     1      -6.516  -7.989  -0.903  0.00  0.00    +0.019 C 
BRANCH  18  19
ATOM     19  C   UNL     1      -7.893  -8.366  -0.421  0.00  0.00    +0.199 C 
ATOM     20  O   UNL     1      -8.663  -7.505  -0.053  0.00  0.00    -0.278 OA
ATOM     21  N   UNL     1      -8.269  -9.660  -0.400  0.00  0.00    -0.300 N 
ATOM     22  C   UNL     1      -7.348 -10.721  -0.837  0.00  0.00    +0.108 C 
ATOM     23  C   UNL     1      -7.237 -11.774   0.269  0.00  0.00    +0.019 C 
ATOM     24  C   UNL     1      -8.635 -12.266   0.656  0.00  0.00    +0.007 C 
ATOM     25  C   UNL     1      -9.456 -11.087   1.176  0.00  0.00    +0.010 C 
ATOM     26  C   UNL     1      -9.605 -10.049   0.064  0.00  0.00    +0.079 C 
ATOM     27  C   UNL     1     -10.357  -8.838   0.613  0.00  0.00    +0.023 C 
ATOM     28  C   UNL     1     -11.746  -9.282   1.081  0.00  0.00    +0.002 C 
ATOM     29  C   UNL     1     -11.611 -10.347   2.170  0.00  0.00    +0.000 C 
ATOM     30  C   UNL     1     -10.846 -11.547   1.612  0.00  0.00    +0.005 C 
ENDBRANCH  18  19
ENDBRANCH   4  18
TORSDOF 5
