REMARK  Name = ZINC13082853
REMARK  5 active torsions:
REMARK  status: ('A' for Active; 'I' for Inactive)
REMARK    1  A    between atoms: C_1  and  C_2
REMARK    2  A    between atoms: C_3  and  C_31
REMARK    3  A    between atoms: C_13  and  O_30
REMARK    4  A    between atoms: C_16  and  N_17
REMARK    5  A    between atoms: N_17  and  C_18
REMARK                            x       y       z     vdW  Elec       q    Type
REMARK                         _______ _______ _______ _____ _____    ______ ____
ROOT
ATOM      1  C   UNL     1      -0.450   1.194  -0.410  0.00  0.00    +0.045 C 
ATOM      2  C   UNL     1       0.023  -0.228  -0.245  0.00  0.00    -0.021 C 
ATOM      3  C   UNL     1       0.179  -1.028  -1.360  0.00  0.00    +0.098 C 
ATOM      4  C   UNL     1       0.639  -2.422  -1.254  0.00  0.00    +0.155 A 
ATOM      5  N   UNL     1       0.848  -3.333  -2.186  0.00  0.00    -0.227 NA
ATOM      6  C   UNL     1       1.272  -4.486  -1.616  0.00  0.00    +0.090 A 
ATOM      7  C   UNL     1       1.630  -5.736  -2.131  0.00  0.00    +0.030 A 
ATOM      8  C   UNL     1       2.032  -6.738  -1.276  0.00  0.00    +0.002 A 
ATOM      9  C   UNL     1       2.086  -6.517   0.092  0.00  0.00    +0.002 A 
ATOM     10  C   UNL     1       1.736  -5.290   0.617  0.00  0.00    +0.028 A 
ATOM     11  C   UNL     1       1.329  -4.268  -0.228  0.00  0.00    +0.072 A 
ATOM     12  N   UNL     1       0.926  -2.963  -0.027  0.00  0.00    -0.293 N 
ATOM     13  C   UNL     1       0.774  -2.148   1.183  0.00  0.00    +0.250 C 
ATOM     14  C   UNL     1       0.305  -0.719   1.037  0.00  0.00    +0.020 C 
ATOM     15  C   UNL     1       0.155   0.073   2.128  0.00  0.00    +0.080 C 
ENDROOT
BRANCH  15  16
ATOM     16  N   UNL     1       0.295  -0.456   3.381  0.00  0.00    -0.320 N 
ATOM     17  H   UNL     1       0.421  -1.411   3.493  0.00  0.00    +0.152 HD
BRANCH  16  18
ATOM     18  C   UNL     1       0.257   0.381   4.501  0.00  0.00    +0.033 A 
ATOM     19  C   UNL     1       0.071   1.750   4.340  0.00  0.00    +0.025 A 
ATOM     20  C   UNL     1       0.033   2.580   5.441  0.00  0.00    +0.029 A 
ATOM     21  C   UNL     1       0.180   2.049   6.714  0.00  0.00    +0.067 A 
ATOM     22  C   UNL     1       0.366   0.675   6.880  0.00  0.00    +0.069 A 
ATOM     23  C   UNL     1       0.399  -0.158   5.772  0.00  0.00    +0.051 A 
ATOM     24  N   UNL     1       0.480   0.446   8.249  0.00  0.00    -0.306 N 
ATOM     25  H   UNL     1       0.617  -0.416   8.671  0.00  0.00    +0.170 HD
ATOM     26  C   UNL     1       0.368   1.626   8.888  0.00  0.00    +0.325 A 
ATOM     27  O   UNL     1       0.423   1.778  10.094  0.00  0.00    -0.247 OA
ATOM     28  N   UNL     1       0.186   2.612   7.989  0.00  0.00    -0.306 N 
ATOM     29  H   UNL     1       0.078   3.554   8.195  0.00  0.00    +0.170 HD
ENDBRANCH  16  18
ENDBRANCH  15  16
BRANCH  13  30
ATOM     30  O   UNL     1       2.039  -2.117   1.845  0.00  0.00    -0.368 OA
ATOM     31  H   UNL     1       2.034  -1.632   2.682  0.00  0.00    +0.212 HD
ENDBRANCH  13  30
BRANCH   3  32
ATOM     32  C   UNL     1      -0.114  -0.488  -2.653  0.00  0.00    +0.103 C 
ATOM     33  N   UNL     1      -0.347  -0.059  -3.679  0.00  0.00    -0.191 NA
ENDBRANCH   3  32
TORSDOF 4
