REMARK  Name = ZINC14254580
REMARK  6 active torsions:
REMARK  status: ('A' for Active; 'I' for Inactive)
REMARK    1  A    between atoms: C_1  and  C_2
REMARK    2  A    between atoms: C_2  and  C_4
REMARK    3  A    between atoms: C_2  and  N_10
REMARK    4  A    between atoms: C_20  and  S_21
REMARK    5  A    between atoms: S_21  and  C_22
REMARK    6  A    between atoms: C_22  and  C_23
REMARK                            x       y       z     vdW  Elec       q    Type
REMARK                         _______ _______ _______ _____ _____    ______ ____
ROOT
ATOM      1  N   UNL     1      -0.713   1.698   1.139  0.00  0.00    -0.280 N 
ATOM      2  C   UNL     1      -0.920   3.035   1.157  0.00  0.00    +0.263 A 
ATOM      3  O   UNL     1      -0.534   3.745   0.246  0.00  0.00    -0.267 OA
ATOM      4  C   UNL     1      -1.631   3.598   2.312  0.00  0.00    +0.066 A 
ATOM      5  C   UNL     1      -1.896   4.963   2.420  0.00  0.00    +0.030 A 
ATOM      6  C   UNL     1      -2.563   5.437   3.530  0.00  0.00    +0.019 A 
ATOM      7  C   UNL     1      -2.970   4.568   4.535  0.00  0.00    +0.017 A 
ATOM      8  C   UNL     1      -2.721   3.227   4.448  0.00  0.00    +0.029 A 
ATOM      9  C   UNL     1      -2.047   2.716   3.336  0.00  0.00    +0.079 A 
ATOM     10  N   UNL     1      -1.780   1.394   3.214  0.00  0.00    -0.223 NA
ATOM     11  C   UNL     1      -1.148   0.916   2.171  0.00  0.00    +0.173 A 
ATOM     12 BR   UNL     1      -2.927   7.286   3.686  0.00  0.00    -0.050 Br
ENDROOT
BRANCH   1  14
ATOM     13  C   UNL     1      -0.815   1.317  -1.274  0.00  0.00    +0.036 C 
ATOM     14  C   UNL     1      -0.013   1.086   0.008  0.00  0.00    +0.119 C 
BRANCH  14  15
ATOM     15  C   UNL     1       1.352   1.708  -0.134  0.00  0.00    -0.025 A 
ATOM     16  C   UNL     1       1.894   1.907  -1.390  0.00  0.00    +0.005 A 
ATOM     17  C   UNL     1       3.145   2.482  -1.520  0.00  0.00    +0.000 A 
ATOM     18  C   UNL     1       3.857   2.849  -0.394  0.00  0.00    +0.000 A 
ATOM     19  C   UNL     1       3.317   2.647   0.862  0.00  0.00    +0.000 A 
ATOM     20  C   UNL     1       2.065   2.076   0.992  0.00  0.00    +0.005 A 
ENDBRANCH  14  15
ENDBRANCH   1  14
BRANCH  11  21
ATOM     21  S   UNL     1      -0.845  -0.818   2.095  0.00  0.00    -0.080 S 
BRANCH  21  22
ATOM     22  C   UNL     1      -1.602  -1.338   3.655  0.00  0.00    +0.153 C 
BRANCH  22  23
ATOM     23  C   UNL     1      -1.460  -2.830   3.810  0.00  0.00    +0.146 A 
ATOM     24  N   UNL     1      -2.400  -3.634   3.346  0.00  0.00    -0.199 NA
ATOM     25  C   UNL     1      -2.275  -4.953   3.477  0.00  0.00    +0.217 A 
ATOM     26  N   UNL     1      -1.208  -5.460   4.084  0.00  0.00    -0.181 NA
ATOM     27  C   UNL     1      -0.267  -4.649   4.553  0.00  0.00    +0.217 A 
ATOM     28  N   UNL     1      -0.396  -3.331   4.414  0.00  0.00    -0.199 NA
ATOM     29  N   UNL     1       0.843  -5.171   5.185  0.00  0.00    -0.327 N 
ATOM     30  N   UNL     1      -3.256  -5.792   2.987  0.00  0.00    -0.327 N 
ATOM     31  H   UNL     1       1.530  -4.577   5.528  0.00  0.00    +0.145 HD
ATOM     32  H   UNL     1       0.937  -6.131   5.286  0.00  0.00    +0.145 HD
ATOM     33  H   UNL     1      -3.166  -6.752   3.086  0.00  0.00    +0.145 HD
ATOM     34  H   UNL     1      -4.035  -5.420   2.544  0.00  0.00    +0.145 HD
ENDBRANCH  22  23
ENDBRANCH  21  22
ENDBRANCH  11  21
TORSDOF 5
