REMARK  Name = ZINC11019711
REMARK  8 active torsions:
REMARK  status: ('A' for Active; 'I' for Inactive)
REMARK    1  A    between atoms: C_1  and  C_2
REMARK    2  A    between atoms: C_2  and  N_66
REMARK    3  A    between atoms: C_5  and  N_8
REMARK    4  A    between atoms: C_9  and  C_11
REMARK    5  A    between atoms: C_11  and  S_12
REMARK    6  A    between atoms: S_12  and  C_13
REMARK    7  A    between atoms: C_21  and  C_25
REMARK    8  A    between atoms: N_28  and  C_29
REMARK                            x       y       z     vdW  Elec       q    Type
REMARK                         _______ _______ _______ _____ _____    ______ ____
ROOT
ATOM      1  C   UNL     1       1.236  -4.338  -2.530  0.00  0.00    +0.178 A 
ATOM      2  N   UNL     1       2.069  -3.390  -2.937  0.00  0.00    -0.215 NA
ATOM      3  C   UNL     1       1.714  -2.131  -2.714  0.00  0.00    +0.117 A 
ATOM      4  C   UNL     1       0.512  -1.751  -2.074  0.00  0.00    +0.076 A 
ATOM      5  C   UNL     1       0.296  -0.322  -1.917  0.00  0.00    -0.023 A 
ATOM      6  C   UNL     1       1.262   0.495  -2.397  0.00  0.00    -0.004 A 
ATOM      7  S   UNL     1       2.494  -0.589  -3.075  0.00  0.00    -0.073 S 
ATOM      8  C   UNL     1       1.284   1.992  -2.362  0.00  0.00    +0.046 C 
ATOM      9  C   UNL     1       0.219   2.471  -1.366  0.00  0.00    -0.009 C 
ATOM     10  C   UNL     1      -1.088   1.726  -1.652  0.00  0.00    +0.008 C 
ATOM     11  C   UNL     1      -0.948   0.258  -1.249  0.00  0.00    +0.037 C 
ATOM     12  C   UNL     1       0.000   3.976  -1.534  0.00  0.00    +0.008 C 
ATOM     13  C   UNL     1      -0.364  -2.801  -1.648  0.00  0.00    +0.268 A 
ATOM     14  O   UNL     1      -1.422  -2.574  -1.087  0.00  0.00    -0.267 OA
ATOM     15  N   UNL     1       0.056  -4.062  -1.904  0.00  0.00    -0.255 N 
ENDROOT
BRANCH  15  16
ATOM     16  C   UNL     1      -0.758  -5.132  -1.510  0.00  0.00    +0.052 A 
ATOM     17  C   UNL     1      -0.604  -5.697  -0.251  0.00  0.00    +0.026 A 
ATOM     18  C   UNL     1      -1.413  -6.747   0.137  0.00  0.00    +0.002 A 
ATOM     19  C   UNL     1      -2.366  -7.245  -0.732  0.00  0.00    +0.000 A 
ATOM     20  C   UNL     1      -2.518  -6.688  -1.989  0.00  0.00    +0.002 A 
ATOM     21  C   UNL     1      -1.717  -5.633  -2.380  0.00  0.00    +0.026 A 
ENDBRANCH  15  16
BRANCH   1  22
ATOM     22  S   UNL     1       1.672  -6.023  -2.807  0.00  0.00    -0.078 S 
BRANCH  22  23
ATOM     23  C   UNL     1       3.267  -5.803  -3.634  0.00  0.00    +0.173 C 
BRANCH  23  25
ATOM     24  N   UNL     1       5.037  -7.235  -4.601  0.00  0.00    -0.312 N 
ATOM     25  C   UNL     1       3.846  -7.152  -3.976  0.00  0.00    +0.224 C 
ATOM     26  O   UNL     1       3.240  -8.162  -3.689  0.00  0.00    -0.275 OA
ATOM     27  H   UNL     1       5.522  -6.427  -4.831  0.00  0.00    +0.149 HD
BRANCH  24  30
ATOM     28  C   UNL     1       7.189  -9.767  -6.423  0.00  0.00    -0.077 C 
ATOM     29  C   UNL     1       6.559  -8.406  -6.119  0.00  0.00    +0.003 C 
ATOM     30  C   UNL     1       5.600  -8.546  -4.934  0.00  0.00    +0.069 C 
ATOM     31  C   UNL     1       6.368  -9.094  -3.728  0.00  0.00    +0.003 C 
ATOM     32  C   UNL     1       7.004 -10.435  -4.101  0.00  0.00    -0.077 C 
ATOM     33  N   UNL     1       7.934 -10.227  -5.232  0.00  0.00    +0.380 N 
ATOM     34  H   UNL     1       8.620  -9.510  -4.971  0.00  0.00    -0.082 HD
BRANCH  33  36
ATOM     35  C   UNL     1       9.178 -12.088  -4.236  0.00  0.00    -0.017 C 
ATOM     36  C   UNL     1       8.646 -11.485  -5.537  0.00  0.00    -0.082 C 
ENDBRANCH  33  36
ENDBRANCH  24  30
ENDBRANCH  23  25
ENDBRANCH  22  23
ENDBRANCH   1  22
TORSDOF 6
