REMARK  Name = ZINC06016048
REMARK  4 active torsions:
REMARK  status: ('A' for Active; 'I' for Inactive)
REMARK    1  A    between atoms: C_2  and  C_3
REMARK    2  A    between atoms: C_2  and  N_17
REMARK    3  A    between atoms: N_17  and  N_18
REMARK    4  A    between atoms: N_18  and  C_19
REMARK                            x       y       z     vdW  Elec       q    Type
REMARK                         _______ _______ _______ _____ _____    ______ ____
ROOT
ATOM      1  C   UNL     1      -0.037   1.290   0.030  0.00  0.00    +0.035 C 
ATOM      2  C   UNL     1       0.010  -0.022  -0.213  0.00  0.00    +0.044 C 
ENDROOT
BRANCH   2   3
ATOM      3  C   UNL     1      -1.242  -0.776  -0.450  0.00  0.00    -0.001 A 
ATOM      4  C   UNL     1      -1.194  -2.147  -0.699  0.00  0.00    +0.011 A 
ATOM      5  C   UNL     1      -2.364  -2.845  -0.915  0.00  0.00    +0.017 A 
ATOM      6  C   UNL     1      -3.588  -2.190  -0.889  0.00  0.00    +0.034 A 
ATOM      7  C   UNL     1      -3.646  -0.818  -0.646  0.00  0.00    +0.046 A 
ATOM      8  C   UNL     1      -2.470  -0.116  -0.419  0.00  0.00    +0.034 A 
ATOM      9  N   UNL     1      -4.854  -0.125  -0.625  0.00  0.00    -0.313 N 
ATOM     10  C   UNL     1      -6.095  -0.697  -0.354  0.00  0.00    +0.045 A 
ATOM     11  C   UNL     1      -7.115   0.114   0.134  0.00  0.00    +0.024 A 
ATOM     12  C   UNL     1      -8.360  -0.420   0.407  0.00  0.00    +0.002 A 
ATOM     13  C   UNL     1      -8.602  -1.764   0.198  0.00  0.00    +0.001 A 
ATOM     14  C   UNL     1      -7.595  -2.580  -0.285  0.00  0.00    +0.017 A 
ATOM     15  C   UNL     1      -6.341  -2.051  -0.560  0.00  0.00    +0.034 A 
ATOM     16  S   UNL     1      -5.067  -3.107  -1.163  0.00  0.00    -0.086 S 
ATOM     17  H   UNL     1      -4.829   0.826  -0.812  0.00  0.00    +0.152 HD
ENDBRANCH   2   3
BRANCH   2  18
ATOM     18  N   UNL     1       1.239  -0.682  -0.245  0.00  0.00    -0.266 N 
ATOM     19  H   UNL     1       1.273  -1.635  -0.422  0.00  0.00    +0.170 HD
BRANCH  18  20
ATOM     20  N   UNL     1       2.423   0.032  -0.021  0.00  0.00    -0.261 N 
ATOM     21  H   UNL     1       2.398   0.997   0.071  0.00  0.00    +0.170 HD
BRANCH  20  22
ATOM     22  C   UNL     1       3.587  -0.617   0.065  0.00  0.00    +0.116 C 
ATOM     23  C   UNL     1       3.795  -2.018   0.072  0.00  0.00    +0.024 A 
ATOM     24  C   UNL     1       2.930  -3.115  -0.002  0.00  0.00    +0.012 A 
ATOM     25  C   UNL     1       3.445  -4.396   0.029  0.00  0.00    +0.001 A 
ATOM     26  C   UNL     1       4.812  -4.598   0.134  0.00  0.00    +0.002 A 
ATOM     27  C   UNL     1       5.685  -3.525   0.208  0.00  0.00    +0.024 A 
ATOM     28  C   UNL     1       5.196  -2.222   0.179  0.00  0.00    +0.043 A 
ATOM     29  N   UNL     1       5.828  -1.015   0.236  0.00  0.00    -0.280 N 
ATOM     30  C   UNL     1       4.964  -0.018   0.170  0.00  0.00    +0.264 C 
ATOM     31  O   UNL     1       5.232   1.169   0.193  0.00  0.00    -0.268 OA
ATOM     32  H   UNL     1       6.789  -0.903   0.311  0.00  0.00    +0.155 HD
ENDBRANCH  20  22
ENDBRANCH  18  20
ENDBRANCH   2  18
TORSDOF 4
