REMARK  Name = ZINC13041374
REMARK  10 active torsions:
REMARK  status: ('A' for Active; 'I' for Inactive)
REMARK    1  A    between atoms: C_1  and  C_2
REMARK    2  A    between atoms: C_2  and  C_29
REMARK    3  A    between atoms: C_13  and  C_15
REMARK    4  A    between atoms: C_15  and  O_16
REMARK    5  A    between atoms: O_16  and  C_17
REMARK    6  A    between atoms: C_17  and  C_19
REMARK    7  A    between atoms: C_24  and  N_25
REMARK    8  A    between atoms: N_25  and  C_26
REMARK    9  A    between atoms: C_26  and  C_27
REMARK   10  A    between atoms: C_27  and  O_28
REMARK                            x       y       z     vdW  Elec       q    Type
REMARK                         _______ _______ _______ _____ _____    ______ ____
ROOT
ATOM      1  C   UNL     1      -5.146   1.183   0.569  0.00  0.00    +0.042 C 
ATOM      2  C   UNL     1      -3.851   1.963   0.804  0.00  0.00    +0.113 C 
ATOM      3  C   UNL     1      -4.048   3.402   0.401  0.00  0.00    +0.241 C 
ATOM      4  O   UNL     1      -5.144   3.910   0.512  0.00  0.00    -0.273 OA
ATOM      5  N   UNL     1      -3.022   4.130  -0.071  0.00  0.00    -0.282 N 
ATOM      6  C   UNL     1      -1.761   3.552  -0.261  0.00  0.00    +0.055 A 
ATOM      7  C   UNL     1      -0.645   4.344  -0.480  0.00  0.00    +0.025 A 
ATOM      8  C   UNL     1       0.590   3.753  -0.676  0.00  0.00    +0.002 A 
ATOM      9  C   UNL     1       0.718   2.376  -0.653  0.00  0.00    +0.002 A 
ATOM     10  C   UNL     1      -0.391   1.578  -0.433  0.00  0.00    +0.025 A 
ATOM     11  C   UNL     1      -1.630   2.163  -0.240  0.00  0.00    +0.059 A 
ATOM     12  N   UNL     1      -2.773   1.381  -0.010  0.00  0.00    -0.253 N 
ATOM     13  C   UNL     1      -2.878   0.137  -0.517  0.00  0.00    +0.258 C 
ATOM     14  O   UNL     1      -3.825  -0.561  -0.221  0.00  0.00    -0.271 OA
ATOM     15  C   UNL     1      -3.471   1.891   2.284  0.00  0.00    +0.042 C 
ATOM     16  H   UNL     1      -3.160   5.064  -0.293  0.00  0.00    +0.155 HD
ENDROOT
BRANCH  13  17
ATOM     17  C   UNL     1      -1.819  -0.388  -1.452  0.00  0.00    +0.328 C 
BRANCH  17  18
ATOM     18  O   UNL     1      -2.328  -1.551  -2.156  0.00  0.00    -0.452 OA
BRANCH  18  19
ATOM     19  C   UNL     1      -1.499  -2.144  -3.037  0.00  0.00    +0.341 C 
ATOM     20  O   UNL     1      -0.381  -1.702  -3.213  0.00  0.00    -0.245 OA
BRANCH  19  21
ATOM     21  C   UNL     1      -1.948  -3.330  -3.788  0.00  0.00    +0.080 A 
ATOM     22  C   UNL     1      -3.270  -3.772  -3.680  0.00  0.00    +0.017 A 
ATOM     23  C   UNL     1      -3.684  -4.877  -4.389  0.00  0.00    +0.001 A 
ATOM     24  C   UNL     1      -2.795  -5.563  -5.202  0.00  0.00    +0.002 A 
ATOM     25  C   UNL     1      -1.486  -5.143  -5.314  0.00  0.00    +0.024 A 
ATOM     26  C   UNL     1      -1.049  -4.026  -4.612  0.00  0.00    +0.041 A 
BRANCH  26  27
ATOM     27  N   UNL     1       0.268  -3.602  -4.723  0.00  0.00    -0.341 N 
ATOM     28  H   UNL     1       0.549  -2.776  -4.300  0.00  0.00    +0.146 HD
BRANCH  27  29
ATOM     29  C   UNL     1       1.234  -4.403  -5.480  0.00  0.00    +0.129 C 
BRANCH  29  30
ATOM     30  C   UNL     1       2.601  -3.717  -5.447  0.00  0.00    +0.174 C 
BRANCH  30  31
ATOM     31  O   UNL     1       3.093  -3.700  -4.105  0.00  0.00    -0.393 OA
ATOM     32  H   UNL     1       3.958  -3.279  -4.009  0.00  0.00    +0.209 HD
ENDBRANCH  30  31
ENDBRANCH  29  30
ENDBRANCH  27  29
ENDBRANCH  26  27
ENDBRANCH  19  21
ENDBRANCH  18  19
ENDBRANCH  17  18
ENDBRANCH  13  17
TORSDOF 8
