REMARK  Name = ZINC12522847
REMARK  9 active torsions:
REMARK  status: ('A' for Active; 'I' for Inactive)
REMARK    1  A    between atoms: C_1  and  C_2
REMARK    2  A    between atoms: C_8  and  N_10
REMARK    3  A    between atoms: C_11  and  C_13
REMARK    4  A    between atoms: C_13  and  S_14
REMARK    5  A    between atoms: S_14  and  C_15
REMARK    6  A    between atoms: C_18  and  C_26
REMARK    7  A    between atoms: N_19  and  C_20
REMARK    8  A    between atoms: C_26  and  C_28
REMARK    9  A    between atoms: C_26  and  N_66
REMARK                            x       y       z     vdW  Elec       q    Type
REMARK                         _______ _______ _______ _____ _____    ______ ____
ROOT
ATOM      1  C   UNL     1      -4.459   0.450  -4.935  0.00  0.00    +0.197 A 
ATOM      2  N   UNL     1      -3.955   1.599  -5.320  0.00  0.00    -0.122 NA
ATOM      3  N   UNL     1      -4.680   2.103  -6.255  0.00  0.00    -0.135 NA
ATOM      4  C   UNL     1      -5.687   1.319  -6.514  0.00  0.00    +0.125 A 
ATOM      5  N   UNL     1      -5.584   0.235  -5.683  0.00  0.00    -0.275 N 
ENDROOT
BRANCH   5   6
ATOM      6  C   UNL     1      -6.452  -0.865  -5.612  0.00  0.00    +0.050 A 
ATOM      7  C   UNL     1      -6.576  -1.723  -6.696  0.00  0.00    +0.026 A 
ATOM      8  C   UNL     1      -7.428  -2.808  -6.621  0.00  0.00    +0.002 A 
ATOM      9  C   UNL     1      -8.164  -3.033  -5.473  0.00  0.00    +0.000 A 
ATOM     10  C   UNL     1      -8.046  -2.177  -4.394  0.00  0.00    +0.002 A 
ATOM     11  C   UNL     1      -7.192  -1.093  -4.460  0.00  0.00    +0.026 A 
ENDBRANCH   5   6
BRANCH   4  12
ATOM     12  C   UNL     1      -6.766   1.559  -7.539  0.00  0.00    -0.002 C 
ATOM     13  C   UNL     1      -7.712   2.651  -7.037  0.00  0.00    -0.005 C 
BRANCH  12  19
ATOM     14  C   UNL     1      -7.174   2.201  -9.837  0.00  0.00    -0.078 C 
ATOM     15  C   UNL     1      -6.517   2.781 -11.092  0.00  0.00    -0.019 C 
ATOM     16  C   UNL     1      -5.449   1.809 -11.599  0.00  0.00    -0.004 C 
ATOM     17  C   UNL     1      -4.424   1.564 -10.488  0.00  0.00    -0.019 C 
ATOM     18  C   UNL     1      -5.141   1.019  -9.251  0.00  0.00    -0.078 C 
ATOM     19  N   UNL     1      -6.139   2.011  -8.798  0.00  0.00    +0.386 N 
ATOM     20  H   UNL     1      -5.666   2.907  -8.632  0.00  0.00    -0.081 HD
ENDBRANCH  12  19
ENDBRANCH   4  12
BRANCH   1  21
ATOM     21  S   UNL     1      -3.812  -0.611  -3.686  0.00  0.00    -0.076 S 
BRANCH  21  22
ATOM     22  C   UNL     1      -2.357   0.342  -3.186  0.00  0.00    +0.173 C 
BRANCH  22  24
ATOM     23  N   UNL     1      -0.503   0.130  -1.562  0.00  0.00    -0.312 N 
ATOM     24  C   UNL     1      -1.625  -0.395  -2.093  0.00  0.00    +0.224 C 
ATOM     25  O   UNL     1      -2.046  -1.459  -1.692  0.00  0.00    -0.275 OA
ATOM     26  H   UNL     1      -0.167   0.981  -1.883  0.00  0.00    +0.149 HD
BRANCH  23  33
ATOM     27  C   UNL     1       2.306  -0.512  -1.855  0.00  0.00    +0.009 C 
ATOM     28  C   UNL     1       1.680  -0.170  -0.502  0.00  0.00    +0.006 C 
ATOM     29  C   UNL     1       2.423  -0.917   0.608  0.00  0.00    +0.005 C 
ATOM     30  C   UNL     1       1.798  -0.574   1.961  0.00  0.00    +0.000 C 
ATOM     31  C   UNL     1       0.326  -0.991   1.963  0.00  0.00    +0.002 C 
ATOM     32  C   UNL     1      -0.417  -0.243   0.854  0.00  0.00    +0.022 C 
ATOM     33  C   UNL     1       0.208  -0.586  -0.500  0.00  0.00    +0.076 C 
ENDBRANCH  23  33
ENDBRANCH  22  24
ENDBRANCH  21  22
ENDBRANCH   1  21
TORSDOF 7
