REMARK  Name = ZINC63822810
REMARK  3 active torsions:
REMARK  status: ('A' for Active; 'I' for Inactive)
REMARK    1  A    between atoms: C_1  and  C_2
REMARK    2  A    between atoms: C_4  and  C_21
REMARK    3  A    between atoms: N_12  and  C_14
REMARK                            x       y       z     vdW  Elec       q    Type
REMARK                         _______ _______ _______ _____ _____    ______ ____
ROOT
ATOM      1  C   UNL     1      -0.028   1.507  -0.032  0.00  0.00    +0.062 C 
ATOM      2  C   UNL     1      -0.005  -0.000  -0.039  0.00  0.00    +0.022 C 
ATOM      3  C   UNL     1      -1.064  -0.751   0.074  0.00  0.00    -0.004 C 
ATOM      4  C   UNL     1      -2.496  -0.389   0.386  0.00  0.00    +0.059 C 
ATOM      5  C   UNL     1      -2.844  -1.100   1.701  0.00  0.00    +0.108 C 
ATOM      6  C   UNL     1      -2.231  -2.461   1.776  0.00  0.00    +0.216 C 
ATOM      7  O   UNL     1      -2.732  -3.234   2.564  0.00  0.00    -0.276 OA
ATOM      8  N   UNL     1      -1.195  -2.923   1.074  0.00  0.00    -0.292 N 
ATOM      9  C   UNL     1      -0.624  -2.200  -0.054  0.00  0.00    +0.210 C 
ATOM     10  N   UNL     1       0.838  -2.128  -0.016  0.00  0.00    -0.210 N 
ATOM     11  N   UNL     1       1.145  -0.763  -0.172  0.00  0.00    -0.265 N 
ATOM     12  H   UNL     1      -0.806  -3.776   1.325  0.00  0.00    +0.151 HD
ATOM     13  H   UNL     1       2.031  -0.408  -0.344  0.00  0.00    +0.170 HD
ENDROOT
BRANCH  10  14
ATOM     14  C   UNL     1       1.733  -3.185   0.136  0.00  0.00    +0.162 A 
ATOM     15  C   UNL     1       3.107  -2.942   0.152  0.00  0.00    +0.052 A 
ATOM     16  C   UNL     1       3.956  -4.025   0.306  0.00  0.00    +0.077 A 
ATOM     17  C   UNL     1       3.385  -5.289   0.436  0.00  0.00    +0.289 A 
ATOM     18  O   UNL     1       4.179  -6.381   0.590  0.00  0.00    -0.264 OA
ATOM     19  N   UNL     1       2.071  -5.425   0.410  0.00  0.00    -0.105 NA
ATOM     20  N   UNL     1       1.282  -4.422   0.273  0.00  0.00    -0.129 NA
ENDBRANCH  10  14
BRANCH   4  21
ATOM     21  C   UNL     1      -2.629   1.103   0.551  0.00  0.00    -0.039 A 
ATOM     22  C   UNL     1      -2.375   1.688   1.777  0.00  0.00    +0.007 A 
ATOM     23  C   UNL     1      -2.496   3.056   1.930  0.00  0.00    +0.038 A 
ATOM     24  C   UNL     1      -2.872   3.841   0.853  0.00  0.00    +0.123 A 
ATOM     25  C   UNL     1      -3.126   3.255  -0.375  0.00  0.00    +0.038 A 
ATOM     26  C   UNL     1      -2.999   1.887  -0.526  0.00  0.00    +0.007 A 
ATOM     27  F   UNL     1      -2.990   5.179   1.001  0.00  0.00    -0.205 F 
ENDBRANCH   4  21
TORSDOF 2
