REMARK  Name = ZINC43218956
REMARK  9 active torsions:
REMARK  status: ('A' for Active; 'I' for Inactive)
REMARK    1  A    between atoms: C_1  and  C_2
REMARK    2  A    between atoms: C_2  and  C_4
REMARK    3  A    between atoms: C_7  and  N_10
REMARK    4  A    between atoms: C_15  and  C_32
REMARK    5  A    between atoms: C_18  and  C_23
REMARK    6  A    between atoms: C_18  and  C_29
REMARK    7  A    between atoms: C_35  and  O_38
REMARK    8  A    between atoms: O_38  and  C_39
REMARK    9  A    between atoms: C_39  and  C_41
REMARK                            x       y       z     vdW  Elec       q    Type
REMARK                         _______ _______ _______ _____ _____    ______ ____
ROOT
ATOM      1  N   UNL     1      -0.210  -2.421  -5.296  0.00  0.00    -0.210 N 
ATOM      2  C   UNL     1      -0.223  -1.984  -6.597  0.00  0.00    +0.229 C 
ATOM      3  O   UNL     1      -0.063  -0.852  -7.000  0.00  0.00    -0.275 OA
ATOM      4  C   UNL     1      -0.471  -3.173  -7.379  0.00  0.00    +0.078 C 
ATOM      5  C   UNL     1      -0.340  -3.664  -8.758  0.00  0.00    -0.026 C 
ATOM      6  N   UNL     1      -0.390  -5.158  -8.626  0.00  0.00    +0.398 N 
ATOM      7  C   UNL     1      -0.424  -5.481  -7.162  0.00  0.00    +0.074 C 
ATOM      8  C   UNL     1       0.310  -4.269  -6.548  0.00  0.00    +0.090 C 
ATOM      9  C   UNL     1      -0.132  -3.781  -5.196  0.00  0.00    +0.229 C 
ATOM     10  O   UNL     1      -0.371  -4.457  -4.218  0.00  0.00    -0.275 OA
ATOM     11  H   UNL     1      -1.221  -5.513  -9.074  0.00  0.00    -0.083 HD
ATOM     12  H   UNL     1       0.430  -5.567  -9.048  0.00  0.00    -0.083 HD
ENDROOT
BRANCH   1  16
ATOM     13  C   UNL     1      -0.374   0.130  -2.003  0.00  0.00    +0.017 A 
ATOM     14  C   UNL     1      -0.398   0.655  -3.300  0.00  0.00    +0.013 A 
ATOM     15  C   UNL     1      -0.343  -0.191  -4.384  0.00  0.00    +0.024 A 
ATOM     16  C   UNL     1      -0.265  -1.566  -4.192  0.00  0.00    +0.044 A 
ATOM     17  C   UNL     1      -0.240  -2.094  -2.905  0.00  0.00    +0.024 A 
ATOM     18  C   UNL     1      -0.289  -1.255  -1.815  0.00  0.00    +0.013 A 
BRANCH  13  20
ATOM     19  C   UNL     1      -0.524   2.519  -1.047  0.00  0.00    +0.091 C 
ATOM     20  C   UNL     1      -0.432   1.029  -0.842  0.00  0.00    +0.160 C 
ATOM     21  O   UNL     1      -0.407   0.571   0.281  0.00  0.00    -0.292 OA
ENDBRANCH  13  20
ENDBRANCH   1  16
BRANCH   7  22
ATOM     22  C   UNL     1      -1.845  -5.581  -6.670  0.00  0.00    -0.047 A 
ATOM     23  C   UNL     1      -2.885  -5.141  -7.467  0.00  0.00    +0.003 A 
ATOM     24  C   UNL     1      -4.188  -5.233  -7.016  0.00  0.00    +0.000 A 
ATOM     25  C   UNL     1      -4.451  -5.766  -5.768  0.00  0.00    +0.000 A 
ATOM     26  C   UNL     1      -3.411  -6.207  -4.971  0.00  0.00    +0.000 A 
ATOM     27  C   UNL     1      -2.108  -6.119  -5.424  0.00  0.00    +0.003 A 
ENDBRANCH   7  22
BRANCH   5  28
ATOM     28  C   UNL     1       0.977  -3.229  -9.349  0.00  0.00    -0.060 A 
ATOM     29  C   UNL     1       2.133  -3.924  -9.047  0.00  0.00    +0.005 A 
ATOM     30  C   UNL     1       3.340  -3.527  -9.587  0.00  0.00    +0.046 A 
ATOM     31  C   UNL     1       3.392  -2.430 -10.434  0.00  0.00    +0.132 A 
ATOM     32  C   UNL     1       2.231  -1.734 -10.736  0.00  0.00    +0.046 A 
ATOM     33  C   UNL     1       1.025  -2.138 -10.198  0.00  0.00    +0.005 A 
BRANCH  31  34
ATOM     34  O   UNL     1       4.580  -2.037 -10.967  0.00  0.00    -0.426 OA
BRANCH  34  35
ATOM     35  C   UNL     1       5.082  -2.753 -11.985  0.00  0.00    +0.309 C 
ATOM     36  O   UNL     1       4.442  -3.663 -12.457  0.00  0.00    -0.251 OA
ATOM     37  C   UNL     1       6.443  -2.422 -12.540  0.00  0.00    +0.136 C 
ENDBRANCH  34  35
ENDBRANCH  31  34
ENDBRANCH   5  28
BRANCH   7  38
ATOM     38  C   UNL     1       0.333  -6.753  -6.878  0.00  0.00    +0.350 C 
ATOM     39  O   UNL     1       0.842  -7.376  -7.794  0.00  0.00    -0.248 OA
ATOM     40  O   UNL     1       0.435  -7.159  -5.733  0.00  0.00    -0.248 OA
ENDBRANCH   7  38
TORSDOF 7
