REMARK  Name = ZINC09593355
REMARK  10 active torsions:
REMARK  status: ('A' for Active; 'I' for Inactive)
REMARK    1  A    between atoms: C_1  and  C_2
REMARK    2  A    between atoms: C_5  and  S_8
REMARK    3  A    between atoms: S_8  and  N_11
REMARK    4  A    between atoms: N_11  and  C_12
REMARK    5  A    between atoms: N_11  and  C_13
REMARK    6  A    between atoms: C_16  and  C_19
REMARK    7  A    between atoms: N_21  and  C_22
REMARK    8  A    between atoms: C_22  and  C_23
REMARK    9  A    between atoms: C_23  and  C_25
REMARK   10  A    between atoms: C_23  and  N_65
REMARK                            x       y       z     vdW  Elec       q    Type
REMARK                         _______ _______ _______ _____ _____    ______ ____
ROOT
ATOM      1  C   UNL     1      -5.718   2.071   4.856  0.00  0.00    +0.051 A 
ATOM      2  C   UNL     1      -6.589   1.234   4.165  0.00  0.00    +0.025 A 
ATOM      3  C   UNL     1      -6.221   0.710   2.947  0.00  0.00    +0.015 A 
ATOM      4  C   UNL     1      -4.970   1.020   2.404  0.00  0.00    +0.037 A 
ATOM      5  C   UNL     1      -4.095   1.856   3.103  0.00  0.00    +0.015 A 
ATOM      6  C   UNL     1      -4.472   2.381   4.318  0.00  0.00    +0.025 A 
ENDROOT
BRANCH   4   7
ATOM      7  C   UNL     1      -4.572   0.460   1.098  0.00  0.00    +0.244 C 
ATOM      8  O   UNL     1      -5.332  -0.272   0.493  0.00  0.00    -0.270 OA
ATOM      9  N   UNL     1      -3.366   0.759   0.576  0.00  0.00    -0.313 N 
ATOM     10  H   UNL     1      -2.760   1.343   1.059  0.00  0.00    +0.149 HD
BRANCH   9  11
ATOM     11  C   UNL     1      -2.970   0.203  -0.720  0.00  0.00    +0.094 C 
BRANCH  11  12
ATOM     12  C   UNL     1      -1.520   0.587  -1.019  0.00  0.00    -0.020 C 
BRANCH  12  13
ATOM     13  C   UNL     1      -0.609  -0.075  -0.017  0.00  0.00    -0.059 A 
ATOM     14  C   UNL     1      -0.259  -1.403  -0.174  0.00  0.00    +0.002 A 
ATOM     15  C   UNL     1       0.581  -2.009   0.742  0.00  0.00    +0.000 A 
ATOM     16  C   UNL     1       1.063  -1.290   1.820  0.00  0.00    +0.000 A 
ATOM     17  C   UNL     1       0.708   0.037   1.979  0.00  0.00    +0.000 A 
ATOM     18  C   UNL     1      -0.128   0.644   1.061  0.00  0.00    +0.002 A 
ENDBRANCH  12  13
BRANCH  12  23
ATOM     19  C   UNL     1      -2.053   0.765  -3.388  0.00  0.00    -0.078 C 
ATOM     20  C   UNL     1      -1.241   0.628  -4.700  0.00  0.00    -0.020 C 
ATOM     21  C   UNL     1       0.213   0.871  -4.235  0.00  0.00    -0.020 C 
ATOM     22  C   UNL     1       0.209   0.564  -2.726  0.00  0.00    -0.078 C 
ATOM     23  N   UNL     1      -1.156   0.146  -2.399  0.00  0.00    +0.385 N 
ATOM     24  H   UNL     1      -1.228  -0.876  -2.456  0.00  0.00    -0.081 HD
ENDBRANCH  12  23
ENDBRANCH  11  12
ENDBRANCH   9  11
ENDBRANCH   4   7
BRANCH   1  25
ATOM     25  N   UNL     1      -6.093   2.599   6.087  0.00  0.00    -0.206 N 
ATOM     26  C   UNL     1      -7.511   2.781   6.404  0.00  0.00    +0.157 C 
BRANCH  25  27
ATOM     27  S   UNL     1      -4.936   3.021   7.194  0.00  0.00    +0.074 S 
ATOM     28  O   UNL     1      -5.553   2.950   8.473  0.00  0.00    -0.150 OA
ATOM     29  O   UNL     1      -3.771   2.276   6.868  0.00  0.00    -0.150 OA
BRANCH  27  34
ATOM     30  C   UNL     1      -3.593   8.826   6.246  0.00  0.00    +0.044 C 
ATOM     31  C   UNL     1      -3.929   7.376   6.483  0.00  0.00    -0.050 A 
ATOM     32  C   UNL     1      -5.022   7.037   7.257  0.00  0.00    +0.005 A 
ATOM     33  C   UNL     1      -5.330   5.707   7.475  0.00  0.00    +0.029 A 
ATOM     34  C   UNL     1      -4.544   4.716   6.917  0.00  0.00    +0.109 A 
ATOM     35  C   UNL     1      -3.447   5.055   6.147  0.00  0.00    +0.029 A 
ATOM     36  C   UNL     1      -3.143   6.385   5.926  0.00  0.00    +0.005 A 
ENDBRANCH  27  34
ENDBRANCH  25  27
ENDBRANCH   1  25
TORSDOF 8
