REMARK  Name = ZINC53113545
REMARK  7 active torsions:
REMARK  status: ('A' for Active; 'I' for Inactive)
REMARK    1  A    between atoms: C_1  and  C_2
REMARK    2  A    between atoms: C_7  and  C_9
REMARK    3  A    between atoms: C_7  and  N_11
REMARK    4  A    between atoms: C_9  and  O_10
REMARK    5  A    between atoms: N_11  and  S_12
REMARK    6  A    between atoms: S_12  and  C_15
REMARK    7  A    between atoms: C_16  and  N_22
REMARK                            x       y       z     vdW  Elec       q    Type
REMARK                         _______ _______ _______ _____ _____    ______ ____
ROOT
ATOM      1  S   UNL     1       0.930   1.792   2.624  0.00  0.00    +0.063 S 
ATOM      2  O   UNL     1       0.998   3.196   2.416  0.00  0.00    -0.153 OA
ATOM      3  O   UNL     1      -0.264   1.139   3.032  0.00  0.00    -0.153 OA
ENDROOT
BRANCH   1   4
ATOM      4  C   UNL     1       2.155   1.402   3.829  0.00  0.00    +0.161 A 
ATOM      5  C   UNL     1       3.416   1.978   3.751  0.00  0.00    +0.054 A 
ATOM      6  C   UNL     1       4.379   1.668   4.703  0.00  0.00    +0.025 A 
ATOM      7  C   UNL     1       4.080   0.788   5.725  0.00  0.00    +0.005 A 
ATOM      8  C   UNL     1       2.825   0.214   5.801  0.00  0.00    +0.040 A 
ATOM      9  C   UNL     1       1.860   0.525   4.857  0.00  0.00    +0.151 A 
ATOM     10  F   UNL     1       0.632  -0.033   4.937  0.00  0.00    -0.203 F 
BRANCH   5  11
ATOM     11  N   UNL     1       3.716   2.868   2.717  0.00  0.00    -0.356 N 
ATOM     12  H   UNL     1       3.034   3.109   2.071  0.00  0.00    +0.142 HD
ATOM     13  H   UNL     1       4.607   3.245   2.644  0.00  0.00    +0.142 HD
ENDBRANCH   5  11
ENDBRANCH   1   4
BRANCH   1  14
ATOM     14  N   UNL     1       1.397   1.081   1.203  0.00  0.00    -0.182 NA
ATOM     15  H   UNL     1       1.702   1.629   0.463  0.00  0.00    +0.149 HD
BRANCH  14  21
ATOM     16  C   UNL     1      -0.819   1.327   0.074  0.00  0.00    +0.007 C 
ATOM     17  C   UNL     1      -0.869  -0.196  -0.072  0.00  0.00    -0.012 C 
ATOM     18  C   UNL     1      -0.224  -0.602  -1.398  0.00  0.00    +0.003 C 
ATOM     19  C   UNL     1       1.233  -0.135  -1.421  0.00  0.00    +0.002 C 
ATOM     20  C   UNL     1       1.995  -0.784  -0.263  0.00  0.00    +0.026 C 
ATOM     21  C   UNL     1       1.349  -0.377   1.063  0.00  0.00    +0.063 C 
ATOM     22  C   UNL     1      -0.107  -0.844   1.086  0.00  0.00    +0.029 C 
BRANCH  21  23
ATOM     23  C   UNL     1       2.111  -1.025   2.221  0.00  0.00    +0.179 C 
BRANCH  23  24
ATOM     24  O   UNL     1       3.482  -0.625   2.173  0.00  0.00    -0.393 OA
ATOM     25  H   UNL     1       4.026  -1.000   2.879  0.00  0.00    +0.209 HD
ENDBRANCH  23  24
ENDBRANCH  21  23
ENDBRANCH  14  21
ENDBRANCH   1  14
TORSDOF 6
