REMARK  Name = ZINC58434468
REMARK  10 active torsions:
REMARK  status: ('A' for Active; 'I' for Inactive)
REMARK    1  A    between atoms: C_1  and  C_2
REMARK    2  A    between atoms: C_2  and  C_3
REMARK    3  A    between atoms: C_2  and  C_4
REMARK    4  A    between atoms: C_7  and  N_10
REMARK    5  A    between atoms: C_14  and  S_15
REMARK    6  A    between atoms: S_15  and  C_16
REMARK    7  A    between atoms: C_16  and  C_17
REMARK    8  A    between atoms: N_19  and  C_20
REMARK    9  A    between atoms: C_25  and  N_26
REMARK   10  A    between atoms: C_29  and  C_32
REMARK                            x       y       z     vdW  Elec       q    Type
REMARK                         _______ _______ _______ _____ _____    ______ ____
ROOT
ATOM      1  C   UNL     1      -7.491  -0.859  -4.802  0.00  0.00    +0.228 C 
ATOM      2  O   UNL     1      -6.465  -0.339  -5.185  0.00  0.00    -0.275 OA
ATOM      3  N   UNL     1      -8.557  -0.931  -5.623  0.00  0.00    -0.283 N 
ATOM      4  H   UNL     1      -9.350  -1.417  -5.347  0.00  0.00    +0.155 HD
ENDROOT
BRANCH   3   5
ATOM      5  C   UNL     1      -8.520  -0.306  -6.877  0.00  0.00    +0.055 A 
ATOM      6  C   UNL     1      -7.676   0.774  -7.090  0.00  0.00    +0.025 A 
ATOM      7  C   UNL     1      -7.642   1.390  -8.327  0.00  0.00    +0.002 A 
ATOM      8  C   UNL     1      -8.446   0.933  -9.355  0.00  0.00    +0.002 A 
ATOM      9  C   UNL     1      -9.290  -0.143  -9.151  0.00  0.00    +0.025 A 
ATOM     10  C   UNL     1      -9.327  -0.771  -7.915  0.00  0.00    +0.051 A 
BRANCH  10  11
ATOM     11  N   UNL     1     -10.176  -1.863  -7.708  0.00  0.00    -0.328 N 
ATOM     12  C   UNL     1     -11.554  -1.662  -7.238  0.00  0.00    +0.106 C 
ATOM     13  C   UNL     1     -11.779  -2.521  -5.990  0.00  0.00    +0.031 C 
ATOM     14  C   UNL     1     -11.429  -3.976  -6.306  0.00  0.00    +0.078 C 
ATOM     15  C   UNL     1      -9.954  -4.074  -6.700  0.00  0.00    +0.031 C 
ATOM     16  C   UNL     1      -9.709  -3.233  -7.962  0.00  0.00    +0.106 C 
BRANCH  14  17
ATOM     17  C   UNL     1     -11.683  -4.830  -5.090  0.00  0.00    +0.214 C 
ATOM     18  O   UNL     1     -12.101  -4.324  -4.071  0.00  0.00    -0.276 OA
ATOM     19  N   UNL     1     -11.443  -6.155  -5.136  0.00  0.00    -0.329 N 
ATOM     20  H   UNL     1     -11.108  -6.560  -5.951  0.00  0.00    +0.145 HD
ATOM     21  H   UNL     1     -11.606  -6.705  -4.353  0.00  0.00    +0.145 HD
ENDBRANCH  14  17
ENDBRANCH  10  11
ENDBRANCH   3   5
BRANCH   1  22
ATOM     22  C   UNL     1      -7.575  -1.423  -3.407  0.00  0.00    +0.173 C 
BRANCH  22  23
ATOM     23  S   UNL     1      -5.992  -1.173  -2.558  0.00  0.00    -0.076 S 
BRANCH  23  28
ATOM     24  N   UNL     1      -5.337  -1.936   0.056  0.00  0.00    -0.277 N 
ATOM     25  C   UNL     1      -5.981  -2.559   1.092  0.00  0.00    +0.230 A 
ATOM     26  N   UNL     1      -7.186  -2.843   0.684  0.00  0.00    -0.137 NA
ATOM     27  N   UNL     1      -7.348  -2.446  -0.528  0.00  0.00    -0.122 NA
ATOM     28  C   UNL     1      -6.247  -1.877  -0.963  0.00  0.00    +0.196 A 
BRANCH  24  32
ATOM     29  C   UNL     1      -1.422  -0.503   0.024  0.00  0.00    -0.045 A 
ATOM     30  C   UNL     1      -2.269  -0.171   1.064  0.00  0.00    +0.006 A 
ATOM     31  C   UNL     1      -3.567  -0.644   1.078  0.00  0.00    +0.026 A 
ATOM     32  C   UNL     1      -4.020  -1.454   0.045  0.00  0.00    +0.050 A 
ATOM     33  C   UNL     1      -3.167  -1.786  -0.998  0.00  0.00    +0.026 A 
ATOM     34  C   UNL     1      -1.872  -1.305  -1.009  0.00  0.00    +0.006 A 
BRANCH  29  36
ATOM     35  C   UNL     1      -0.023   1.545   0.009  0.00  0.00    +0.012 C 
ATOM     36  C   UNL     1      -0.006   0.015   0.012  0.00  0.00    +0.013 C 
ATOM     37  C   UNL     1       0.730  -0.485   1.256  0.00  0.00    +0.012 C 
ENDBRANCH  29  36
ENDBRANCH  24  32
ENDBRANCH  23  28
ENDBRANCH  22  23
ENDBRANCH   1  22
TORSDOF 8
