REMARK  Name = ZINC31174674
REMARK  11 active torsions:
REMARK  status: ('A' for Active; 'I' for Inactive)
REMARK    1  A    between atoms: C_1  and  C_2
REMARK    2  A    between atoms: C_2  and  N_3
REMARK    3  A    between atoms: N_3  and  C_4
REMARK    4  A    between atoms: N_3  and  C_16
REMARK    5  A    between atoms: C_4  and  C_5
REMARK    6  A    between atoms: C_16  and  C_17
REMARK    7  A    between atoms: N_19  and  C_20
REMARK    8  A    between atoms: C_21  and  C_32
REMARK    9  A    between atoms: C_22  and  C_31
REMARK   10  A    between atoms: C_23  and  C_30
REMARK   11  A    between atoms: N_24  and  C_25
REMARK                            x       y       z     vdW  Elec       q    Type
REMARK                         _______ _______ _______ _____ _____    ______ ____
ROOT
ATOM      1  C   UNL     1       1.236   9.941  -1.059  0.00  0.00    +0.202 C 
ATOM      2  O   UNL     1       1.812   9.245  -1.869  0.00  0.00    -0.278 OA
ATOM      3  N   UNL     1       1.635  11.213  -0.860  0.00  0.00    -0.272 N 
ATOM      4  H   UNL     1       1.179  11.813  -0.058  0.00  0.00    +0.156 HD
ENDROOT
BRANCH   3   5
ATOM      5  C   UNL     1       2.619  11.766  -1.666  0.00  0.00    +0.123 A 
ATOM      6  C   UNL     1       2.871  11.436  -2.990  0.00  0.00    +0.095 A 
ATOM      7  C   UNL     1       3.996  12.280  -3.410  0.00  0.00    -0.011 A 
ATOM      8  C   UNL     1       4.331  13.032  -2.349  0.00  0.00    +0.022 A 
ATOM      9  N   UNL     1       3.502  12.731  -1.301  0.00  0.00    -0.329 N 
ATOM     10  C   UNL     1       5.439  14.052  -2.318  0.00  0.00    +0.064 C 
ATOM     11  C   UNL     1       4.649  12.299  -4.768  0.00  0.00    +0.047 C 
BRANCH   9  12
ATOM     12  C   UNL     1       3.563  13.355   0.023  0.00  0.00    +0.089 C 
ATOM     13  C   UNL     1       3.906  12.297   1.091  0.00  0.00    +0.025 C 
ATOM     14  C   UNL     1       3.062  12.714   2.322  0.00  0.00    +0.002 C 
ATOM     15  C   UNL     1       1.738  13.200   1.681  0.00  0.00    +0.002 C 
ATOM     16  C   UNL     1       2.185  13.930   0.398  0.00  0.00    +0.025 C 
ENDBRANCH   9  12
BRANCH   6  17
ATOM     17  C   UNL     1       2.175  10.469  -3.785  0.00  0.00    +0.103 C 
ATOM     18  N   UNL     1       1.623   9.702  -4.415  0.00  0.00    -0.191 NA
ENDBRANCH   6  17
ENDBRANCH   3   5
BRANCH   1  19
ATOM     19  C   UNL     1       0.075   9.384  -0.276  0.00  0.00    +0.019 C 
BRANCH  19  20
ATOM     20  N   UNL     1      -0.234   8.030  -0.756  0.00  0.00    +0.388 N 
ATOM     21  H   UNL     1      -0.189   8.043  -1.855  0.00  0.00    -0.081 HD
BRANCH  20  23
ATOM     22  C   UNL     1      -2.607   8.587  -0.994  0.00  0.00    -0.017 C 
ATOM     23  C   UNL     1      -1.592   7.631  -0.364  0.00  0.00    -0.081 C 
ENDBRANCH  20  23
BRANCH  20  24
ATOM     24  C   UNL     1       0.759   7.061  -0.275  0.00  0.00    -0.030 C 
BRANCH  24  25
ATOM     25  C   UNL     1       0.553   5.723  -0.988  0.00  0.00    +0.195 C 
ATOM     26  C   UNL     1       1.505   4.672  -0.402  0.00  0.00    +0.271 C 
ATOM     27  O   UNL     1       1.296   3.439  -1.099  0.00  0.00    -0.485 OA
ATOM     28  C   UNL     1       1.232   3.509  -2.457  0.00  0.00    +0.162 A 
ATOM     29  C   UNL     1       1.390   2.352  -3.206  0.00  0.00    +0.049 A 
ATOM     30  C   UNL     1       1.329   2.407  -4.586  0.00  0.00    +0.004 A 
ATOM     31  C   UNL     1       1.100   3.612  -5.222  0.00  0.00    +0.004 A 
ATOM     32  C   UNL     1       0.937   4.768  -4.482  0.00  0.00    +0.049 A 
ATOM     33  C   UNL     1       1.004   4.721  -3.097  0.00  0.00    +0.162 A 
ATOM     34  O   UNL     1       0.850   5.868  -2.382  0.00  0.00    -0.484 OA
ENDBRANCH  24  25
ENDBRANCH  20  24
ENDBRANCH  19  20
ENDBRANCH   1  19
TORSDOF 8
