REMARK  Name = ZINC24515488
REMARK  8 active torsions:
REMARK  status: ('A' for Active; 'I' for Inactive)
REMARK    1  A    between atoms: C_1  and  C_2
REMARK    2  A    between atoms: C_5  and  N_9
REMARK    3  A    between atoms: C_7  and  C_8
REMARK    4  A    between atoms: C_10  and  S_14
REMARK    5  A    between atoms: S_14  and  C_15
REMARK    6  A    between atoms: C_15  and  C_16
REMARK    7  A    between atoms: C_18  and  O_19
REMARK    8  A    between atoms: C_28  and  C_30
REMARK                            x       y       z     vdW  Elec       q    Type
REMARK                         _______ _______ _______ _____ _____    ______ ____
ROOT
ATOM      1  C   UNL     1       7.247  -0.549   2.856  0.00  0.00    -0.020 A 
ATOM      2  C   UNL     1       7.630  -1.720   2.284  0.00  0.00    +0.092 A 
ATOM      3  C   UNL     1       7.905  -2.840   3.096  0.00  0.00    +0.285 A 
ATOM      4  O   UNL     1       7.798  -2.785   4.433  0.00  0.00    -0.425 OA
ATOM      5  C   UNL     1       7.422  -1.652   5.064  0.00  0.00    +0.141 A 
ATOM      6  C   UNL     1       7.138  -0.494   4.315  0.00  0.00    +0.022 A 
ATOM      7  C   UNL     1       6.742   0.681   4.964  0.00  0.00    +0.013 A 
ATOM      8  C   UNL     1       6.643   0.704   6.325  0.00  0.00    +0.024 A 
ATOM      9  C   UNL     1       6.928  -0.438   7.073  0.00  0.00    +0.037 A 
ATOM     10  C   UNL     1       7.317  -1.612   6.446  0.00  0.00    +0.070 A 
ATOM     11  N   UNL     1       6.822  -0.399   8.464  0.00  0.00    -0.286 N 
ATOM     12  C   UNL     1       7.662  -1.128   9.225  0.00  0.00    +0.214 C 
ATOM     13  O   UNL     1       8.569  -1.744   8.707  0.00  0.00    -0.276 OA
ATOM     14  C   UNL     1       7.473  -1.180  10.719  0.00  0.00    +0.109 C 
ATOM     15  H   UNL     1       6.053   0.228   8.939  0.00  0.00    +0.155 HD
ENDROOT
BRANCH   3  16
ATOM     16  O   UNL     1       8.248  -3.884   2.571  0.00  0.00    -0.480 OA
ATOM     17  H   UNL     1       8.466  -4.766   3.191  0.00  0.00    +0.295 HD
ENDBRANCH   3  16
BRANCH   1  18
ATOM     18  C   UNL     1       6.947   0.662   2.011  0.00  0.00    +0.113 C 
BRANCH  18  19
ATOM     19  S   UNL     1       5.193   0.667   1.563  0.00  0.00    -0.080 S 
BRANCH  19  21
ATOM     20  N   UNL     1       4.029   2.664  -0.000  0.00  0.00    -0.187 N 
ATOM     21  C   UNL     1       5.125   2.146   0.607  0.00  0.00    +0.214 A 
ATOM     22  N   UNL     1       6.129   2.955   0.346  0.00  0.00    -0.101 NA
ATOM     23  N   UNL     1       5.735   3.943  -0.372  0.00  0.00    -0.022 NA
ATOM     24  N   UNL     1       4.476   3.841  -0.625  0.00  0.00    -0.038 NA
BRANCH  20  29
ATOM     25  C   UNL     1      -1.238   0.547   0.001  0.00  0.00    +0.044 C 
ATOM     26  C   UNL     1       0.160   1.109   0.001  0.00  0.00    -0.047 A 
ATOM     27  C   UNL     1       1.248   0.254  -0.019  0.00  0.00    +0.006 A 
ATOM     28  C   UNL     1       2.530   0.767  -0.019  0.00  0.00    +0.028 A 
ATOM     29  C   UNL     1       2.728   2.141   0.000  0.00  0.00    +0.070 A 
ATOM     30  C   UNL     1       1.634   2.996   0.020  0.00  0.00    +0.031 A 
ATOM     31  C   UNL     1       0.354   2.478   0.021  0.00  0.00    -0.046 A 
ATOM     32  C   UNL     1      -0.834   3.405   0.036  0.00  0.00    +0.044 C 
ENDBRANCH  20  29
ENDBRANCH  19  21
ENDBRANCH  18  19
ENDBRANCH   1  18
TORSDOF 5
