REMARK  Name = ZINC36612796
REMARK  13 active torsions:
REMARK  status: ('A' for Active; 'I' for Inactive)
REMARK    1  A    between atoms: C_1  and  C_2
REMARK    2  A    between atoms: C_2  and  O_3
REMARK    3  A    between atoms: O_3  and  C_4
REMARK    4  A    between atoms: C_4  and  C_6
REMARK    5  A    between atoms: C_6  and  O_7
REMARK    6  A    between atoms: O_7  and  C_8
REMARK    7  A    between atoms: C_9  and  O_32
REMARK    8  A    between atoms: C_11  and  C_15
REMARK    9  A    between atoms: C_17  and  C_30
REMARK   10  A    between atoms: C_18  and  N_29
REMARK   11  A    between atoms: C_25  and  C_27
REMARK   12  A    between atoms: C_25  and  C_28
REMARK   13  A    between atoms: O_32  and  C_33
REMARK                            x       y       z     vdW  Elec       q    Type
REMARK                         _______ _______ _______ _____ _____    ______ ____
ROOT
ATOM      1  C   UNL     1      -7.630  -6.737   0.035  0.00  0.00    +0.101 C 
ATOM      2  C   UNL     1      -7.431  -8.049  -0.671  0.00  0.00    +0.098 C 
ATOM      3  C   UNL     1      -7.871  -8.220  -1.942  0.00  0.00    +0.198 C 
ATOM      4  O   UNL     1      -8.492  -7.227  -2.600  0.00  0.00    -0.445 OA
ATOM      5  C   UNL     1      -9.067  -6.217  -1.920  0.00  0.00    +0.115 C 
ATOM      6  C   UNL     1      -8.696  -5.928  -0.663  0.00  0.00    +0.046 C 
ATOM      7  C   UNL     1      -9.288  -4.863   0.043  0.00  0.00    +0.164 C 
ATOM      8  O   UNL     1      -8.940  -4.637   1.184  0.00  0.00    -0.292 OA
ATOM      9  C   UNL     1     -10.345  -4.000  -0.592  0.00  0.00    +0.086 C 
ATOM     10  C   UNL     1     -10.125  -3.982  -2.109  0.00  0.00    -0.021 C 
ATOM     11  C   UNL     1     -10.146  -5.417  -2.612  0.00  0.00    +0.081 C 
ATOM     12  C   UNL     1     -11.245  -3.185  -2.781  0.00  0.00    +0.012 C 
ATOM     13  C   UNL     1      -8.772  -3.341  -2.425  0.00  0.00    +0.012 C 
ENDROOT
BRANCH   1  17
ATOM     14  C   UNL     1      -3.955  -4.548   0.015  0.00  0.00    +0.177 A 
ATOM     15  C   UNL     1      -4.546  -4.907   1.223  0.00  0.00    +0.163 A 
ATOM     16  C   UNL     1      -5.736  -5.616   1.226  0.00  0.00    +0.054 A 
ATOM     17  C   UNL     1      -6.335  -5.966   0.030  0.00  0.00    -0.030 A 
ATOM     18  C   UNL     1      -5.749  -5.611  -1.170  0.00  0.00    +0.023 A 
ATOM     19  C   UNL     1      -4.564  -4.897  -1.180  0.00  0.00    +0.063 A 
ATOM     20 BR   UNL     1      -3.769  -4.406  -2.824  0.00  0.00    -0.046 Br
BRANCH  15  21
ATOM     21  O   UNL     1      -3.956  -4.562   2.399  0.00  0.00    -0.491 OA
ATOM     22  C   UNL     1      -4.618  -4.964   3.600  0.00  0.00    +0.277 C 
ENDBRANCH  15  21
BRANCH  14  23
ATOM     23  O   UNL     1      -2.787  -3.852   0.008  0.00  0.00    -0.476 OA
BRANCH  23  24
ATOM     24  C   UNL     1      -2.881  -2.427   0.017  0.00  0.00    +0.349 C 
BRANCH  24  25
ATOM     25  C   UNL     1      -1.496  -1.832   0.006  0.00  0.00    +0.345 C 
ATOM     26  O   UNL     1      -0.528  -2.555  -0.007  0.00  0.00    -0.247 OA
BRANCH  25  27
ATOM     27  O   UNL     1      -1.339  -0.499   0.012  0.00  0.00    -0.463 OA
BRANCH  27  29
ATOM     28  C   UNL     1      -0.019   1.526   0.010  0.00  0.00    +0.048 C 
ATOM     29  C   UNL     1       0.002  -0.004   0.002  0.00  0.00    +0.229 C 
ENDBRANCH  27  29
ENDBRANCH  25  27
ENDBRANCH  24  25
ENDBRANCH  23  24
ENDBRANCH  14  23
ENDBRANCH   1  17
BRANCH   3  30
ATOM     30  N   UNL     1      -7.678  -9.428  -2.566  0.00  0.00    -0.328 N 
ATOM     31  H   UNL     1      -7.231 -10.150  -2.098  0.00  0.00    +0.145 HD
ATOM     32  H   UNL     1      -7.990  -9.559  -3.475  0.00  0.00    +0.145 HD
ENDBRANCH   3  30
BRANCH   2  33
ATOM     33  C   UNL     1      -6.770  -9.126   0.003  0.00  0.00    +0.101 C 
ATOM     34  N   UNL     1      -6.246  -9.980   0.538  0.00  0.00    -0.191 NA
ENDBRANCH   2  33
TORSDOF 9
