REMARK  Name = ZINC36544862
REMARK  11 active torsions:
REMARK  status: ('A' for Active; 'I' for Inactive)
REMARK    1  A    between atoms: C_1  and  C_2
REMARK    2  A    between atoms: C_3  and  C_4
REMARK    3  A    between atoms: C_4  and  C_6
REMARK    4  A    between atoms: C_4  and  N_20
REMARK    5  A    between atoms: N_8  and  C_9
REMARK    6  A    between atoms: C_9  and  S_10
REMARK    7  A    between atoms: S_10  and  C_13
REMARK    8  A    between atoms: C_16  and  C_19
REMARK    9  A    between atoms: N_20  and  C_21
REMARK   10  A    between atoms: C_28  and  C_30
REMARK   11  A    between atoms: C_31  and  C_32
REMARK                            x       y       z     vdW  Elec       q    Type
REMARK                         _______ _______ _______ _____ _____    ______ ____
ROOT
ATOM      1  C   UNL     1       1.302   0.048  -2.162  0.00  0.00    +0.191 C 
ENDROOT
BRANCH   1   2
ATOM      2  C   UNL     1       2.659  -0.493  -2.534  0.00  0.00    +0.239 C 
ATOM      3  O   UNL     1       3.638   0.218  -2.452  0.00  0.00    -0.273 OA
ATOM      4  N   UNL     1       2.784  -1.766  -2.958  0.00  0.00    -0.294 N 
ATOM      5  H   UNL     1       2.000  -2.335  -3.023  0.00  0.00    +0.150 HD
BRANCH   4   6
ATOM      6  C   UNL     1       4.102  -2.292  -3.319  0.00  0.00    +0.278 C 
BRANCH   6   7
ATOM      7  S   UNL     1       4.822  -3.152  -1.894  0.00  0.00    +0.013 S 
ATOM      8  O   UNL     1       6.075  -3.722  -2.248  0.00  0.00    -0.168 OA
ATOM      9  O   UNL     1       4.694  -2.354  -0.725  0.00  0.00    -0.168 OA
BRANCH   7  10
ATOM     10  C   UNL     1       3.763  -4.532  -1.615  0.00  0.00    +0.090 A 
ATOM     11  C   UNL     1       2.674  -4.409  -0.772  0.00  0.00    +0.027 A 
ATOM     12  C   UNL     1       1.843  -5.491  -0.553  0.00  0.00    +0.005 A 
ATOM     13  C   UNL     1       2.100  -6.697  -1.179  0.00  0.00    -0.050 A 
ATOM     14  C   UNL     1       3.188  -6.820  -2.022  0.00  0.00    +0.005 A 
ATOM     15  C   UNL     1       4.017  -5.736  -2.244  0.00  0.00    +0.027 A 
ATOM     16  C   UNL     1       1.195  -7.878  -0.940  0.00  0.00    +0.044 C 
ENDBRANCH   7  10
ENDBRANCH   6   7
ENDBRANCH   4   6
ENDBRANCH   1   2
BRANCH   1  19
ATOM     17  C   UNL     1      -1.021  -1.496  -2.574  0.00  0.00    +0.035 C 
ATOM     18  C   UNL     1      -0.382  -1.443  -1.210  0.00  0.00    -0.032 C 
ATOM     19  C   UNL     1       0.728  -0.769  -1.033  0.00  0.00    +0.000 C 
ENDBRANCH   1  19
BRANCH   1  20
ATOM     20  N   UNL     1       1.432   1.444  -1.737  0.00  0.00    -0.244 N 
ATOM     21  C   UNL     1       0.877   2.427  -2.473  0.00  0.00    +0.297 C 
ATOM     22  O   UNL     1       0.268   2.155  -3.491  0.00  0.00    -0.260 OA
BRANCH  20  23
ATOM     23  C   UNL     1       2.132   1.756  -0.567  0.00  0.00    +0.057 A 
ATOM     24  C   UNL     1       3.483   2.072  -0.628  0.00  0.00    +0.025 A 
ATOM     25  C   UNL     1       4.172   2.380   0.529  0.00  0.00    +0.002 A 
ATOM     26  C   UNL     1       3.518   2.374   1.748  0.00  0.00    +0.002 A 
ATOM     27  C   UNL     1       2.173   2.061   1.813  0.00  0.00    +0.022 A 
ATOM     28  C   UNL     1       1.476   1.757   0.658  0.00  0.00    +0.062 A 
ATOM     29 CL   UNL     1      -0.214   1.370   0.739  0.00  0.00    -0.082 Cl
ENDBRANCH  20  23
BRANCH  21  30
ATOM     30  C   UNL     1       1.005   3.791  -2.058  0.00  0.00    -0.002 C 
ATOM     31  C   UNL     1       1.109   4.910  -1.717  0.00  0.00    -0.057 C 
BRANCH  31  32
ATOM     32  C   UNL     1       1.237   6.274  -1.302  0.00  0.00    +0.025 A 
ATOM     33  C   UNL     1       1.941   6.591  -0.136  0.00  0.00    +0.017 A 
ATOM     34  C   UNL     1       2.059   7.908   0.257  0.00  0.00    +0.001 A 
ATOM     35  C   UNL     1       1.484   8.914  -0.498  0.00  0.00    +0.000 A 
ATOM     36  C   UNL     1       0.785   8.608  -1.653  0.00  0.00    +0.001 A 
ATOM     37  C   UNL     1       0.662   7.297  -2.063  0.00  0.00    +0.017 A 
ENDBRANCH  31  32
ENDBRANCH  21  30
ENDBRANCH   1  20
TORSDOF 9
