REMARK  Name = ZINC36799236
REMARK  8 active torsions:
REMARK  status: ('A' for Active; 'I' for Inactive)
REMARK    1  A    between atoms: C_1  and  C_2
REMARK    2  A    between atoms: C_2  and  N_3
REMARK    3  A    between atoms: C_4  and  C_25
REMARK    4  A    between atoms: C_7  and  S_8
REMARK    5  A    between atoms: S_8  and  C_9
REMARK    6  A    between atoms: C_9  and  C_10
REMARK    7  A    between atoms: C_12  and  O_13
REMARK    8  A    between atoms: C_22  and  C_24
REMARK                            x       y       z     vdW  Elec       q    Type
REMARK                         _______ _______ _______ _____ _____    ______ ____
ROOT
ATOM      1  C   UNL     1       6.874  -0.294  -0.496  0.00  0.00    -0.020 A 
ATOM      2  C   UNL     1       7.264   0.952  -0.047  0.00  0.00    +0.092 A 
ATOM      3  C   UNL     1       8.077   1.061   1.072  0.00  0.00    +0.285 A 
ATOM      4  O   UNL     1       8.497  -0.022   1.736  0.00  0.00    -0.425 OA
ATOM      5  C   UNL     1       8.145  -1.263   1.341  0.00  0.00    +0.141 A 
ATOM      6  C   UNL     1       7.315  -1.433   0.211  0.00  0.00    +0.022 A 
ATOM      7  C   UNL     1       6.942  -2.725  -0.201  0.00  0.00    +0.013 A 
ATOM      8  C   UNL     1       7.377  -3.810   0.492  0.00  0.00    +0.024 A 
ATOM      9  C   UNL     1       8.199  -3.649   1.621  0.00  0.00    +0.037 A 
ATOM     10  C   UNL     1       8.587  -2.374   2.036  0.00  0.00    +0.070 A 
ATOM     11  N   UNL     1       8.628  -4.744   2.307  0.00  0.00    -0.286 N 
ATOM     12  C   UNL     1       9.109  -4.611   3.528  0.00  0.00    +0.214 C 
ATOM     13  O   UNL     1       9.057  -3.530   4.088  0.00  0.00    -0.276 OA
ATOM     14  C   UNL     1       9.722  -5.795   4.230  0.00  0.00    +0.109 C 
ATOM     15  H   UNL     1       8.580  -5.622   1.898  0.00  0.00    +0.155 HD
ENDROOT
BRANCH   3  16
ATOM     16  O   UNL     1       8.450   2.282   1.499  0.00  0.00    -0.480 OA
ATOM     17  H   UNL     1       9.016   2.269   2.284  0.00  0.00    +0.295 HD
ENDBRANCH   3  16
BRANCH   1  18
ATOM     18  C   UNL     1       5.991  -0.434  -1.709  0.00  0.00    +0.113 C 
BRANCH  18  19
ATOM     19  S   UNL     1       4.291   0.029  -1.277  0.00  0.00    -0.081 S 
BRANCH  19  24
ATOM     20  N   UNL     1       2.062   0.040  -2.967  0.00  0.00    -0.302 N 
ATOM     21  C   UNL     1       1.818  -0.254  -4.289  0.00  0.00    +0.165 A 
ATOM     22  N   UNL     1       2.959  -0.631  -4.817  0.00  0.00    -0.128 NA
ATOM     23  N   UNL     1       3.887  -0.593  -3.928  0.00  0.00    -0.122 NA
ATOM     24  C   UNL     1       3.396  -0.185  -2.780  0.00  0.00    +0.192 A 
BRANCH  21  25
ATOM     25  C   UNL     1       0.516  -0.163  -4.984  0.00  0.00    +0.019 A 
ATOM     26  C   UNL     1      -0.510   0.618  -4.449  0.00  0.00    +0.013 A 
ATOM     27  C   UNL     1      -1.722   0.699  -5.102  0.00  0.00    +0.021 A 
ATOM     28  C   UNL     1      -1.922   0.008  -6.285  0.00  0.00    +0.041 A 
ATOM     29  C   UNL     1      -0.908  -0.769  -6.820  0.00  0.00    +0.021 A 
ATOM     30  C   UNL     1       0.310  -0.853  -6.179  0.00  0.00    +0.013 A 
ATOM     31 CL   UNL     1      -3.451   0.114  -7.100  0.00  0.00    -0.084 Cl
ENDBRANCH  21  25
BRANCH  20  33
ATOM     32  C   UNL     1       1.113   2.032  -1.913  0.00  0.00    +0.027 C 
ATOM     33  C   UNL     1       1.094   0.503  -1.970  0.00  0.00    +0.122 C 
ENDBRANCH  20  33
ENDBRANCH  19  24
ENDBRANCH  18  19
ENDBRANCH   1  18
TORSDOF 6
