REMARK  Name = ZINC46899425
REMARK  9 active torsions:
REMARK  status: ('A' for Active; 'I' for Inactive)
REMARK    1  A    between atoms: C_1  and  C_2
REMARK    2  A    between atoms: C_2  and  C_3
REMARK    3  A    between atoms: C_2  and  C_4
REMARK    4  A    between atoms: C_2  and  C_5
REMARK    5  A    between atoms: C_5  and  C_6
REMARK    6  A    between atoms: C_6  and  C_8
REMARK    7  A    between atoms: C_6  and  N_15
REMARK    8  A    between atoms: N_18  and  N_19
REMARK    9  A    between atoms: C_20  and  C_22
REMARK                            x       y       z     vdW  Elec       q    Type
REMARK                         _______ _______ _______ _____ _____    ______ ____
ROOT
ATOM      1  N   UNL     1       2.870  -1.083   0.181  0.00  0.00    -0.291 N 
ATOM      2  C   UNL     1       2.574  -0.700   1.438  0.00  0.00    +0.316 C 
ATOM      3  O   UNL     1       1.673   0.092   1.636  0.00  0.00    -0.251 OA
ATOM      4  N   UNL     1       3.276  -1.194   2.477  0.00  0.00    -0.218 N 
ATOM      5  H   UNL     1       3.541  -1.766   0.027  0.00  0.00    +0.151 HD
ATOM      6  H   UNL     1       3.063  -0.918   3.382  0.00  0.00    +0.174 HD
ENDROOT
BRANCH   4   7
ATOM      7  N   UNL     1       4.314  -2.107   2.249  0.00  0.00    -0.233 N 
ATOM      8  C   UNL     1       5.017  -2.602   3.287  0.00  0.00    +0.234 C 
ATOM      9  O   UNL     1       4.750  -2.257   4.419  0.00  0.00    -0.274 OA
ATOM     10  H   UNL     1       4.527  -2.383   1.344  0.00  0.00    +0.173 HD
BRANCH   8  11
ATOM     11  C   UNL     1       6.133  -3.584   3.042  0.00  0.00    +0.099 C 
ATOM     12  C   UNL     1       5.574  -4.851   2.374  0.00  0.00    +0.037 C 
ATOM     13  C   UNL     1       6.633  -5.978   2.410  0.00  0.00    +0.166 C 
ATOM     14  S   UNL     1       7.614  -5.563   3.909  0.00  0.00    -0.030 S 
ATOM     15  O   UNL     1       7.371  -6.545   4.907  0.00  0.00    -0.174 OA
ATOM     16  O   UNL     1       8.951  -5.275   3.522  0.00  0.00    -0.174 OA
ATOM     17  C   UNL     1       6.778  -3.995   4.396  0.00  0.00    +0.178 C 
ENDBRANCH   8  11
ENDBRANCH   4   7
BRANCH   1  18
ATOM     18  C   UNL     1       2.178  -0.468  -0.955  0.00  0.00    +0.105 C 
BRANCH  18  19
ATOM     19  C   UNL     1       3.033  -0.590  -2.190  0.00  0.00    -0.027 A 
ATOM     20  C   UNL     1       3.453  -1.835  -2.618  0.00  0.00    +0.008 A 
ATOM     21  C   UNL     1       4.237  -1.949  -3.751  0.00  0.00    +0.038 A 
ATOM     22  C   UNL     1       4.600  -0.815  -4.457  0.00  0.00    +0.123 A 
ATOM     23  C   UNL     1       4.178   0.432  -4.027  0.00  0.00    +0.038 A 
ATOM     24  C   UNL     1       3.391   0.543  -2.897  0.00  0.00    +0.008 A 
ATOM     25  F   UNL     1       5.367  -0.924  -5.564  0.00  0.00    -0.205 F 
ENDBRANCH  18  19
BRANCH  18  26
ATOM     26  C   UNL     1       0.843  -1.179  -1.185  0.00  0.00    +0.033 C 
BRANCH  26  28
ATOM     27  C   UNL     1       0.759  -0.480  -3.583  0.00  0.00    +0.010 C 
ATOM     28  C   UNL     1       0.034  -0.417  -2.237  0.00  0.00    -0.036 C 
ATOM     29  C   UNL     1      -0.115   1.043  -1.806  0.00  0.00    +0.010 C 
ATOM     30  C   UNL     1      -1.351  -1.053  -2.373  0.00  0.00    +0.010 C 
ENDBRANCH  26  28
ENDBRANCH  18  26
ENDBRANCH   1  18
TORSDOF 6
