REMARK  Name = ZINC21918607
REMARK  8 active torsions:
REMARK  status: ('A' for Active; 'I' for Inactive)
REMARK    1  A    between atoms: C_1  and  C_2
REMARK    2  A    between atoms: N_10  and  N_14
REMARK    3  A    between atoms: C_15  and  C_17
REMARK    4  A    between atoms: C_17  and  N_18
REMARK    5  A    between atoms: C_19  and  C_21
REMARK    6  A    between atoms: C_21  and  C_22
REMARK    7  A    between atoms: C_21  and  C_23
REMARK    8  A    between atoms: C_21  and  C_24
REMARK                            x       y       z     vdW  Elec       q    Type
REMARK                         _______ _______ _______ _____ _____    ______ ____
ROOT
ATOM      1  C   UNL     1      -8.066  -2.056   0.588  0.00  0.00    +0.007 C 
ATOM      2  C   UNL     1      -6.893  -1.208   1.083  0.00  0.00    -0.014 C 
ATOM      3  C   UNL     1      -5.589  -1.988   0.906  0.00  0.00    +0.006 C 
ATOM      4  C   UNL     1      -4.418  -1.143   1.412  0.00  0.00    +0.035 C 
ATOM      5  C   UNL     1      -4.357   0.167   0.633  0.00  0.00    +0.114 C 
ATOM      6  C   UNL     1      -5.660   0.944   0.781  0.00  0.00    +0.035 C 
ATOM      7  C   UNL     1      -6.827   0.090   0.276  0.00  0.00    +0.006 C 
ATOM      8  C   UNL     1      -3.188   1.004   1.101  0.00  0.00    +0.263 C 
ATOM      9  O   UNL     1      -3.004   1.451   2.212  0.00  0.00    -0.271 OA
ATOM     10  N   UNL     1      -2.394   1.150   0.020  0.00  0.00    -0.137 N 
ATOM     11  C   UNL     1      -2.902   0.529  -1.052  0.00  0.00    +0.326 C 
ATOM     12  O   UNL     1      -2.369   0.522  -2.145  0.00  0.00    -0.251 OA
ATOM     13  N   UNL     1      -4.067  -0.090  -0.783  0.00  0.00    -0.284 N 
ATOM     14  H   UNL     1      -4.763  -0.692  -1.387  0.00  0.00    +0.151 HD
ENDROOT
BRANCH  10  15
ATOM     15  N   UNL     1      -1.191   1.867   0.018  0.00  0.00    -0.222 N 
ATOM     16  C   UNL     1      -0.014   1.209   0.009  0.00  0.00    +0.247 C 
ATOM     17  O   UNL     1       0.002  -0.004   0.002  0.00  0.00    -0.273 OA
ATOM     18  H   UNL     1      -1.206   2.966   0.024  0.00  0.00    +0.174 HD
BRANCH  16  19
ATOM     19  C   UNL     1       1.280   1.980   0.001  0.00  0.00    +0.201 C 
BRANCH  19  20
ATOM     20  N   UNL     1       2.407   1.043  -0.015  0.00  0.00    -0.306 N 
ATOM     21  C   UNL     1       3.671   1.510  -0.025  0.00  0.00    +0.219 C 
ATOM     22  O   UNL     1       3.876   2.705  -0.020  0.00  0.00    -0.275 OA
ATOM     23  H   UNL     1       2.220  -0.041  -0.019  0.00  0.00    +0.149 HD
BRANCH  21  24
ATOM     24  C   UNL     1       4.830   0.546  -0.041  0.00  0.00    +0.039 C 
ATOM     25  C   UNL     1       6.144   1.329  -0.050  0.00  0.00    +0.020 C 
ATOM     26  C   UNL     1       4.772  -0.341   1.204  0.00  0.00    +0.020 C 
ATOM     27  C   UNL     1       4.748  -0.328  -1.294  0.00  0.00    +0.020 C 
ENDBRANCH  21  24
ENDBRANCH  19  20
ENDBRANCH  16  19
ENDBRANCH  10  15
TORSDOF 4
