REMARK  Name = ZINC39296446
REMARK  7 active torsions:
REMARK  status: ('A' for Active; 'I' for Inactive)
REMARK    1  A    between atoms: C_1  and  C_2
REMARK    2  A    between atoms: C_2  and  C_3
REMARK    3  A    between atoms: C_3  and  C_5
REMARK    4  A    between atoms: C_3  and  N_6
REMARK    5  A    between atoms: N_9  and  C_12
REMARK    6  A    between atoms: C_12  and  C_13
REMARK    7  A    between atoms: C_13  and  N_14
REMARK                            x       y       z     vdW  Elec       q    Type
REMARK                         _______ _______ _______ _____ _____    ______ ____
ROOT
ATOM      1  N   UNL     1       7.276   2.682  -3.851  0.00  0.00    -0.296 N 
ATOM      2  C   UNL     1       7.393   4.036  -4.125  0.00  0.00    +0.060 A 
ATOM      3  C   UNL     1       6.308   4.875  -3.873  0.00  0.00    +0.025 A 
ATOM      4  C   UNL     1       6.394   6.224  -4.145  0.00  0.00    +0.002 A 
ATOM      5  C   UNL     1       7.557   6.757  -4.670  0.00  0.00    +0.002 A 
ATOM      6  C   UNL     1       8.640   5.933  -4.920  0.00  0.00    +0.029 A 
ATOM      7  C   UNL     1       8.558   4.584  -4.646  0.00  0.00    +0.115 A 
ATOM      8  S   UNL     1       9.944   3.534  -4.948  0.00  0.00    +0.029 S 
ATOM      9  O   UNL     1      11.063   4.135  -4.312  0.00  0.00    -0.164 OA
ATOM     10  O   UNL     1       9.928   3.219  -6.334  0.00  0.00    -0.164 OA
ATOM     11  C   UNL     1       9.605   2.036  -4.078  0.00  0.00    +0.115 A 
ATOM     12  C   UNL     1       8.313   1.791  -3.624  0.00  0.00    +0.060 A 
ATOM     13  C   UNL     1       8.054   0.612  -2.927  0.00  0.00    +0.025 A 
ATOM     14  C   UNL     1       9.066  -0.295  -2.695  0.00  0.00    +0.002 A 
ATOM     15  C   UNL     1      10.347  -0.043  -3.149  0.00  0.00    +0.002 A 
ATOM     16  C   UNL     1      10.614   1.125  -3.850  0.00  0.00    +0.029 A 
ENDROOT
BRANCH   1  17
ATOM     17  C   UNL     1       5.916   2.139  -3.789  0.00  0.00    +0.126 C 
BRANCH  17  18
ATOM     18  C   UNL     1       5.389   2.246  -2.356  0.00  0.00    +0.103 C 
BRANCH  18  22
ATOM     19  N   UNL     1       1.978   0.018  -1.231  0.00  0.00    +0.383 N 
ATOM     20  C   UNL     1       1.964   1.468  -0.996  0.00  0.00    -0.063 C 
ATOM     21  C   UNL     1       3.399   1.999  -0.998  0.00  0.00    +0.066 C 
ATOM     22  N   UNL     1       4.027   1.701  -2.294  0.00  0.00    -0.304 NA
ATOM     23  C   UNL     1       4.025   0.255  -2.554  0.00  0.00    +0.066 C 
ATOM     24  C   UNL     1       2.585  -0.262  -2.539  0.00  0.00    -0.063 C 
ATOM     25  H   UNL     1       2.516  -0.434  -0.507  0.00  0.00    -0.081 HD
BRANCH  19  26
ATOM     26  C   UNL     1       0.601  -0.494  -1.211  0.00  0.00    -0.072 C 
ATOM     27  C   UNL     1      -0.175   0.083  -2.396  0.00  0.00    -0.013 C 
BRANCH  26  29
ATOM     28  C   UNL     1       1.283  -2.603  -0.058  0.00  0.00    +0.002 C 
ATOM     29  C   UNL     1       0.624  -2.021  -1.310  0.00  0.00    -0.019 C 
ENDBRANCH  26  29
ENDBRANCH  19  26
ENDBRANCH  18  22
ENDBRANCH  17  18
ENDBRANCH   1  17
TORSDOF 5
