REMARK  Name = ZINC09416599
REMARK  8 active torsions:
REMARK  status: ('A' for Active; 'I' for Inactive)
REMARK    1  A    between atoms: C_1  and  C_2
REMARK    2  A    between atoms: C_5  and  S_8
REMARK    3  A    between atoms: S_8  and  C_11
REMARK    4  A    between atoms: C_12  and  N_20
REMARK    5  A    between atoms: C_14  and  S_16
REMARK    6  A    between atoms: S_16  and  C_19
REMARK    7  A    between atoms: C_22  and  C_29
REMARK    8  A    between atoms: C_25  and  C_28
REMARK                            x       y       z     vdW  Elec       q    Type
REMARK                         _______ _______ _______ _____ _____    ______ ____
ROOT
ATOM      1  C   UNL     1       1.223  -2.958  -1.706  0.00  0.00    +0.212 A 
ATOM      2  C   UNL     1       0.047  -3.273  -2.321  0.00  0.00    +0.116 A 
ATOM      3  S   UNL     1       0.637  -3.695  -3.956  0.00  0.00    -0.032 S 
ATOM      4  C   UNL     1       2.374  -3.415  -3.641  0.00  0.00    +0.218 A 
ATOM      5  N   UNL     1       2.351  -3.040  -2.381  0.00  0.00    -0.201 NA
ENDROOT
BRANCH   2   6
ATOM      6  N   UNL     1      -1.255  -3.266  -1.816  0.00  0.00    -0.321 N 
ATOM      7  C   UNL     1      -1.776  -4.633  -1.687  0.00  0.00    +0.109 C 
ATOM      8  C   UNL     1      -3.142  -4.597  -0.997  0.00  0.00    +0.004 C 
ATOM      9  C   UNL     1      -4.104  -3.740  -1.825  0.00  0.00    +0.009 C 
ATOM     10  C   UNL     1      -3.515  -2.336  -1.986  0.00  0.00    +0.004 C 
ATOM     11  C   UNL     1      -2.138  -2.438  -2.647  0.00  0.00    +0.109 C 
ATOM     12  C   UNL     1      -3.374  -1.681  -0.611  0.00  0.00    +0.009 C 
ATOM     13  C   UNL     1      -3.695  -6.019  -0.882  0.00  0.00    +0.009 C 
ENDBRANCH   2   6
BRANCH   4  14
ATOM     14  S   UNL     1       3.749  -3.594  -4.728  0.00  0.00    +0.018 S 
ATOM     15  O   UNL     1       3.210  -3.409  -6.029  0.00  0.00    -0.168 OA
ATOM     16  O   UNL     1       4.733  -2.705  -4.217  0.00  0.00    -0.168 OA
ATOM     17  C   UNL     1       4.291  -5.313  -4.515  0.00  0.00    +0.202 C 
ENDBRANCH   4  14
BRANCH   1  18
ATOM     18  S   UNL     1       1.234  -2.452  -0.018  0.00  0.00    +0.044 S 
ATOM     19  O   UNL     1       2.484  -2.859   0.520  0.00  0.00    -0.163 OA
ATOM     20  O   UNL     1      -0.007  -2.866   0.538  0.00  0.00    -0.163 OA
BRANCH  18  25
ATOM     21  C   UNL     1       1.216   3.582   0.037  0.00  0.00    +0.044 C 
ATOM     22  C   UNL     1       1.221   2.075   0.024  0.00  0.00    -0.050 A 
ATOM     23  C   UNL     1       0.025   1.380   0.025  0.00  0.00    +0.005 A 
ATOM     24  C   UNL     1       0.029  -0.002   0.012  0.00  0.00    +0.028 A 
ATOM     25  C   UNL     1       1.228  -0.690  -0.003  0.00  0.00    +0.095 A 
ATOM     26  C   UNL     1       2.424   0.005  -0.005  0.00  0.00    +0.028 A 
ATOM     27  C   UNL     1       2.420   1.387   0.007  0.00  0.00    +0.005 A 
ENDBRANCH  18  25
ENDBRANCH   1  18
TORSDOF 4
