REMARK  Name = ZINC63917518
REMARK  7 active torsions:
REMARK  status: ('A' for Active; 'I' for Inactive)
REMARK    1  A    between atoms: C_1  and  C_2
REMARK    2  A    between atoms: C_2  and  C_4
REMARK    3  A    between atoms: C_2  and  O_15
REMARK    4  A    between atoms: C_4  and  C_6
REMARK    5  A    between atoms: O_15  and  C_16
REMARK    6  A    between atoms: C_16  and  C_18
REMARK    7  A    between atoms: N_20  and  C_25
REMARK                            x       y       z     vdW  Elec       q    Type
REMARK                         _______ _______ _______ _____ _____    ______ ____
ROOT
ATOM      1  C   UNL     1      -0.045  -0.698   2.266  0.00  0.00    +0.356 C 
ATOM      2  O   UNL     1      -1.244  -0.493   2.248  0.00  0.00    -0.244 OA
ENDROOT
BRANCH   1   3
ATOM      3  C   UNL     1       0.596  -1.184   3.491  0.00  0.00    +0.144 C 
ATOM      4  N   UNL     1       1.877  -1.394   3.502  0.00  0.00    -0.175 NA
ATOM      5  N   UNL     1       2.523  -1.860   4.652  0.00  0.00    -0.188 N 
ATOM      6  C   UNL     1       1.821  -2.459   5.634  0.00  0.00    +0.235 C 
ATOM      7  O   UNL     1       2.386  -2.864   6.627  0.00  0.00    -0.274 OA
ATOM      8  C   UNL     1       0.328  -2.623   5.493  0.00  0.00    +0.104 C 
ATOM      9  C   UNL     1      -0.238  -1.426   4.721  0.00  0.00    +0.073 C 
BRANCH   5  10
ATOM     10  C   UNL     1       3.972  -1.694   4.790  0.00  0.00    +0.124 C 
ATOM     11  C   UNL     1       4.681  -2.415   3.632  0.00  0.00    +0.049 C 
ATOM     12  C   UNL     1       6.170  -1.968   3.622  0.00  0.00    +0.168 C 
ATOM     13  S   UNL     1       5.985  -0.171   3.982  0.00  0.00    -0.029 S 
ATOM     14  O   UNL     1       5.910   0.541   2.755  0.00  0.00    -0.174 OA
ATOM     15  O   UNL     1       6.951   0.208   4.953  0.00  0.00    -0.174 OA
ATOM     16  C   UNL     1       4.322  -0.187   4.766  0.00  0.00    +0.190 C 
ENDBRANCH   5  10
ENDBRANCH   1   3
BRANCH   1  17
ATOM     17  O   UNL     1       0.693  -0.477   1.160  0.00  0.00    -0.449 OA
BRANCH  17  19
ATOM     18  C   UNL     1      -0.019   1.526   0.010  0.00  0.00    +0.061 C 
ATOM     19  C   UNL     1       0.002  -0.004   0.002  0.00  0.00    +0.244 C 
BRANCH  19  20
ATOM     20  C   UNL     1       0.707  -0.490  -1.238  0.00  0.00    +0.202 C 
ATOM     21  O   UNL     1       1.835  -0.934  -1.160  0.00  0.00    -0.288 OA
BRANCH  20  22
ATOM     22  C   UNL     1       0.058  -0.429  -2.489  0.00  0.00    +0.027 C 
ATOM     23  C   UNL     1       0.559  -0.836  -3.712  0.00  0.00    +0.006 A 
ATOM     24  C   UNL     1       1.792  -1.406  -4.106  0.00  0.00    +0.010 A 
ATOM     25  C   UNL     1       2.019  -1.712  -5.403  0.00  0.00    +0.001 A 
ATOM     26  C   UNL     1       1.065  -1.486  -6.408  0.00  0.00    +0.002 A 
ATOM     27  C   UNL     1      -0.143  -0.946  -6.139  0.00  0.00    +0.026 A 
ATOM     28  C   UNL     1      -0.471  -0.584  -4.750  0.00  0.00    +0.043 A 
ATOM     29  N   UNL     1      -1.538  -0.059  -4.217  0.00  0.00    -0.380 N 
ATOM     30  C   UNL     1      -1.335   0.089  -2.772  0.00  0.00    +0.152 C 
ATOM     31  H   UNL     1      -2.341   0.191  -4.699  0.00  0.00    +0.160 HD
ENDBRANCH  20  22
ENDBRANCH  19  20
ENDBRANCH  17  19
ENDBRANCH   1  17
TORSDOF 6
