REMARK  Name = ZINC39973287
REMARK  10 active torsions:
REMARK  status: ('A' for Active; 'I' for Inactive)
REMARK    1  A    between atoms: C_1  and  C_2
REMARK    2  A    between atoms: C_6  and  C_12
REMARK    3  A    between atoms: C_10  and  C_11
REMARK    4  A    between atoms: C_12  and  C_35
REMARK    5  A    between atoms: C_13  and  C_14
REMARK    6  A    between atoms: C_17  and  O_22
REMARK    7  A    between atoms: C_18  and  O_20
REMARK    8  A    between atoms: O_20  and  C_21
REMARK    9  A    between atoms: O_22  and  C_23
REMARK   10  A    between atoms: C_23  and  C_25
REMARK                            x       y       z     vdW  Elec       q    Type
REMARK                         _______ _______ _______ _____ _____    ______ ____
ROOT
ATOM      1  C   UNL     1       0.305  -6.680  -3.074  0.00  0.00    -0.020 A 
ATOM      2  C   UNL     1       1.444  -6.082  -2.524  0.00  0.00    +0.012 A 
ATOM      3  C   UNL     1       2.696  -6.561  -2.844  0.00  0.00    +0.051 A 
ATOM      4  C   UNL     1       2.830  -7.636  -3.713  0.00  0.00    +0.173 A 
ATOM      5  C   UNL     1       1.700  -8.236  -4.266  0.00  0.00    +0.163 A 
ATOM      6  C   UNL     1       0.441  -7.766  -3.945  0.00  0.00    +0.057 A 
ENDROOT
BRANCH   1   8
ATOM      7  C   UNL     1      -1.294  -5.748  -1.480  0.00  0.00    +0.072 C 
ATOM      8  C   UNL     1      -1.032  -6.171  -2.734  0.00  0.00    +0.026 C 
BRANCH   7  14
ATOM      9  C   UNL     1       0.187  -2.465   4.509  0.00  0.00    +0.044 C 
ATOM     10  C   UNL     1      -0.130  -3.571   3.536  0.00  0.00    -0.045 A 
ATOM     11  C   UNL     1       0.304  -3.458   2.264  0.00  0.00    +0.031 A 
ATOM     12  C   UNL     1       0.007  -4.526   1.300  0.00  0.00    +0.061 A 
ATOM     13  N   UNL     1       0.290  -4.684   0.039  0.00  0.00    -0.359 N 
ATOM     14  C   UNL     1      -0.283  -5.968  -0.384  0.00  0.00    +0.216 C 
ATOM     15  N   UNL     1      -0.939  -6.539   0.800  0.00  0.00    -0.359 N 
ATOM     16  C   UNL     1      -0.771  -5.700   1.781  0.00  0.00    +0.061 A 
ATOM     17  C   UNL     1      -1.190  -5.715   3.189  0.00  0.00    +0.031 A 
ATOM     18  C   UNL     1      -0.860  -4.683   3.992  0.00  0.00    -0.045 A 
ATOM     19  C   UNL     1      -1.296  -4.720   5.434  0.00  0.00    +0.044 C 
ATOM     20  H   UNL     1       0.788  -4.067  -0.519  0.00  0.00    +0.162 HD
ATOM     21  H   UNL     1      -1.411  -7.385   0.842  0.00  0.00    +0.162 HD
ENDBRANCH   7  14
BRANCH   7  22
ATOM     22  C   UNL     1      -2.532  -5.089  -1.190  0.00  0.00    +0.099 C 
ATOM     23  N   UNL     1      -3.514  -4.566  -0.960  0.00  0.00    -0.191 NA
ENDBRANCH   7  22
ENDBRANCH   1   8
BRANCH   5  24
ATOM     24  O   UNL     1       1.837  -9.288  -5.116  0.00  0.00    -0.491 OA
ATOM     25  C   UNL     1       0.637  -9.855  -5.646  0.00  0.00    +0.277 C 
ENDBRANCH   5  24
BRANCH   4  26
ATOM     26  O   UNL     1       4.067  -8.103  -4.025  0.00  0.00    -0.422 OA
BRANCH  26  27
ATOM     27  C   UNL     1       4.610  -7.719  -5.192  0.00  0.00    +0.319 C 
ATOM     28  O   UNL     1       4.043  -6.908  -5.884  0.00  0.00    -0.250 OA
BRANCH  27  29
ATOM     29  C   UNL     1       5.927  -8.300  -5.638  0.00  0.00    +0.069 C 
ATOM     30  C   UNL     1       5.795  -9.819  -5.773  0.00  0.00    +0.021 C 
ATOM     31  C   UNL     1       7.132 -10.409  -6.226  0.00  0.00    -0.009 C 
ATOM     32  C   UNL     1       7.524  -9.808  -7.577  0.00  0.00    +0.007 C 
ATOM     33  C   UNL     1       7.656  -8.290  -7.442  0.00  0.00    -0.009 C 
ATOM     34  C   UNL     1       6.319  -7.700  -6.989  0.00  0.00    +0.021 C 
ATOM     35  C   UNL     1       8.734  -7.962  -6.407  0.00  0.00    +0.007 C 
ATOM     36  C   UNL     1       8.343  -8.563  -5.055  0.00  0.00    -0.009 C 
ATOM     37  C   UNL     1       8.211 -10.081  -5.191  0.00  0.00    +0.007 C 
ATOM     38  C   UNL     1       7.006  -7.973  -4.603  0.00  0.00    +0.021 C 
ENDBRANCH  27  29
ENDBRANCH  26  27
ENDBRANCH   4  26
TORSDOF 7
