REMARK  Name = ZINC01082869
REMARK  13 active torsions:
REMARK  status: ('A' for Active; 'I' for Inactive)
REMARK    1  A    between atoms: C_1  and  C_2
REMARK    2  A    between atoms: C_2  and  O_4
REMARK    3  A    between atoms: O_4  and  C_5
REMARK    4  A    between atoms: C_8  and  C_15
REMARK    5  A    between atoms: C_10  and  O_11
REMARK    6  A    between atoms: O_11  and  C_12
REMARK    7  A    between atoms: C_12  and  C_14
REMARK    8  A    between atoms: C_20  and  O_30
REMARK    9  A    between atoms: C_22  and  O_26
REMARK   10  A    between atoms: O_26  and  C_27
REMARK   11  A    between atoms: C_27  and  C_29
REMARK   12  A    between atoms: O_30  and  C_31
REMARK   13  A    between atoms: C_31  and  C_33
REMARK                            x       y       z     vdW  Elec       q    Type
REMARK                         _______ _______ _______ _____ _____    ______ ____
ROOT
ATOM      1  C   UNL     1      -0.765  -6.427   1.068  0.00  0.00    +0.065 A 
ATOM      2  C   UNL     1      -0.981  -5.349   1.864  0.00  0.00    +0.208 A 
ATOM      3  O   UNL     1      -0.923  -4.095   1.408  0.00  0.00    -0.462 OA
ATOM      4  C   UNL     1      -0.648  -3.787   0.124  0.00  0.00    +0.145 A 
ATOM      5  C   UNL     1      -0.596  -2.462  -0.286  0.00  0.00    +0.093 A 
ATOM      6  C   UNL     1      -0.317  -2.155  -1.608  0.00  0.00    +0.139 A 
ATOM      7  C   UNL     1      -0.075  -3.163  -2.536  0.00  0.00    +0.093 A 
ATOM      8  C   UNL     1      -0.116  -4.488  -2.146  0.00  0.00    +0.149 A 
ATOM      9  C   UNL     1      -0.403  -4.806  -0.812  0.00  0.00    +0.107 A 
ATOM     10  C   UNL     1      -0.456  -6.205  -0.355  0.00  0.00    +0.204 A 
ATOM     11  O   UNL     1      -0.254  -7.134  -1.118  0.00  0.00    -0.286 OA
ENDROOT
BRANCH   1  15
ATOM     12  C   UNL     1      -0.982 -10.375   2.646  0.00  0.00    +0.174 A 
ATOM     13  C   UNL     1      -1.679 -10.049   1.492  0.00  0.00    +0.051 A 
ATOM     14  C   UNL     1      -1.611  -8.770   0.978  0.00  0.00    +0.012 A 
ATOM     15  C   UNL     1      -0.840  -7.802   1.620  0.00  0.00    -0.008 A 
ATOM     16  C   UNL     1      -0.135  -8.128   2.776  0.00  0.00    +0.059 A 
ATOM     17  C   UNL     1      -0.211  -9.411   3.290  0.00  0.00    +0.174 A 
BRANCH  12  18
ATOM     18  O   UNL     1      -1.052 -11.636   3.148  0.00  0.00    -0.422 OA
BRANCH  18  20
ATOM     19  C   UNL     1      -2.027 -13.203   4.788  0.00  0.00    +0.136 C 
ATOM     20  C   UNL     1      -1.970 -11.863   4.101  0.00  0.00    +0.309 C 
ATOM     21  O   UNL     1      -2.750 -10.993   4.407  0.00  0.00    -0.251 OA
ENDBRANCH  18  20
ENDBRANCH  12  18
BRANCH  17  22
ATOM     22  O   UNL     1       0.472  -9.732   4.422  0.00  0.00    -0.422 OA
BRANCH  22  23
ATOM     23  C   UNL     1       1.687 -10.281   4.265  0.00  0.00    +0.309 C 
ATOM     24  O   UNL     1       2.167 -10.382   3.160  0.00  0.00    -0.251 OA
ATOM     25  C   UNL     1       2.454 -10.770   5.467  0.00  0.00    +0.136 C 
ENDBRANCH  22  23
ENDBRANCH  17  22
ENDBRANCH   1  15
BRANCH   8  26
ATOM     26  O   UNL     1       0.120  -5.474  -3.049  0.00  0.00    -0.425 OA
BRANCH  26  27
ATOM     27  C   UNL     1      -0.948  -6.002  -3.668  0.00  0.00    +0.309 C 
ATOM     28  O   UNL     1      -2.062  -5.661  -3.348  0.00  0.00    -0.251 OA
ATOM     29  C   UNL     1      -0.756  -7.019  -4.764  0.00  0.00    +0.136 C 
ENDBRANCH  26  27
ENDBRANCH   8  26
BRANCH   6  30
ATOM     30  O   UNL     1      -0.274  -0.855  -2.001  0.00  0.00    -0.426 OA
BRANCH  30  31
ATOM     31  C   UNL     1      -1.328  -0.393  -2.693  0.00  0.00    +0.309 C 
ATOM     32  O   UNL     1      -2.216  -1.146  -3.017  0.00  0.00    -0.251 OA
ATOM     33  C   UNL     1      -1.403   1.065  -3.066  0.00  0.00    +0.136 C 
ENDBRANCH  30  31
ENDBRANCH   6  30
TORSDOF 9
