REMARK  Name = ZINC52861338
REMARK  11 active torsions:
REMARK  status: ('A' for Active; 'I' for Inactive)
REMARK    1  A    between atoms: C_1  and  C_2
REMARK    2  A    between atoms: C_2  and  C_3
REMARK    3  A    between atoms: C_2  and  C_4
REMARK    4  A    between atoms: C_2  and  C_5
REMARK    5  A    between atoms: C_5  and  C_7
REMARK    6  A    between atoms: C_5  and  N_12
REMARK    7  A    between atoms: N_12  and  C_13
REMARK    8  A    between atoms: C_13  and  C_14
REMARK    9  A    between atoms: C_18  and  C_20
REMARK   10  A    between atoms: N_22  and  C_23
REMARK   11  A    between atoms: C_23  and  C_24
REMARK                            x       y       z     vdW  Elec       q    Type
REMARK                         _______ _______ _______ _____ _____    ______ ____
ROOT
ATOM      1  C   UNL     1      -1.294  -3.409  -0.929  0.00  0.00    -0.064 A 
ATOM      2  C   UNL     1      -1.290  -4.189  -2.072  0.00  0.00    +0.002 A 
ATOM      3  C   UNL     1      -1.516  -5.551  -1.989  0.00  0.00    +0.001 A 
ATOM      4  C   UNL     1      -1.747  -6.141  -0.763  0.00  0.00    +0.013 A 
ATOM      5  C   UNL     1      -1.752  -5.361   0.394  0.00  0.00    +0.037 A 
ATOM      6  C   UNL     1      -1.518  -3.987   0.303  0.00  0.00    +0.014 A 
ENDROOT
BRANCH   5   7
ATOM      7  C   UNL     1      -2.000  -5.986   1.710  0.00  0.00    +0.244 C 
ATOM      8  O   UNL     1      -2.003  -5.304   2.716  0.00  0.00    -0.270 OA
ATOM      9  N   UNL     1      -2.221  -7.313   1.795  0.00  0.00    -0.304 N 
ATOM     10  H   UNL     1      -2.218  -7.857   0.992  0.00  0.00    +0.149 HD
BRANCH   9  11
ATOM     11  C   UNL     1      -2.466  -7.933   3.100  0.00  0.00    +0.179 C 
BRANCH  11  12
ATOM     12  C   UNL     1      -2.682  -9.413   2.920  0.00  0.00    +0.122 A 
ATOM     13  C   UNL     1      -1.725 -10.358   2.951  0.00  0.00    +0.046 A 
ATOM     14  C   UNL     1      -2.367 -11.599   2.738  0.00  0.00    +0.041 A 
ATOM     15  C   UNL     1      -3.678 -11.339   2.590  0.00  0.00    +0.195 A 
ATOM     16  O   UNL     1      -3.864 -10.014   2.706  0.00  0.00    -0.466 OA
ENDBRANCH  11  12
ENDBRANCH   9  11
ENDBRANCH   5   7
BRANCH   1  17
ATOM     17  C   UNL     1      -1.046  -1.926  -1.029  0.00  0.00    -0.046 C 
BRANCH  17  18
ATOM     18  N   UNL     1       0.394  -1.661  -0.916  0.00  0.00    +0.387 N 
ATOM     19  H   UNL     1       0.883  -2.135  -1.661  0.00  0.00    -0.085 HD
ATOM     20  H   UNL     1       0.730  -1.998  -0.027  0.00  0.00    -0.085 HD
BRANCH  18  21
ATOM     21  C   UNL     1       0.636  -0.215  -1.015  0.00  0.00    -0.028 C 
BRANCH  21  22
ATOM     22  C   UNL     1       0.275   0.261  -2.398  0.00  0.00    -0.024 A 
ATOM     23  C   UNL     1      -0.349   1.405  -2.771  0.00  0.00    +0.009 A 
ATOM     24  C   UNL     1      -0.579   1.637  -4.114  0.00  0.00    +0.008 A 
ATOM     25  C   UNL     1      -0.173   0.712  -5.019  0.00  0.00    +0.045 A 
ATOM     26  S   UNL     1       0.565  -0.531  -3.972  0.00  0.00    -0.103 S 
ENDBRANCH  21  22
BRANCH  21  28
ATOM     27  C   UNL     1       2.382   1.569  -0.932  0.00  0.00    +0.009 C 
ATOM     28  C   UNL     1       2.114   0.074  -0.745  0.00  0.00    -0.046 C 
ATOM     29  C   UNL     1       2.977  -0.725  -1.723  0.00  0.00    +0.009 C 
ATOM     30  C   UNL     1       2.459  -0.331   0.689  0.00  0.00    +0.009 C 
ENDBRANCH  21  28
ENDBRANCH  18  21
ENDBRANCH  17  18
ENDBRANCH   1  17
TORSDOF 8
