REMARK  Name = ZINC58978651
REMARK  9 active torsions:
REMARK  status: ('A' for Active; 'I' for Inactive)
REMARK    1  A    between atoms: C_1  and  C_2
REMARK    2  A    between atoms: C_5  and  C_7
REMARK    3  A    between atoms: C_9  and  C_19
REMARK    4  A    between atoms: N_13  and  C_16
REMARK    5  A    between atoms: C_16  and  C_17
REMARK    6  A    between atoms: C_16  and  C_18
REMARK    7  A    between atoms: N_21  and  C_22
REMARK    8  A    between atoms: C_22  and  C_23
REMARK    9  A    between atoms: N_27  and  C_28
REMARK                            x       y       z     vdW  Elec       q    Type
REMARK                         _______ _______ _______ _____ _____    ______ ____
ROOT
ATOM      1  C   UNL     1       1.038  -4.032  -0.024  0.00  0.00    +0.081 A 
ATOM      2  C   UNL     1       2.424  -4.237  -0.025  0.00  0.00    +0.042 A 
ATOM      3  C   UNL     1       2.918  -5.535  -0.034  0.00  0.00    +0.051 A 
ATOM      4  C   UNL     1       1.986  -6.600  -0.040  0.00  0.00    +0.051 A 
ATOM      5  C   UNL     1       2.112  -8.005  -0.049  0.00  0.00    +0.145 A 
ATOM      6  N   UNL     1       0.919  -8.529  -0.053  0.00  0.00    -0.177 NA
ATOM      7  N   UNL     1      -0.044  -7.513  -0.046  0.00  0.00    -0.244 N 
ATOM      8  C   UNL     1       0.607  -6.307  -0.038  0.00  0.00    +0.160 A 
ATOM      9  N   UNL     1       0.190  -5.050  -0.025  0.00  0.00    -0.227 NA
ENDROOT
BRANCH   1  14
ATOM     10  C   UNL     1      -0.018   1.503   0.010  0.00  0.00    +0.051 C 
ATOM     11  C   UNL     1       0.002  -0.004   0.002  0.00  0.00    -0.013 A 
ATOM     12  C   UNL     1      -1.043  -0.873   0.002  0.00  0.00    +0.011 A 
ATOM     13  C   UNL     1      -0.791  -2.225  -0.007  0.00  0.00    +0.018 A 
ATOM     14  C   UNL     1       0.511  -2.653  -0.015  0.00  0.00    +0.038 A 
ATOM     15  S   UNL     1       1.405  -1.107  -0.018  0.00  0.00    -0.092 S 
ENDBRANCH   1  14
BRANCH   3  16
ATOM     16  C   UNL     1       4.373  -5.796  -0.036  0.00  0.00    +0.245 C 
ATOM     17  O   UNL     1       4.785  -6.940  -0.043  0.00  0.00    -0.270 OA
ATOM     18  N   UNL     1       5.243  -4.767  -0.030  0.00  0.00    -0.304 N 
ATOM     19  H   UNL     1       4.914  -3.854  -0.024  0.00  0.00    +0.149 HD
BRANCH  18  20
ATOM     20  C   UNL     1       6.685  -5.026  -0.032  0.00  0.00    +0.181 C 
BRANCH  20  21
ATOM     21  C   UNL     1       7.430  -3.716  -0.024  0.00  0.00    +0.155 A 
ATOM     22  N   UNL     1       7.808  -3.033  -1.070  0.00  0.00    -0.133 NA
ATOM     23  N   UNL     1       8.420  -1.966  -0.699  0.00  0.00    -0.137 NA
ATOM     24  C   UNL     1       8.464  -1.910   0.604  0.00  0.00    +0.230 A 
ATOM     25  N   UNL     1       7.831  -3.020   1.077  0.00  0.00    -0.284 N 
BRANCH  25  26
ATOM     26  C   UNL     1       7.634  -3.374   2.420  0.00  0.00    +0.049 A 
ATOM     27  C   UNL     1       6.372  -3.743   2.865  0.00  0.00    +0.026 A 
ATOM     28  C   UNL     1       6.181  -4.092   4.187  0.00  0.00    +0.002 A 
ATOM     29  C   UNL     1       7.246  -4.074   5.069  0.00  0.00    +0.000 A 
ATOM     30  C   UNL     1       8.505  -3.708   4.629  0.00  0.00    +0.002 A 
ATOM     31  C   UNL     1       8.703  -3.363   3.306  0.00  0.00    +0.026 A 
ENDBRANCH  25  26
ENDBRANCH  20  21
ENDBRANCH  18  20
ENDBRANCH   3  16
BRANCH   7  32
ATOM     32  C   UNL     1      -1.496  -7.706  -0.048  0.00  0.00    +0.103 C 
ATOM     33  C   UNL     1      -1.907  -8.480  -1.302  0.00  0.00    +0.032 C 
ATOM     34  C   UNL     1      -1.908  -8.496   1.196  0.00  0.00    +0.032 C 
ENDBRANCH   7  32
TORSDOF 6
