REMARK  Name = ZINC38621751
REMARK  8 active torsions:
REMARK  status: ('A' for Active; 'I' for Inactive)
REMARK    1  A    between atoms: C_1  and  C_2
REMARK    2  A    between atoms: C_5  and  N_30
REMARK    3  A    between atoms: C_7  and  S_8
REMARK    4  A    between atoms: S_8  and  N_11
REMARK    5  A    between atoms: N_11  and  C_12
REMARK    6  A    between atoms: C_12  and  C_13
REMARK    7  A    between atoms: C_13  and  C_15
REMARK    8  A    between atoms: C_13  and  N_25
REMARK                            x       y       z     vdW  Elec       q    Type
REMARK                         _______ _______ _______ _____ _____    ______ ____
ROOT
ATOM      1  C   UNL     1       2.968   2.195   2.696  0.00  0.00    -0.021 C 
ENDROOT
BRANCH   1   2
ATOM      2  C   UNL     1       3.338   3.510   2.060  0.00  0.00    -0.052 A 
ATOM      3  C   UNL     1       4.312   3.561   1.110  0.00  0.00    +0.002 A 
ATOM      4  C   UNL     1       4.667   4.768   0.511  0.00  0.00    +0.001 A 
ATOM      5  C   UNL     1       4.052   5.931   0.859  0.00  0.00    +0.008 A 
ATOM      6  C   UNL     1       3.042   5.918   1.836  0.00  0.00    -0.018 A 
ATOM      7  C   UNL     1       2.676   4.689   2.441  0.00  0.00    -0.016 A 
ATOM      8  C   UNL     1       1.662   4.676   3.414  0.00  0.00    +0.009 A 
ATOM      9  C   UNL     1       1.043   5.838   3.758  0.00  0.00    +0.001 A 
ATOM     10  C   UNL     1       1.399   7.045   3.158  0.00  0.00    +0.001 A 
ATOM     11  C   UNL     1       2.385   7.099   2.222  0.00  0.00    +0.008 A 
ENDBRANCH   1   2
BRANCH   1  12
ATOM     12  N   UNL     1       4.111   1.275   2.619  0.00  0.00    +0.385 N 
ATOM     13  C   UNL     1       5.243   1.796   3.427  0.00  0.00    -0.078 C 
ATOM     14  C   UNL     1       6.090   0.530   3.708  0.00  0.00    -0.020 C 
ATOM     15  C   UNL     1       5.019  -0.564   3.918  0.00  0.00    -0.020 C 
ATOM     16  C   UNL     1       3.756  -0.031   3.216  0.00  0.00    -0.078 C 
ATOM     17  H   UNL     1       4.396   1.153   1.659  0.00  0.00    -0.081 HD
ENDBRANCH   1  12
BRANCH   1  18
ATOM     18  C   UNL     1       1.775   1.588   1.955  0.00  0.00    +0.095 C 
BRANCH  18  19
ATOM     19  N   UNL     1       2.172   1.244   0.588  0.00  0.00    -0.191 NA
ATOM     20  H   UNL     1       2.995   1.600   0.218  0.00  0.00    +0.148 HD
BRANCH  19  21
ATOM     21  S   UNL     1       1.217   0.246  -0.326  0.00  0.00    +0.059 S 
ATOM     22  O   UNL     1       0.929  -0.889   0.479  0.00  0.00    -0.153 OA
ATOM     23  O   UNL     1       1.841   0.140  -1.598  0.00  0.00    -0.153 OA
BRANCH  21  30
ATOM     24  C   UNL     1       0.927   2.817  -1.892  0.00  0.00    +0.046 C 
ATOM     25  C   UNL     1      -0.345   2.254  -1.315  0.00  0.00    -0.024 A 
ATOM     26  C   UNL     1      -1.547   2.906  -1.521  0.00  0.00    +0.007 A 
ATOM     27  C   UNL     1      -2.714   2.390  -0.992  0.00  0.00    +0.033 A 
ATOM     28  C   UNL     1      -2.681   1.220  -0.255  0.00  0.00    +0.128 A 
ATOM     29  C   UNL     1      -1.480   0.567  -0.050  0.00  0.00    +0.061 A 
ATOM     30  C   UNL     1      -0.313   1.082  -0.583  0.00  0.00    +0.110 A 
BRANCH  28  31
ATOM     31  N   UNL     1      -3.931   0.667   0.313  0.00  0.00    +0.056 N 
ATOM     32  O   UNL     1      -4.981   1.238   0.133  0.00  0.00    -0.126 OA
ATOM     33  O   UNL     1      -3.901  -0.356   0.957  0.00  0.00    -0.126 OA
ENDBRANCH  28  31
ENDBRANCH  21  30
ENDBRANCH  19  21
ENDBRANCH  18  19
ENDBRANCH   1  18
TORSDOF 7
