REMARK  Name = ZINC01476201
REMARK  7 active torsions:
REMARK  status: ('A' for Active; 'I' for Inactive)
REMARK    1  A    between atoms: C_1  and  C_2
REMARK    2  A    between atoms: C_2  and  C_26
REMARK    3  A    between atoms: C_6  and  C_16
REMARK    4  A    between atoms: C_8  and  C_12
REMARK    5  A    between atoms: C_9  and  N_11
REMARK    6  A    between atoms: C_12  and  O_14
REMARK    7  A    between atoms: O_14  and  C_15
REMARK                            x       y       z     vdW  Elec       q    Type
REMARK                         _______ _______ _______ _____ _____    ______ ____
ROOT
ATOM      1  C   UNL     1      -3.200   3.704  -3.363  0.00  0.00    +0.012 C 
ATOM      2  C   UNL     1      -4.161   2.536  -3.598  0.00  0.00    -0.021 C 
ATOM      3  C   UNL     1      -5.115   2.408  -2.410  0.00  0.00    +0.081 C 
ATOM      4  C   UNL     1      -4.326   2.131  -1.151  0.00  0.00    +0.115 C 
ATOM      5  C   UNL     1      -3.173   1.440  -1.203  0.00  0.00    +0.045 C 
ATOM      6  C   UNL     1      -2.393   1.151   0.057  0.00  0.00    +0.097 C 
ATOM      7  C   UNL     1      -3.275   1.328   1.262  0.00  0.00    +0.105 C 
ATOM      8  C   UNL     1      -4.429   2.038   1.170  0.00  0.00    +0.195 C 
ATOM      9  O   UNL     1      -4.812   2.600   0.014  0.00  0.00    -0.446 OA
ATOM     10  C   UNL     1      -2.657   0.966  -2.425  0.00  0.00    +0.164 C 
ATOM     11  O   UNL     1      -1.622   0.331  -2.429  0.00  0.00    -0.292 OA
ATOM     12  C   UNL     1      -3.365   1.232  -3.725  0.00  0.00    +0.086 C 
ATOM     13  C   UNL     1      -4.960   2.778  -4.881  0.00  0.00    +0.012 C 
ENDROOT
BRANCH   6  14
ATOM     14  C   UNL     1      -1.225   2.098   0.150  0.00  0.00    -0.034 A 
ATOM     15  C   UNL     1      -1.443   3.462   0.200  0.00  0.00    +0.004 A 
ATOM     16  C   UNL     1      -0.372   4.332   0.280  0.00  0.00    +0.002 A 
ATOM     17  C   UNL     1       0.919   3.838   0.314  0.00  0.00    +0.020 A 
ATOM     18  C   UNL     1       1.138   2.473   0.269  0.00  0.00    +0.041 A 
ATOM     19  C   UNL     1       0.065   1.603   0.189  0.00  0.00    +0.024 A 
ATOM     20 CL   UNL     1       2.758   1.851   0.312  0.00  0.00    -0.084 Cl
ENDBRANCH   6  14
BRANCH   8  21
ATOM     21  N   UNL     1      -5.218   2.183   2.279  0.00  0.00    -0.329 N 
ATOM     22  H   UNL     1      -6.000   2.757   2.248  0.00  0.00    +0.145 HD
ATOM     23  H   UNL     1      -4.996   1.711   3.098  0.00  0.00    +0.145 HD
ENDBRANCH   8  21
BRANCH   7  24
ATOM     24  C   UNL     1      -2.903   0.756   2.489  0.00  0.00    +0.341 C 
ATOM     25  O   UNL     1      -3.080  -0.433   2.685  0.00  0.00    -0.245 OA
BRANCH  24  26
ATOM     26  O   UNL     1      -2.350   1.524   3.452  0.00  0.00    -0.465 OA
ATOM     27  C   UNL     1      -1.996   0.876   4.675  0.00  0.00    +0.280 C 
ENDBRANCH  24  26
ENDBRANCH   7  24
TORSDOF 4
