REMARK  Name = ZINC44886954
REMARK  5 active torsions:
REMARK  status: ('A' for Active; 'I' for Inactive)
REMARK    1  A    between atoms: C_1  and  C_2
REMARK    2  A    between atoms: C_2  and  N_9
REMARK    3  A    between atoms: N_9  and  S_10
REMARK    4  A    between atoms: S_10  and  C_13
REMARK    5  A    between atoms: C_15  and  N_21
REMARK                            x       y       z     vdW  Elec       q    Type
REMARK                         _______ _______ _______ _____ _____    ______ ____
ROOT
ATOM      1  S   UNL     1      -2.515  -0.176  -0.973  0.00  0.00    +0.060 S 
ATOM      2  O   UNL     1      -1.849  -0.619  -2.147  0.00  0.00    -0.153 OA
ATOM      3  O   UNL     1      -3.797  -0.659  -0.597  0.00  0.00    -0.153 OA
ENDROOT
BRANCH   1   4
ATOM      4  C   UNL     1      -2.654   1.576  -1.103  0.00  0.00    +0.125 A 
ATOM      5  C   UNL     1      -2.203   2.221  -2.239  0.00  0.00    +0.055 A 
ATOM      6  C   UNL     1      -2.313   3.601  -2.341  0.00  0.00    +0.062 A 
ATOM      7  C   UNL     1      -2.878   4.330  -1.300  0.00  0.00    +0.145 A 
ATOM      8  C   UNL     1      -3.328   3.679  -0.167  0.00  0.00    +0.062 A 
ATOM      9  C   UNL     1      -3.221   2.302  -0.071  0.00  0.00    +0.070 A 
ATOM     10 CL   UNL     1      -3.792   1.486   1.351  0.00  0.00    -0.081 Cl
ATOM     11  F   UNL     1      -2.986   5.673  -1.396  0.00  0.00    -0.204 F 
BRANCH   6  12
ATOM     12  N   UNL     1      -1.856   4.257  -3.490  0.00  0.00    -0.356 N 
ATOM     13  H   UNL     1      -1.462   3.747  -4.215  0.00  0.00    +0.142 HD
ATOM     14  H   UNL     1      -1.933   5.221  -3.561  0.00  0.00    +0.142 HD
ENDBRANCH   6  12
ENDBRANCH   1   4
BRANCH   1  15
ATOM     15  N   UNL     1      -1.499  -0.493   0.296  0.00  0.00    -0.182 NA
ATOM     16  H   UNL     1      -1.842  -0.918   1.097  0.00  0.00    +0.149 HD
BRANCH  15  18
ATOM     17  C   UNL     1       0.026   1.376  -0.020  0.00  0.00    +0.031 C 
ATOM     18  C   UNL     1      -0.082  -0.133   0.207  0.00  0.00    +0.058 C 
ATOM     19  C   UNL     1       0.529  -0.853  -0.995  0.00  0.00    +0.047 C 
ATOM     20  C   UNL     1       2.044  -1.107  -0.758  0.00  0.00    +0.168 C 
ATOM     21  S   UNL     1       2.005  -1.558   1.032  0.00  0.00    -0.029 S 
ATOM     22  O   UNL     1       1.621  -2.920   1.163  0.00  0.00    -0.174 OA
ATOM     23  O   UNL     1       3.197  -1.100   1.656  0.00  0.00    -0.174 OA
ATOM     24  C   UNL     1       0.601  -0.482   1.544  0.00  0.00    +0.189 C 
ENDBRANCH  15  18
ENDBRANCH   1  15
TORSDOF 4
