REMARK  Name = ZINC40313135
REMARK  11 active torsions:
REMARK  status: ('A' for Active; 'I' for Inactive)
REMARK    1  A    between atoms: C_1  and  C_2
REMARK    2  A    between atoms: C_5  and  O_8
REMARK    3  A    between atoms: O_8  and  C_9
REMARK    4  A    between atoms: C_9  and  C_10
REMARK    5  A    between atoms: C_10  and  C_12
REMARK    6  A    between atoms: C_10  and  O_35
REMARK    7  A    between atoms: C_12  and  N_13
REMARK    8  A    between atoms: N_13  and  C_14
REMARK    9  A    between atoms: N_13  and  C_27
REMARK   10  A    between atoms: C_14  and  C_15
REMARK   11  A    between atoms: C_18  and  C_20
REMARK                            x       y       z     vdW  Elec       q    Type
REMARK                         _______ _______ _______ _____ _____    ______ ____
ROOT
ATOM      1  N   UNL     1       0.586  -8.300   2.387  0.00  0.00    +0.389 N 
ATOM      2  H   UNL     1       1.515  -8.683   2.302  0.00  0.00    -0.081 HD
ENDROOT
BRANCH   1   3
ATOM      3  C   UNL     1      -0.116  -8.429   1.103  0.00  0.00    -0.045 C 
ATOM      4  C   UNL     1      -0.032  -9.883   0.609  0.00  0.00    +0.009 C 
ATOM      5  C   UNL     1      -0.479  -9.964  -0.871  0.00  0.00    +0.164 C 
ATOM      6  S   UNL     1      -0.057  -8.293  -1.512  0.00  0.00    -0.033 S 
ATOM      7  O   UNL     1      -1.251  -7.636  -1.915  0.00  0.00    -0.174 OA
ATOM      8  O   UNL     1       1.021  -8.410  -2.432  0.00  0.00    -0.174 OA
ATOM      9  C   UNL     1       0.560  -7.517   0.040  0.00  0.00    +0.151 C 
ENDBRANCH   1   3
BRANCH   1  10
ATOM     10  C   UNL     1       0.673  -6.881   2.757  0.00  0.00    -0.043 C 
BRANCH  10  11
ATOM     11  C   UNL     1       2.139  -6.442   2.753  0.00  0.00    +0.135 C 
BRANCH  11  12
ATOM     12  O   UNL     1       2.846  -7.133   3.786  0.00  0.00    -0.390 OA
ATOM     13  H   UNL     1       2.501  -6.970   4.675  0.00  0.00    +0.210 HD
ENDBRANCH  11  12
BRANCH  11  14
ATOM     14  C   UNL     1       2.221  -4.934   3.000  0.00  0.00    +0.258 C 
BRANCH  14  15
ATOM     15  O   UNL     1       3.579  -4.505   2.881  0.00  0.00    -0.489 OA
BRANCH  15  20
ATOM     16  C   UNL     1       4.608   0.975   3.673  0.00  0.00    +0.044 C 
ATOM     17  C   UNL     1       4.333  -0.491   3.462  0.00  0.00    -0.050 A 
ATOM     18  C   UNL     1       5.373  -1.353   3.168  0.00  0.00    +0.007 A 
ATOM     19  C   UNL     1       5.123  -2.698   2.973  0.00  0.00    +0.046 A 
ATOM     20  C   UNL     1       3.828  -3.183   3.073  0.00  0.00    +0.121 A 
ATOM     21  C   UNL     1       2.785  -2.316   3.369  0.00  0.00    +0.046 A 
ATOM     22  C   UNL     1       3.041  -0.973   3.568  0.00  0.00    +0.007 A 
ENDBRANCH  15  20
ENDBRANCH  14  15
ENDBRANCH  11  14
ENDBRANCH  10  11
ENDBRANCH   1  10
BRANCH   1  23
ATOM     23  C   UNL     1      -0.153  -9.031   3.425  0.00  0.00    -0.003 C 
BRANCH  23  24
ATOM     24  C   UNL     1      -0.115 -10.507   3.122  0.00  0.00    +0.089 A 
ATOM     25  C   UNL     1       0.989 -11.280   3.116  0.00  0.00    +0.043 A 
ATOM     26  C   UNL     1       0.576 -12.586   2.786  0.00  0.00    +0.050 A 
ATOM     27  C   UNL     1      -0.770 -12.538   2.606  0.00  0.00    +0.135 A 
ATOM     28  O   UNL     1      -1.177 -11.272   2.819  0.00  0.00    -0.462 OA
BRANCH  27  29
ATOM     29  C   UNL     1      -1.639 -13.678   2.245  0.00  0.00    +0.017 A 
ATOM     30  C   UNL     1      -1.088 -14.948   2.063  0.00  0.00    +0.014 A 
ATOM     31  C   UNL     1      -1.903 -16.009   1.726  0.00  0.00    +0.039 A 
ATOM     32  C   UNL     1      -3.266 -15.816   1.568  0.00  0.00    +0.123 A 
ATOM     33  C   UNL     1      -3.818 -14.557   1.747  0.00  0.00    +0.039 A 
ATOM     34  C   UNL     1      -3.013 -13.491   2.090  0.00  0.00    +0.014 A 
ATOM     35  F   UNL     1      -4.059 -16.858   1.237  0.00  0.00    -0.205 F 
ENDBRANCH  27  29
ENDBRANCH  23  24
ENDBRANCH   1  23
TORSDOF 10
