REMARK  Name = ZINC63573602
REMARK  9 active torsions:
REMARK  status: ('A' for Active; 'I' for Inactive)
REMARK    1  A    between atoms: C_1  and  N_2
REMARK    2  A    between atoms: N_15  and  C_26
REMARK    3  A    between atoms: C_16  and  C_18
REMARK    4  A    between atoms: C_21  and  O_24
REMARK    5  A    between atoms: O_24  and  C_25
REMARK    6  A    between atoms: C_26  and  C_27
REMARK    7  A    between atoms: N_29  and  C_30
REMARK    8  A    between atoms: C_30  and  C_31
REMARK    9  A    between atoms: C_31  and  C_32
REMARK                            x       y       z     vdW  Elec       q    Type
REMARK                         _______ _______ _______ _____ _____    ______ ____
ROOT
ATOM      1  C   UNL     1      -0.526   1.017  -0.961  0.00  0.00    +0.130 C 
ATOM      2  N   UNL     1      -0.412  -0.413  -0.668  0.00  0.00    -0.321 N 
ATOM      3  C   UNL     1      -0.486  -1.517  -1.569  0.00  0.00    +0.034 A 
ATOM      4  C   UNL     1      -0.181  -1.601  -2.917  0.00  0.00    +0.023 A 
ATOM      5  C   UNL     1      -0.299  -2.804  -3.584  0.00  0.00    +0.002 A 
ATOM      6  C   UNL     1      -0.724  -3.933  -2.907  0.00  0.00    +0.000 A 
ATOM      7  C   UNL     1      -1.047  -3.857  -1.565  0.00  0.00    +0.006 A 
ATOM      8  C   UNL     1      -0.949  -2.662  -0.891  0.00  0.00    -0.019 A 
ATOM      9  C   UNL     1      -1.276  -2.205   0.491  0.00  0.00    +0.075 C 
ATOM     10  C   UNL     1      -0.196  -1.046   0.580  0.00  0.00    +0.169 C 
ATOM     11  C   UNL     1      -0.241  -0.687   1.985  0.00  0.00    +0.238 C 
ATOM     12  O   UNL     1      -0.084   0.420   2.454  0.00  0.00    -0.274 OA
ATOM     13  N   UNL     1      -0.498  -1.845   2.683  0.00  0.00    -0.283 N 
ATOM     14  C   UNL     1      -0.795  -2.971   1.721  0.00  0.00    +0.116 C 
ENDROOT
BRANCH  14  15
ATOM     15  C   UNL     1       0.462  -3.744   1.415  0.00  0.00    -0.026 A 
ATOM     16  C   UNL     1       1.698  -3.153   1.603  0.00  0.00    +0.009 A 
ATOM     17  C   UNL     1       2.852  -3.860   1.323  0.00  0.00    +0.046 A 
ATOM     18  C   UNL     1       2.770  -5.163   0.854  0.00  0.00    +0.120 A 
ATOM     19  C   UNL     1       1.528  -5.753   0.667  0.00  0.00    +0.046 A 
ATOM     20  C   UNL     1       0.378  -5.044   0.954  0.00  0.00    +0.009 A 
BRANCH  18  21
ATOM     21  O   UNL     1       3.903  -5.860   0.578  0.00  0.00    -0.495 OA
ATOM     22  C   UNL     1       3.742  -7.196   0.098  0.00  0.00    +0.277 C 
ENDBRANCH  18  21
ENDBRANCH  14  15
BRANCH  13  23
ATOM     23  C   UNL     1      -0.507  -1.966   4.143  0.00  0.00    +0.204 C 
BRANCH  23  24
ATOM     24  C   UNL     1      -1.894  -1.690   4.662  0.00  0.00    +0.230 C 
ATOM     25  O   UNL     1      -2.788  -1.418   3.889  0.00  0.00    -0.274 OA
ATOM     26  N   UNL     1      -2.142  -1.745   5.986  0.00  0.00    -0.314 N 
ATOM     27  H   UNL     1      -1.427  -1.963   6.605  0.00  0.00    +0.149 HD
BRANCH  26  28
ATOM     28  C   UNL     1      -3.490  -1.477   6.491  0.00  0.00    +0.108 C 
BRANCH  28  29
ATOM     29  C   UNL     1      -3.499  -1.604   8.016  0.00  0.00    +0.052 C 
BRANCH  29  30
ATOM     30  C   UNL     1      -4.887  -1.328   8.535  0.00  0.00    -0.040 C 
ATOM     31  C   UNL     1      -5.845  -2.239   8.820  0.00  0.00    -0.001 A 
ATOM     32  C   UNL     1      -5.881  -3.704   8.733  0.00  0.00    +0.010 A 
ATOM     33  C   UNL     1      -7.010  -4.354   9.096  0.00  0.00    +0.001 A 
ATOM     34  C   UNL     1      -8.143  -3.667   9.552  0.00  0.00    +0.002 A 
ATOM     35  C   UNL     1      -8.186  -2.322   9.658  0.00  0.00    +0.026 A 
ATOM     36  C   UNL     1      -7.054  -1.536   9.304  0.00  0.00    +0.043 A 
ATOM     37  N   UNL     1      -6.852  -0.241   9.318  0.00  0.00    -0.380 N 
ATOM     38  C   UNL     1      -5.487   0.024   8.850  0.00  0.00    +0.144 C 
ATOM     39  H   UNL     1      -7.495   0.429   9.596  0.00  0.00    +0.160 HD
ENDBRANCH  29  30
ENDBRANCH  28  29
ENDBRANCH  26  28
ENDBRANCH  23  24
ENDBRANCH  13  23
TORSDOF 7
