REMARK  Name = ZINC59015513
REMARK  6 active torsions:
REMARK  status: ('A' for Active; 'I' for Inactive)
REMARK    1  A    between atoms: C_4  and  N_8
REMARK    2  A    between atoms: C_9  and  C_11
REMARK    3  A    between atoms: C_11  and  S_12
REMARK    4  A    between atoms: S_12  and  C_13
REMARK    5  A    between atoms: N_18  and  N_19
REMARK    6  A    between atoms: C_20  and  C_21
REMARK                            x       y       z     vdW  Elec       q    Type
REMARK                         _______ _______ _______ _____ _____    ______ ____
ROOT
ATOM      1  C   UNL     1       6.388  -5.025   1.050  0.00  0.00    +0.211 A 
ATOM      2  N   UNL     1       6.699  -6.277   1.401  0.00  0.00    -0.186 NA
ATOM      3  C   UNL     1       8.002  -6.446   1.332  0.00  0.00    +0.232 A 
ATOM      4  N   UNL     1       8.553  -5.282   0.927  0.00  0.00    -0.245 N 
ATOM      5  N   UNL     1       7.491  -4.381   0.747  0.00  0.00    -0.144 NA
ATOM      6  N   UNL     1       8.687  -7.612   1.622  0.00  0.00    -0.205 N 
ATOM      7  H   UNL     1       9.654  -7.640   1.541  0.00  0.00    +0.177 HD
ATOM      8  H   UNL     1       9.496  -5.104   0.786  0.00  0.00    +0.192 HD
ENDROOT
BRANCH   6   9
ATOM      9  N   UNL     1       7.986  -8.753   2.033  0.00  0.00    -0.188 NA
ATOM     10  C   UNL     1       8.629  -9.848   2.305  0.00  0.00    +0.138 C 
BRANCH  10  11
ATOM     11  C   UNL     1       7.890 -11.048   2.737  0.00  0.00    -0.005 A 
ATOM     12  C   UNL     1       6.498 -11.014   2.849  0.00  0.00    +0.010 A 
ATOM     13  C   UNL     1       5.814 -12.140   3.254  0.00  0.00    +0.016 A 
ATOM     14  C   UNL     1       6.503 -13.305   3.548  0.00  0.00    +0.018 A 
ATOM     15  C   UNL     1       7.883 -13.346   3.440  0.00  0.00    +0.016 A 
ATOM     16  C   UNL     1       8.579 -12.228   3.031  0.00  0.00    +0.010 A 
ATOM     17 BR   UNL     1       5.556 -14.845   4.103  0.00  0.00    -0.050 Br
ENDBRANCH  10  11
ENDBRANCH   6   9
BRANCH   1  18
ATOM     18  S   UNL     1       4.762  -4.350   0.996  0.00  0.00    -0.075 S 
BRANCH  18  19
ATOM     19  C   UNL     1       5.014  -2.640   0.444  0.00  0.00    +0.173 C 
BRANCH  19  21
ATOM     20  N   UNL     1       3.624  -0.651  -0.037  0.00  0.00    -0.282 N 
ATOM     21  C   UNL     1       3.683  -1.940   0.354  0.00  0.00    +0.228 C 
ATOM     22  O   UNL     1       2.664  -2.535   0.634  0.00  0.00    -0.275 OA
ATOM     23  H   UNL     1       4.429  -0.197  -0.331  0.00  0.00    +0.155 HD
BRANCH  20  27
ATOM     24  C   UNL     1      -0.016   1.379   0.010  0.00  0.00    +0.003 A 
ATOM     25  C   UNL     1       0.787   1.377   1.136  0.00  0.00    +0.022 A 
ATOM     26  C   UNL     1       1.994   0.704   1.123  0.00  0.00    +0.064 A 
ATOM     27  C   UNL     1       2.401   0.030  -0.021  0.00  0.00    +0.070 A 
ATOM     28  C   UNL     1       1.591   0.035  -1.151  0.00  0.00    +0.064 A 
ATOM     29  C   UNL     1       0.385   0.710  -1.131  0.00  0.00    +0.022 A 
ATOM     30 CL   UNL     1       2.095  -0.805  -2.584  0.00  0.00    -0.082 Cl
ATOM     31 CL   UNL     1       3.002   0.702   2.537  0.00  0.00    -0.082 Cl
ENDBRANCH  20  27
ENDBRANCH  19  21
ENDBRANCH  18  19
ENDBRANCH   1  18
TORSDOF 6
