REMARK  Name = ZINC36571061
REMARK  11 active torsions:
REMARK  status: ('A' for Active; 'I' for Inactive)
REMARK    1  A    between atoms: C_1  and  C_2
REMARK    2  A    between atoms: C_2  and  C_3
REMARK    3  A    between atoms: C_3  and  N_4
REMARK    4  A    between atoms: N_4  and  C_5
REMARK    5  A    between atoms: C_5  and  C_7
REMARK    6  A    between atoms: C_5  and  C_17
REMARK    7  A    between atoms: C_9  and  N_14
REMARK    8  A    between atoms: N_19  and  C_20
REMARK    9  A    between atoms: C_26  and  C_28
REMARK   10  A    between atoms: C_29  and  O_35
REMARK   11  A    between atoms: C_33  and  O_34
REMARK                            x       y       z     vdW  Elec       q    Type
REMARK                         _______ _______ _______ _____ _____    ______ ____
ROOT
ATOM      1  C   UNL     1      -1.284  -2.827   1.083  0.00  0.00    +0.194 C 
ENDROOT
BRANCH   1   2
ATOM      2  C   UNL     1      -2.562  -2.395   1.755  0.00  0.00    +0.002 A 
ATOM      3  C   UNL     1      -2.518  -1.537   2.838  0.00  0.00    +0.040 A 
ATOM      4  C   UNL     1      -3.691  -1.141   3.455  0.00  0.00    +0.127 A 
ATOM      5  C   UNL     1      -4.907  -1.604   2.990  0.00  0.00    +0.034 A 
ATOM      6  C   UNL     1      -4.953  -2.462   1.907  0.00  0.00    +0.022 A 
ATOM      7  C   UNL     1      -3.780  -2.854   1.286  0.00  0.00    +0.047 A 
ATOM      8 CL   UNL     1      -3.837  -3.926  -0.079  0.00  0.00    -0.083 Cl
BRANCH   4   9
ATOM      9  N   UNL     1      -3.643  -0.223   4.614  0.00  0.00    +0.056 N 
ATOM     10  O   UNL     1      -2.579   0.182   5.022  0.00  0.00    -0.126 OA
ATOM     11  O   UNL     1      -4.668   0.123   5.154  0.00  0.00    -0.126 OA
ENDBRANCH   4   9
ENDBRANCH   1   2
BRANCH   1  12
ATOM     12  C   UNL     1      -0.121  -2.574   2.007  0.00  0.00    +0.238 C 
ATOM     13  O   UNL     1       0.586  -1.602   1.840  0.00  0.00    -0.273 OA
ATOM     14  N   UNL     1       0.135  -3.427   3.018  0.00  0.00    -0.311 N 
ATOM     15  H   UNL     1      -0.388  -4.239   3.112  0.00  0.00    +0.149 HD
BRANCH  14  16
ATOM     16  C   UNL     1       1.202  -3.129   3.976  0.00  0.00    +0.073 C 
ATOM     17  C   UNL     1       2.540  -3.620   3.418  0.00  0.00    +0.022 C 
ATOM     18  C   UNL     1       3.655  -3.309   4.419  0.00  0.00    +0.002 C 
ATOM     19  C   UNL     1       3.364  -4.017   5.744  0.00  0.00    +0.000 C 
ATOM     20  C   UNL     1       2.026  -3.526   6.301  0.00  0.00    +0.002 C 
ATOM     21  C   UNL     1       0.911  -3.837   5.301  0.00  0.00    +0.022 C 
ENDBRANCH  14  16
ENDBRANCH   1  12
BRANCH   1  22
ATOM     22  N   UNL     1      -1.101  -2.063  -0.153  0.00  0.00    -0.282 N 
ATOM     23  C   UNL     1      -0.086  -2.364  -0.987  0.00  0.00    +0.255 C 
ATOM     24  O   UNL     1       0.679  -3.269  -0.712  0.00  0.00    -0.270 OA
BRANCH  23  25
ATOM     25  C   UNL     1       0.099  -1.597  -2.230  0.00  0.00    +0.119 A 
ATOM     26  C   UNL     1       0.906  -0.450  -2.239  0.00  0.00    +0.133 A 
ATOM     27  C   UNL     1       1.073   0.265  -3.414  0.00  0.00    +0.046 A 
ATOM     28  C   UNL     1       0.447  -0.149  -4.575  0.00  0.00    +0.007 A 
ATOM     29  C   UNL     1      -0.352  -1.278  -4.577  0.00  0.00    +0.046 A 
ATOM     30  C   UNL     1      -0.528  -2.010  -3.415  0.00  0.00    +0.133 A 
BRANCH  30  31
ATOM     31  O   UNL     1      -1.307  -3.121  -3.421  0.00  0.00    -0.506 OA
ATOM     32  H   UNL     1      -2.238  -2.950  -3.223  0.00  0.00    +0.292 HD
ENDBRANCH  30  31
BRANCH  26  33
ATOM     33  O   UNL     1       1.521  -0.041  -1.101  0.00  0.00    -0.506 OA
ATOM     34  H   UNL     1       2.402  -0.419  -0.973  0.00  0.00    +0.292 HD
ENDBRANCH  26  33
ENDBRANCH  23  25
BRANCH  22  35
ATOM     35  C   UNL     1      -2.022  -0.973  -0.484  0.00  0.00    +0.109 C 
BRANCH  35  37
ATOM     36  C   UNL     1      -2.464   1.471  -0.215  0.00  0.00    +0.005 C 
ATOM     37  C   UNL     1      -1.566   0.309   0.215  0.00  0.00    +0.016 C 
ENDBRANCH  35  37
ENDBRANCH  22  35
ENDBRANCH   1  22
TORSDOF 10
