REMARK  Name = ZINC08623921
REMARK  11 active torsions:
REMARK  status: ('A' for Active; 'I' for Inactive)
REMARK    1  A    between atoms: C_1  and  C_2
REMARK    2  A    between atoms: C_3  and  C_17
REMARK    3  A    between atoms: C_4  and  C_16
REMARK    4  A    between atoms: N_5  and  C_7
REMARK    5  A    between atoms: C_12  and  N_13
REMARK    6  A    between atoms: C_20  and  N_60
REMARK    7  A    between atoms: C_24  and  C_25
REMARK    8  A    between atoms: C_24  and  N_60
REMARK    9  A    between atoms: C_28  and  N_31
REMARK   10  A    between atoms: N_31  and  C_32
REMARK   11  A    between atoms: N_31  and  C_33
REMARK                            x       y       z     vdW  Elec       q    Type
REMARK                         _______ _______ _______ _____ _____    ______ ____
ROOT
ATOM      1  C   UNL     1      -0.122   3.347  -1.473  0.00  0.00    +0.044 C 
ATOM      2  C   UNL     1       0.470   2.201  -0.620  0.00  0.00    +0.000 C 
ATOM      3  C   UNL     1       0.194   2.713   0.814  0.00  0.00    -0.047 C 
ATOM      4  C   UNL     1       0.099   4.215   0.673  0.00  0.00    -0.046 C 
ATOM      5  C   UNL     1      -0.073   4.561  -0.574  0.00  0.00    -0.025 C 
ENDROOT
BRANCH   1   8
ATOM      6  C   UNL     1       2.943   4.151  -1.515  0.00  0.00    +0.068 C 
ATOM      7  C   UNL     1       2.071   3.927  -2.724  0.00  0.00    +0.064 A 
ATOM      8  C   UNL     1       0.718   3.572  -2.704  0.00  0.00    +0.003 A 
ATOM      9  C   UNL     1       0.298   3.461  -3.986  0.00  0.00    +0.046 A 
ATOM     10  N   UNL     1       1.348   3.745  -4.789  0.00  0.00    -0.234 N 
ATOM     11  N   UNL     1       2.450   4.030  -3.972  0.00  0.00    -0.171 NA
ATOM     12  C   UNL     1      -1.092   3.091  -4.436  0.00  0.00    +0.066 C 
BRANCH  10  13
ATOM     13  C   UNL     1       1.337   3.747  -6.191  0.00  0.00    +0.096 A 
ATOM     14  C   UNL     1       1.286   2.547  -6.888  0.00  0.00    +0.030 A 
ATOM     15  C   UNL     1       1.276   2.552  -8.269  0.00  0.00    +0.002 A 
ATOM     16  C   UNL     1       1.315   3.751  -8.957  0.00  0.00    +0.002 A 
ATOM     17  C   UNL     1       1.366   4.947  -8.266  0.00  0.00    +0.035 A 
ATOM     18  C   UNL     1       1.371   4.948  -6.885  0.00  0.00    +0.151 A 
BRANCH  18  19
ATOM     19  N   UNL     1       1.420   6.230  -6.145  0.00  0.00    +0.059 N 
ATOM     20  O   UNL     1       1.524   7.280  -6.753  0.00  0.00    -0.126 OA
ATOM     21  O   UNL     1       1.355   6.234  -4.929  0.00  0.00    -0.126 OA
ENDBRANCH  18  19
ENDBRANCH  10  13
ENDBRANCH   1   8
BRANCH   3  22
ATOM     22  N   UNL     1      -1.080   2.161   1.312  0.00  0.00    +0.386 N 
ATOM     23  H   UNL     1      -1.202   1.209   0.948  0.00  0.00    -0.085 HD
ATOM     24  H   UNL     1      -1.854   2.753   0.989  0.00  0.00    -0.085 HD
BRANCH  22  25
ATOM     25  C   UNL     1      -1.079   2.123   2.786  0.00  0.00    -0.046 C 
BRANCH  25  26
ATOM     26  C   UNL     1      -2.391   1.556   3.266  0.00  0.00    -0.064 A 
ATOM     27  C   UNL     1      -3.456   2.401   3.520  0.00  0.00    +0.003 A 
ATOM     28  C   UNL     1      -4.661   1.884   3.954  0.00  0.00    +0.023 A 
ATOM     29  C   UNL     1      -4.799   0.515   4.146  0.00  0.00    +0.029 A 
ATOM     30  C   UNL     1      -3.725  -0.330   3.896  0.00  0.00    +0.023 A 
ATOM     31  C   UNL     1      -2.525   0.193   3.456  0.00  0.00    +0.003 A 
BRANCH  29  32
ATOM     32  N   UNL     1      -6.015  -0.010   4.590  0.00  0.00    -0.336 N 
ATOM     33  C   UNL     1      -6.122  -1.434   4.915  0.00  0.00    +0.129 C 
ATOM     34  C   UNL     1      -7.182   0.864   4.732  0.00  0.00    +0.129 C 
ENDBRANCH  29  32
ENDBRANCH  25  26
ENDBRANCH  22  25
ENDBRANCH   3  22
TORSDOF 7
