REMARK  Name = ZINC15768958
REMARK  4 active torsions:
REMARK  status: ('A' for Active; 'I' for Inactive)
REMARK    1  A    between atoms: C_4  and  N_7
REMARK    2  A    between atoms: C_12  and  N_54
REMARK    3  A    between atoms: C_19  and  C_24
REMARK    4  A    between atoms: C_19  and  N_54
REMARK                            x       y       z     vdW  Elec       q    Type
REMARK                         _______ _______ _______ _____ _____    ______ ____
ROOT
ATOM      1  N   UNL     1      -1.807   3.535   3.642  0.00  0.00    -0.230 N 
ATOM      2  C   UNL     1      -2.111   2.188   4.110  0.00  0.00    +0.120 C 
ATOM      3  C   UNL     1      -1.887   1.012   3.185  0.00  0.00    +0.025 C 
ATOM      4  C   UNL     1      -2.417  -0.235   3.916  0.00  0.00    -0.014 C 
ATOM      5  C   UNL     1      -3.882  -0.089   4.313  0.00  0.00    -0.068 C 
ATOM      6  C   UNL     1      -4.125   1.200   5.123  0.00  0.00    +0.015 C 
ATOM      7  C   UNL     1      -3.650   2.336   4.251  0.00  0.00    +0.150 C 
ATOM      8  N   UNL     1      -3.783   3.712   4.665  0.00  0.00    -0.166 NA
ATOM      9  N   UNL     1      -2.760   4.341   4.316  0.00  0.00    -0.083 NA
ENDROOT
BRANCH   1  13
ATOM     10  C   UNL     1       0.609   6.058   1.192  0.00  0.00    +0.000 C 
ATOM     11  C   UNL     1       1.262   5.380   2.398  0.00  0.00    +0.002 C 
ATOM     12  C   UNL     1       0.178   4.941   3.385  0.00  0.00    +0.024 C 
ATOM     13  C   UNL     1      -0.769   3.956   2.697  0.00  0.00    +0.095 C 
ATOM     14  C   UNL     1      -1.423   4.634   1.491  0.00  0.00    +0.024 C 
ATOM     15  C   UNL     1      -0.339   5.073   0.504  0.00  0.00    +0.002 C 
ENDBRANCH   1  13
BRANCH   5  16
ATOM     16  N   UNL     1      -4.706  -0.054   3.090  0.00  0.00    +0.390 N 
ATOM     17  H   UNL     1      -4.093  -0.096   2.267  0.00  0.00    -0.084 HD
ATOM     18  H   UNL     1      -5.245   0.820   3.070  0.00  0.00    -0.084 HD
BRANCH  16  19
ATOM     19  C   UNL     1      -5.634  -1.200   3.064  0.00  0.00    +0.010 C 
ATOM     20  C   UNL     1      -6.613  -1.050   1.882  0.00  0.00    -0.003 C 
ATOM     21  C   UNL     1      -7.958  -1.590   2.432  0.00  0.00    -0.001 C 
ATOM     22  C   UNL     1      -7.958  -1.082   3.895  0.00  0.00    -0.001 C 
ATOM     23  C   UNL     1      -6.489  -1.221   4.344  0.00  0.00    -0.003 C 
BRANCH  19  24
ATOM     24  C   UNL     1      -4.864  -2.489   2.936  0.00  0.00    +0.200 C 
ATOM     25  O   UNL     1      -5.225  -3.474   3.545  0.00  0.00    -0.278 OA
ATOM     26  N   UNL     1      -3.774  -2.547   2.146  0.00  0.00    -0.330 N 
ATOM     27  H   UNL     1      -3.527  -1.782   1.603  0.00  0.00    +0.145 HD
ATOM     28  H   UNL     1      -3.237  -3.354   2.119  0.00  0.00    +0.145 HD
ENDBRANCH  19  24
ENDBRANCH  16  19
ENDBRANCH   5  16
TORSDOF 4
