REMARK  Name = ZINC64338202
REMARK  11 active torsions:
REMARK  status: ('A' for Active; 'I' for Inactive)
REMARK    1  A    between atoms: C_1  and  C_2
REMARK    2  A    between atoms: C_2  and  C_3
REMARK    3  A    between atoms: C_3  and  C_5
REMARK    4  A    between atoms: C_3  and  N_6
REMARK    5  A    between atoms: C_7  and  C_9
REMARK    6  A    between atoms: C_9  and  C_11
REMARK    7  A    between atoms: C_9  and  N_21
REMARK    8  A    between atoms: C_11  and  C_12
REMARK    9  A    between atoms: C_22  and  O_24
REMARK   10  A    between atoms: O_24  and  C_25
REMARK   11  A    between atoms: C_25  and  C_26
REMARK                            x       y       z     vdW  Elec       q    Type
REMARK                         _______ _______ _______ _____ _____    ______ ____
ROOT
ATOM      1  C   UNL     1      -4.090   0.329   2.630  0.00  0.00    +0.166 C 
ENDROOT
BRANCH   1   3
ATOM      2  N   UNL     1      -2.082  -0.162   1.273  0.00  0.00    -0.311 N 
ATOM      3  C   UNL     1      -3.424  -0.053   1.334  0.00  0.00    +0.234 C 
ATOM      4  O   UNL     1      -4.095  -0.264   0.346  0.00  0.00    -0.274 OA
ATOM      5  H   UNL     1      -1.545   0.006   2.063  0.00  0.00    +0.149 HD
BRANCH   2   6
ATOM      6  C   UNL     1      -1.433  -0.534   0.013  0.00  0.00    +0.070 C 
ATOM      7  C   UNL     1      -1.416  -2.058  -0.121  0.00  0.00    +0.028 C 
BRANCH   6   9
ATOM      8  C   UNL     1      -0.019   1.526   0.010  0.00  0.00    +0.005 C 
ATOM      9  C   UNL     1       0.002  -0.004   0.002  0.00  0.00    +0.018 C 
ENDBRANCH   6   9
ENDBRANCH   2   6
ENDBRANCH   1   3
BRANCH   1  10
ATOM     10  N   UNL     1      -5.542   0.379   2.437  0.00  0.00    -0.270 N 
ATOM     11  C   UNL     1      -6.274  -0.748   2.542  0.00  0.00    +0.401 C 
ATOM     12  O   UNL     1      -5.731  -1.804   2.797  0.00  0.00    -0.226 OA
ATOM     13  H   UNL     1      -5.975   1.222   2.233  0.00  0.00    +0.153 HD
BRANCH  11  14
ATOM     14  O   UNL     1      -7.608  -0.702   2.364  0.00  0.00    -0.446 OA
BRANCH  14  15
ATOM     15  C   UNL     1      -8.322  -1.933   2.490  0.00  0.00    +0.269 C 
BRANCH  15  16
ATOM     16  C   UNL     1      -9.791  -1.688   2.260  0.00  0.00    -0.010 A 
ATOM     17  C   UNL     1     -10.613  -1.364   3.323  0.00  0.00    +0.007 A 
ATOM     18  C   UNL     1     -11.960  -1.139   3.112  0.00  0.00    +0.000 A 
ATOM     19  C   UNL     1     -12.486  -1.238   1.838  0.00  0.00    +0.000 A 
ATOM     20  C   UNL     1     -11.664  -1.561   0.774  0.00  0.00    +0.000 A 
ATOM     21  C   UNL     1     -10.316  -1.782   0.985  0.00  0.00    +0.007 A 
ENDBRANCH  15  16
ENDBRANCH  14  15
ENDBRANCH  11  14
ENDBRANCH   1  10
BRANCH   1  22
ATOM     22  C   UNL     1      -3.588   1.704   3.076  0.00  0.00    +0.065 C 
BRANCH  22  23
ATOM     23  C   UNL     1      -4.160   2.033   4.431  0.00  0.00    -0.039 C 
ATOM     24  C   UNL     1      -3.571   1.834   5.632  0.00  0.00    -0.001 A 
ATOM     25  C   UNL     1      -2.271   1.273   6.022  0.00  0.00    +0.010 A 
ATOM     26  C   UNL     1      -1.955   1.202   7.335  0.00  0.00    +0.001 A 
ATOM     27  C   UNL     1      -2.834   1.649   8.330  0.00  0.00    +0.002 A 
ATOM     28  C   UNL     1      -4.045   2.176   8.050  0.00  0.00    +0.026 A 
ATOM     29  C   UNL     1      -4.481   2.300   6.702  0.00  0.00    +0.043 A 
ATOM     30  N   UNL     1      -5.590   2.768   6.183  0.00  0.00    -0.380 N 
ATOM     31  C   UNL     1      -5.506   2.657   4.723  0.00  0.00    +0.144 C 
ATOM     32  H   UNL     1      -6.340   3.130   6.681  0.00  0.00    +0.160 HD
ENDBRANCH  22  23
ENDBRANCH   1  22
TORSDOF 9
