REMARK  Name = ZINC24929617
REMARK  7 active torsions:
REMARK  status: ('A' for Active; 'I' for Inactive)
REMARK    1  A    between atoms: C_4  and  N_7
REMARK    2  A    between atoms: N_10  and  C_13
REMARK    3  A    between atoms: C_13  and  C_14
REMARK    4  A    between atoms: N_16  and  C_17
REMARK    5  A    between atoms: C_17  and  C_18
REMARK    6  A    between atoms: C_18  and  C_20
REMARK    7  A    between atoms: C_18  and  N_27
REMARK                            x       y       z     vdW  Elec       q    Type
REMARK                         _______ _______ _______ _____ _____    ______ ____
ROOT
ATOM      1  C   UNL     1      -3.810   0.167   3.188  0.00  0.00    +0.235 C 
ATOM      2  O   UNL     1      -2.921   0.349   3.992  0.00  0.00    -0.274 OA
ATOM      3  N   UNL     1      -3.664   0.588   1.916  0.00  0.00    -0.315 N 
ATOM      4  H   UNL     1      -4.471   0.423   1.186  0.00  0.00    +0.149 HD
ENDROOT
BRANCH   1   5
ATOM      5  C   UNL     1      -5.077  -0.531   3.610  0.00  0.00    +0.246 C 
BRANCH   5   9
ATOM      6  N   UNL     1      -5.120  -0.832   7.187  0.00  0.00    -0.161 N 
ATOM      7  C   UNL     1      -5.380  -0.120   6.070  0.00  0.00    +0.369 A 
ATOM      8  O   UNL     1      -5.871   0.994   6.012  0.00  0.00    -0.243 OA
ATOM      9  N   UNL     1      -4.989  -0.886   5.029  0.00  0.00    -0.184 N 
ATOM     10  N   UNL     1      -4.490  -2.085   5.553  0.00  0.00    -0.042 NA
ATOM     11  N   UNL     1      -4.559  -2.052   6.787  0.00  0.00    -0.038 NA
BRANCH   6  15
ATOM     12  C   UNL     1      -5.847   0.378  11.109  0.00  0.00    +0.000 A 
ATOM     13  C   UNL     1      -5.286  -0.862  10.862  0.00  0.00    +0.002 A 
ATOM     14  C   UNL     1      -5.044  -1.266   9.563  0.00  0.00    +0.028 A 
ATOM     15  C   UNL     1      -5.364  -0.426   8.505  0.00  0.00    +0.072 A 
ATOM     16  C   UNL     1      -5.922   0.821   8.757  0.00  0.00    +0.028 A 
ATOM     17  C   UNL     1      -6.167   1.217  10.057  0.00  0.00    +0.002 A 
ENDBRANCH   6  15
ENDBRANCH   5   9
ENDBRANCH   1   5
BRANCH   3  18
ATOM     18  C   UNL     1      -2.432   1.265   1.505  0.00  0.00    +0.093 C 
BRANCH  18  19
ATOM     19  C   UNL     1      -2.524   1.637   0.023  0.00  0.00    -0.019 C 
BRANCH  19  20
ATOM     20  C   UNL     1      -1.243   2.305  -0.407  0.00  0.00    -0.041 A 
ATOM     21  C   UNL     1      -1.206   3.675  -0.588  0.00  0.00    +0.003 A 
ATOM     22  C   UNL     1      -0.033   4.287  -0.988  0.00  0.00    +0.000 A 
ATOM     23  C   UNL     1       1.105   3.531  -1.202  0.00  0.00    +0.001 A 
ATOM     24  C   UNL     1       1.069   2.162  -1.017  0.00  0.00    +0.020 A 
ATOM     25  C   UNL     1      -0.104   1.548  -0.616  0.00  0.00    +0.043 A 
ATOM     26 CL   UNL     1      -0.149  -0.171  -0.384  0.00  0.00    -0.083 Cl
ENDBRANCH  19  20
BRANCH  19  27
ATOM     27  N   UNL     1      -3.650   2.557  -0.182  0.00  0.00    +0.385 N 
ATOM     28  C   UNL     1      -3.586   3.697   0.769  0.00  0.00    -0.078 C 
ATOM     29  C   UNL     1      -4.471   4.773   0.092  0.00  0.00    -0.020 C 
ATOM     30  C   UNL     1      -4.149   4.592  -1.409  0.00  0.00    -0.020 C 
ATOM     31  C   UNL     1      -3.605   3.157  -1.533  0.00  0.00    -0.078 C 
ATOM     32  H   UNL     1      -4.559   1.955  -0.038  0.00  0.00    -0.081 HD
ENDBRANCH  19  27
ENDBRANCH  18  19
ENDBRANCH   3  18
TORSDOF 7
