REMARK  Name = ZINC61551979
REMARK  7 active torsions:
REMARK  status: ('A' for Active; 'I' for Inactive)
REMARK    1  A    between atoms: C_1  and  C_2
REMARK    2  A    between atoms: C_4  and  C_27
REMARK    3  A    between atoms: C_9  and  C_10
REMARK    4  A    between atoms: C_10  and  N_11
REMARK    5  A    between atoms: N_14  and  C_15
REMARK    6  A    between atoms: C_15  and  C_16
REMARK    7  A    between atoms: C_16  and  N_21
REMARK                            x       y       z     vdW  Elec       q    Type
REMARK                         _______ _______ _______ _____ _____    ______ ____
ROOT
ATOM      1  N   UNL     1      -1.082   0.049   3.337  0.00  0.00    -0.295 N 
ATOM      2  C   UNL     1      -1.426   0.702   4.464  0.00  0.00    +0.300 C 
ATOM      3  O   UNL     1      -0.566   1.186   5.174  0.00  0.00    -0.253 OA
ATOM      4  N   UNL     1      -2.725   0.819   4.805  0.00  0.00    -0.301 N 
ATOM      5  H   UNL     1      -1.768  -0.337   2.770  0.00  0.00    +0.151 HD
ATOM      6  H   UNL     1      -3.412   0.433   4.239  0.00  0.00    +0.150 HD
ENDROOT
BRANCH   1   7
ATOM      7  C   UNL     1       0.330  -0.078   2.966  0.00  0.00    +0.146 C 
BRANCH   7  16
ATOM      8  C   UNL     1       0.513   1.323   0.448  0.00  0.00    +0.044 C 
ATOM      9  C   UNL     1       0.529  -0.184   0.485  0.00  0.00    -0.039 A 
ATOM     10  C   UNL     1       0.639  -0.920  -0.703  0.00  0.00    +0.024 A 
ATOM     11  C   UNL     1       0.653  -2.273  -0.661  0.00  0.00    +0.016 A 
ATOM     12  N   UNL     1       0.562  -2.930   0.524  0.00  0.00    -0.326 N 
ATOM     13  H   UNL     1       0.574  -3.900   0.536  0.00  0.00    +0.169 HD
ATOM     14  C   UNL     1       0.456  -2.251   1.682  0.00  0.00    +0.254 A 
ATOM     15  O   UNL     1       0.375  -2.856   2.739  0.00  0.00    -0.268 OA
ATOM     16  C   UNL     1       0.443  -0.846   1.674  0.00  0.00    +0.037 A 
ATOM     17  C   UNL     1       0.771  -3.058  -1.942  0.00  0.00    +0.063 C 
ENDBRANCH   7  16
ENDBRANCH   1   7
BRANCH   4  18
ATOM     18  C   UNL     1      -3.100   1.529   6.030  0.00  0.00    +0.094 C 
BRANCH  18  19
ATOM     19  C   UNL     1      -4.622   1.517   6.182  0.00  0.00    -0.050 C 
ATOM     20  C   UNL     1      -5.027   2.204   7.502  0.00  0.00    -0.010 C 
ATOM     21  C   UNL     1      -5.351   3.661   7.090  0.00  0.00    -0.001 C 
ATOM     22  C   UNL     1      -6.048   3.481   5.718  0.00  0.00    -0.001 C 
ATOM     23  C   UNL     1      -5.271   2.330   5.047  0.00  0.00    -0.010 C 
BRANCH  19  24
ATOM     24  N   UNL     1      -5.119   0.135   6.159  0.00  0.00    +0.386 N 
ATOM     25  C   UNL     1      -6.579   0.148   6.273  0.00  0.00    -0.067 C 
ATOM     26  C   UNL     1      -7.144  -1.222   5.882  0.00  0.00    +0.050 C 
ATOM     27  S   UNL     1      -6.496  -2.461   7.048  0.00  0.00    -0.164 S 
ATOM     28  C   UNL     1      -4.708  -2.117   7.040  0.00  0.00    +0.050 C 
ATOM     29  C   UNL     1      -4.507  -0.613   7.259  0.00  0.00    -0.067 C 
ATOM     30  H   UNL     1      -4.861  -0.294   5.283  0.00  0.00    -0.081 HD
ENDBRANCH  19  24
ENDBRANCH  18  19
ENDBRANCH   4  18
TORSDOF 5
