REMARK  Name = ZINC00902578
REMARK  9 active torsions:
REMARK  status: ('A' for Active; 'I' for Inactive)
REMARK    1  A    between atoms: N_9  and  C_10
REMARK    2  A    between atoms: C_10  and  C_11
REMARK    3  A    between atoms: N_13  and  C_14
REMARK    4  A    between atoms: N_13  and  C_21
REMARK    5  A    between atoms: C_21  and  C_23
REMARK    6  A    between atoms: C_21  and  C_31
REMARK    7  A    between atoms: C_26  and  O_30
REMARK    8  A    between atoms: C_27  and  O_29
REMARK    9  A    between atoms: N_33  and  C_34
REMARK                            x       y       z     vdW  Elec       q    Type
REMARK                         _______ _______ _______ _____ _____    ______ ____
ROOT
ATOM      1  C   UNL     1       5.487   0.265   1.471  0.00  0.00    +0.242 C 
ATOM      2  O   UNL     1       5.206   1.267   2.095  0.00  0.00    -0.273 OA
ATOM      3  N   UNL     1       6.502  -0.521   1.879  0.00  0.00    -0.254 N 
ENDROOT
BRANCH   3   4
ATOM      4  C   UNL     1       6.893  -1.619   1.103  0.00  0.00    +0.038 A 
ATOM      5  C   UNL     1       6.651  -2.910   1.554  0.00  0.00    +0.024 A 
ATOM      6  C   UNL     1       7.037  -3.991   0.786  0.00  0.00    +0.017 A 
ATOM      7  C   UNL     1       7.664  -3.789  -0.430  0.00  0.00    +0.018 A 
ATOM      8  C   UNL     1       7.906  -2.503  -0.882  0.00  0.00    +0.017 A 
ATOM      9  C   UNL     1       7.517  -1.419  -0.120  0.00  0.00    +0.024 A 
ATOM     10 BR   UNL     1       8.192  -5.272  -1.478  0.00  0.00    -0.050 Br
ENDBRANCH   3   4
BRANCH   1  11
ATOM     11  C   UNL     1       4.699  -0.100   0.238  0.00  0.00    +0.242 C 
BRANCH  11  20
ATOM     12  C   UNL     1       2.979   4.436  -1.813  0.00  0.00    +0.002 A 
ATOM     13  C   UNL     1       4.254   3.897  -1.935  0.00  0.00    +0.002 A 
ATOM     14  C   UNL     1       4.563   2.703  -1.346  0.00  0.00    +0.029 A 
ATOM     15  C   UNL     1       3.595   2.021  -0.617  0.00  0.00    +0.090 A 
ATOM     16  C   UNL     1       2.304   2.561  -0.489  0.00  0.00    +0.113 A 
ATOM     17  C   UNL     1       2.012   3.786  -1.103  0.00  0.00    +0.032 A 
ATOM     18  N   UNL     1       1.575   1.707   0.258  0.00  0.00    -0.129 NA
ATOM     19  N   UNL     1       2.289   0.694   0.603  0.00  0.00    -0.064 NA
ATOM     20  N   UNL     1       3.582   0.835   0.078  0.00  0.00    -0.235 N 
ENDBRANCH  11  20
ENDBRANCH   1  11
BRANCH   3  21
ATOM     21  C   UNL     1       7.197  -0.227   3.135  0.00  0.00    +0.197 C 
BRANCH  21  22
ATOM     22  C   UNL     1       8.181  -1.328   3.434  0.00  0.00    -0.014 A 
ATOM     23  C   UNL     1       9.179  -1.627   2.525  0.00  0.00    +0.010 A 
ATOM     24  C   UNL     1      10.085  -2.636   2.795  0.00  0.00    +0.049 A 
ATOM     25  C   UNL     1       9.993  -3.351   3.978  0.00  0.00    +0.158 A 
ATOM     26  C   UNL     1       8.989  -3.050   4.894  0.00  0.00    +0.159 A 
ATOM     27  C   UNL     1       8.088  -2.034   4.619  0.00  0.00    +0.055 A 
BRANCH  26  28
ATOM     28  O   UNL     1       8.896  -3.748   6.057  0.00  0.00    -0.503 OA
ATOM     29  H   UNL     1       9.402  -3.366   6.787  0.00  0.00    +0.292 HD
ENDBRANCH  26  28
BRANCH  25  30
ATOM     30  O   UNL     1      10.883  -4.344   4.245  0.00  0.00    -0.503 OA
ATOM     31  H   UNL     1      11.674  -4.048   4.715  0.00  0.00    +0.292 HD
ENDBRANCH  25  30
ENDBRANCH  21  22
BRANCH  21  32
ATOM     32  C   UNL     1       7.931   1.083   3.008  0.00  0.00    +0.239 C 
ATOM     33  O   UNL     1       7.880   1.709   1.970  0.00  0.00    -0.273 OA
ATOM     34  N   UNL     1       8.646   1.558   4.047  0.00  0.00    -0.311 N 
ATOM     35  H   UNL     1       8.688   1.057   4.877  0.00  0.00    +0.149 HD
BRANCH  34  36
ATOM     36  C   UNL     1       9.360   2.831   3.923  0.00  0.00    +0.073 C 
ATOM     37  C   UNL     1      10.770   2.592   3.344  0.00  0.00    +0.022 C 
ATOM     38  C   UNL     1      11.666   3.607   4.097  0.00  0.00    +0.002 C 
ATOM     39  C   UNL     1      11.079   3.585   5.530  0.00  0.00    +0.002 C 
ATOM     40  C   UNL     1       9.557   3.462   5.313  0.00  0.00    +0.022 C 
ENDBRANCH  34  36
ENDBRANCH  21  32
ENDBRANCH   3  21
TORSDOF 9
