REMARK  Name = ZINC53734527
REMARK  5 active torsions:
REMARK  status: ('A' for Active; 'I' for Inactive)
REMARK    1  A    between atoms: C_1  and  C_2
REMARK    2  A    between atoms: C_5  and  N_18
REMARK    3  A    between atoms: C_7  and  N_8
REMARK    4  A    between atoms: N_8  and  C_9
REMARK    5  A    between atoms: C_9  and  C_10
REMARK                            x       y       z     vdW  Elec       q    Type
REMARK                         _______ _______ _______ _____ _____    ______ ____
ROOT
ATOM      1  C   UNL     1      -0.018   1.503   0.010  0.00  0.00    +0.045 C 
ATOM      2  C   UNL     1       0.002  -0.004   0.002  0.00  0.00    -0.029 A 
ATOM      3  C   UNL     1       0.006  -0.689  -1.198  0.00  0.00    +0.007 A 
ATOM      4  C   UNL     1       0.025  -2.071  -1.206  0.00  0.00    +0.033 A 
ATOM      5  C   UNL     1       0.040  -2.773  -0.014  0.00  0.00    +0.128 A 
ATOM      6  C   UNL     1       0.036  -2.095   1.188  0.00  0.00    +0.056 A 
ATOM      7  C   UNL     1       0.023  -0.706   1.200  0.00  0.00    +0.032 A 
ENDROOT
BRANCH   5   8
ATOM      8  N   UNL     1       0.059  -4.253  -0.028  0.00  0.00    +0.056 N 
ATOM      9  O   UNL     1       0.062  -4.848  -1.081  0.00  0.00    -0.126 OA
ATOM     10  O   UNL     1       0.072  -4.867   1.013  0.00  0.00    -0.126 OA
ENDBRANCH   5   8
BRANCH   7  11
ATOM     11  N   UNL     1       0.025  -0.016   2.415  0.00  0.00    -0.343 N 
ATOM     12  H   UNL     1       0.012   0.954   2.422  0.00  0.00    +0.146 HD
BRANCH  11  13
ATOM     13  C   UNL     1       0.047  -0.758   3.678  0.00  0.00    +0.106 C 
BRANCH  13  14
ATOM     14  C   UNL     1       0.045   0.228   4.849  0.00  0.00    +0.028 C 
ATOM     15  C   UNL     1      -1.286   0.999   4.864  0.00  0.00    +0.029 C 
ATOM     16  C   UNL     1      -1.393   1.752   6.221  0.00  0.00    +0.166 C 
ATOM     17  S   UNL     1      -0.736   0.471   7.370  0.00  0.00    -0.031 S 
ATOM     18  O   UNL     1      -1.819  -0.299   7.873  0.00  0.00    -0.174 OA
ATOM     19  O   UNL     1       0.167   1.085   8.280  0.00  0.00    -0.174 OA
ATOM     20  C   UNL     1       0.218  -0.550   6.176  0.00  0.00    +0.171 C 
ENDBRANCH  13  14
ENDBRANCH  11  13
ENDBRANCH   7  11
TORSDOF 4
