REMARK  Name = ZINC13512855
REMARK  10 active torsions:
REMARK  status: ('A' for Active; 'I' for Inactive)
REMARK    1  A    between atoms: C_1  and  C_2
REMARK    2  A    between atoms: C_5  and  C_8
REMARK    3  A    between atoms: C_8  and  C_10
REMARK    4  A    between atoms: C_8  and  N_18
REMARK    5  A    between atoms: N_12  and  C_13
REMARK    6  A    between atoms: N_18  and  C_19
REMARK    7  A    between atoms: C_26  and  C_28
REMARK    8  A    between atoms: C_28  and  N_29
REMARK    9  A    between atoms: N_29  and  S_30
REMARK   10  A    between atoms: S_30  and  C_33
REMARK                            x       y       z     vdW  Elec       q    Type
REMARK                         _______ _______ _______ _____ _____    ______ ____
ROOT
ATOM      1  N   UNL     1      -1.208  -1.230   4.423  0.00  0.00    -0.252 N 
ATOM      2  C   UNL     1      -1.485  -1.904   3.289  0.00  0.00    +0.236 C 
ATOM      3  O   UNL     1      -1.946  -3.024   3.346  0.00  0.00    -0.274 OA
ENDROOT
BRANCH   1   4
ATOM      4  C   UNL     1      -0.676   0.064   4.358  0.00  0.00    +0.073 A 
ATOM      5  C   UNL     1      -1.493   1.135   4.022  0.00  0.00    +0.026 A 
ATOM      6  C   UNL     1      -0.966   2.410   3.959  0.00  0.00    +0.002 A 
ATOM      7  C   UNL     1       0.374   2.622   4.228  0.00  0.00    +0.003 A 
ATOM      8  C   UNL     1       1.192   1.558   4.563  0.00  0.00    +0.040 A 
ATOM      9  C   UNL     1       0.669   0.279   4.633  0.00  0.00    +0.145 A 
ATOM     10  F   UNL     1       1.467  -0.760   4.965  0.00  0.00    -0.204 F 
ENDBRANCH   1   4
BRANCH   1  11
ATOM     11  C   UNL     1      -1.463  -1.852   5.725  0.00  0.00    +0.197 C 
BRANCH  11  16
ATOM     12  C   UNL     1      -7.156  -2.505   6.469  0.00  0.00    +0.044 C 
ATOM     13  C   UNL     1      -5.671  -2.335   6.274  0.00  0.00    -0.050 A 
ATOM     14  C   UNL     1      -4.814  -3.384   6.549  0.00  0.00    +0.004 A 
ATOM     15  C   UNL     1      -3.452  -3.227   6.372  0.00  0.00    +0.006 A 
ATOM     16  C   UNL     1      -2.947  -2.022   5.919  0.00  0.00    -0.018 A 
ATOM     17  C   UNL     1      -3.805  -0.972   5.649  0.00  0.00    +0.006 A 
ATOM     18  C   UNL     1      -5.167  -1.130   5.822  0.00  0.00    +0.004 A 
ENDBRANCH  11  16
BRANCH  11  19
ATOM     19  C   UNL     1      -0.911  -0.973   6.818  0.00  0.00    +0.239 C 
ATOM     20  O   UNL     1      -0.990   0.233   6.724  0.00  0.00    -0.273 OA
ATOM     21  N   UNL     1      -0.331  -1.528   7.901  0.00  0.00    -0.311 N 
ATOM     22  H   UNL     1      -0.268  -2.493   7.977  0.00  0.00    +0.149 HD
BRANCH  21  23
ATOM     23  C   UNL     1       0.205  -0.674   8.963  0.00  0.00    +0.073 C 
ATOM     24  C   UNL     1       1.665  -0.290   8.647  0.00  0.00    +0.022 C 
ATOM     25  C   UNL     1       2.367  -0.295  10.028  0.00  0.00    +0.002 C 
ATOM     26  C   UNL     1       1.707  -1.500  10.742  0.00  0.00    +0.002 C 
ATOM     27  C   UNL     1       0.231  -1.443  10.296  0.00  0.00    +0.022 C 
ENDBRANCH  21  23
ENDBRANCH  11  19
ENDBRANCH   1  11
BRANCH   2  28
ATOM     28  C   UNL     1      -1.223  -1.264   1.950  0.00  0.00    +0.202 C 
BRANCH  28  29
ATOM     29  N   UNL     1      -1.605  -2.192   0.883  0.00  0.00    -0.181 NA
ATOM     30  H   UNL     1      -1.755  -3.129   1.085  0.00  0.00    +0.149 HD
BRANCH  29  31
ATOM     31  S   UNL     1      -1.781  -1.641  -0.669  0.00  0.00    +0.059 S 
ATOM     32  O   UNL     1      -2.599  -0.482  -0.598  0.00  0.00    -0.153 OA
ATOM     33  O   UNL     1      -2.125  -2.768  -1.463  0.00  0.00    -0.153 OA
BRANCH  31  34
ATOM     34  C   UNL     1      -0.194  -1.105  -1.215  0.00  0.00    +0.105 A 
ATOM     35  C   UNL     1       0.198   0.205  -1.018  0.00  0.00    +0.028 A 
ATOM     36  C   UNL     1       1.445   0.625  -1.442  0.00  0.00    +0.002 A 
ATOM     37  C   UNL     1       2.296  -0.264  -2.072  0.00  0.00    +0.000 A 
ATOM     38  C   UNL     1       1.902  -1.574  -2.273  0.00  0.00    +0.002 A 
ATOM     39  C   UNL     1       0.657  -1.994  -1.845  0.00  0.00    +0.028 A 
ENDBRANCH  31  34
ENDBRANCH  29  31
ENDBRANCH  28  29
ENDBRANCH   2  28
TORSDOF 9
