REMARK  Name = ZINC10460987
REMARK  10 active torsions:
REMARK  status: ('A' for Active; 'I' for Inactive)
REMARK    1  A    between atoms: C_1  and  C_2
REMARK    2  A    between atoms: N_11  and  C_12
REMARK    3  A    between atoms: C_12  and  C_13
REMARK    4  A    between atoms: C_13  and  N_66
REMARK    5  A    between atoms: C_14  and  N_66
REMARK    6  A    between atoms: C_15  and  N_66
REMARK    7  A    between atoms: C_16  and  C_18
REMARK    8  A    between atoms: C_21  and  S_24
REMARK    9  A    between atoms: S_24  and  N_27
REMARK   10  A    between atoms: C_32  and  C_34
REMARK                            x       y       z     vdW  Elec       q    Type
REMARK                         _______ _______ _______ _____ _____    ______ ____
ROOT
ATOM      1  C   UNL     1     -14.203  -8.791   1.264  0.00  0.00    +0.044 C 
ATOM      2  C   UNL     1     -13.257  -7.771   0.684  0.00  0.00    -0.049 A 
ATOM      3  C   UNL     1     -12.865  -7.854  -0.644  0.00  0.00    +0.005 A 
ATOM      4  C   UNL     1     -12.006  -6.939  -1.195  0.00  0.00    +0.029 A 
ATOM      5  C   UNL     1     -11.489  -5.875  -0.421  0.00  0.00    +0.080 A 
ATOM      6  C   UNL     1     -11.911  -5.822   0.928  0.00  0.00    +0.041 A 
ATOM      7  C   UNL     1     -12.771  -6.743   1.471  0.00  0.00    +0.020 A 
ATOM      8  S   UNL     1     -11.062  -4.384   1.534  0.00  0.00    -0.052 S 
ATOM      9  C   UNL     1     -10.229  -3.957   0.011  0.00  0.00    +0.168 A 
ATOM     10  N   UNL     1     -10.645  -4.894  -0.808  0.00  0.00    -0.224 NA
ATOM     11  N   UNL     1      -9.369  -2.902  -0.242  0.00  0.00    -0.248 N 
ATOM     12  C   UNL     1      -9.064  -2.030   0.740  0.00  0.00    +0.252 C 
ATOM     13  O   UNL     1      -9.449  -2.235   1.875  0.00  0.00    -0.270 OA
ENDROOT
BRANCH  12  14
ATOM     14  C   UNL     1      -8.262  -0.827   0.437  0.00  0.00    +0.037 A 
ATOM     15  C   UNL     1      -8.615   0.407   0.986  0.00  0.00    +0.015 A 
ATOM     16  C   UNL     1      -7.862   1.527   0.699  0.00  0.00    +0.029 A 
ATOM     17  C   UNL     1      -6.760   1.429  -0.132  0.00  0.00    +0.106 A 
ATOM     18  C   UNL     1      -6.408   0.210  -0.683  0.00  0.00    +0.029 A 
ATOM     19  C   UNL     1      -7.149  -0.918  -0.400  0.00  0.00    +0.015 A 
BRANCH  17  20
ATOM     20  S   UNL     1      -5.805   2.865  -0.494  0.00  0.00    +0.061 S 
ATOM     21  O   UNL     1      -6.661   3.982  -0.300  0.00  0.00    -0.153 OA
ATOM     22  O   UNL     1      -5.148   2.614  -1.729  0.00  0.00    -0.153 OA
BRANCH  20  23
ATOM     23  N   UNL     1      -4.621   2.969   0.659  0.00  0.00    -0.174 NA
ATOM     24  C   UNL     1      -3.271   2.454   0.394  0.00  0.00    +0.110 C 
ATOM     25  C   UNL     1      -2.255   3.566   0.675  0.00  0.00    +0.017 C 
ATOM     26  C   UNL     1      -2.459   4.090   2.098  0.00  0.00    +0.003 C 
ATOM     27  C   UNL     1      -3.867   4.677   2.230  0.00  0.00    +0.020 C 
ATOM     28  C   UNL     1      -4.901   3.578   1.966  0.00  0.00    +0.077 C 
ATOM     29  C   UNL     1      -6.305   4.186   1.959  0.00  0.00    +0.026 C 
ENDBRANCH  20  23
ENDBRANCH  17  20
ENDBRANCH  12  14
BRANCH  11  30
ATOM     30  C   UNL     1      -8.790  -2.733  -1.577  0.00  0.00    +0.097 C 
BRANCH  30  31
ATOM     31  C   UNL     1      -7.571  -3.646  -1.723  0.00  0.00    -0.060 C 
BRANCH  31  34
ATOM     32  C   UNL     1      -6.175  -2.066  -2.914  0.00  0.00    -0.097 C 
ATOM     33  C   UNL     1      -5.971  -4.437  -3.359  0.00  0.00    -0.097 C 
ATOM     34  N   UNL     1      -6.906  -3.348  -3.009  0.00  0.00    +0.377 N 
ATOM     35  H   UNL     1      -7.619  -3.271  -3.744  0.00  0.00    -0.083 HD
ENDBRANCH  31  34
ENDBRANCH  30  31
ENDBRANCH  11  30
TORSDOF 6
