REMARK  Name = ZINC21659124
REMARK  6 active torsions:
REMARK  status: ('A' for Active; 'I' for Inactive)
REMARK    1  A    between atoms: C_1  and  N_2
REMARK    2  A    between atoms: C_5  and  C_25
REMARK    3  A    between atoms: C_8  and  C_17
REMARK    4  A    between atoms: C_19  and  O_24
REMARK    5  A    between atoms: C_22  and  O_23
REMARK    6  A    between atoms: N_34  and  C_37
REMARK                            x       y       z     vdW  Elec       q    Type
REMARK                         _______ _______ _______ _____ _____    ______ ____
ROOT
ATOM      1  C   UNL     1       1.552  -0.881   0.818  0.00  0.00    +0.154 C 
ATOM      2  N   UNL     1       2.582   0.067   0.389  0.00  0.00    -0.294 N 
ATOM      3  C   UNL     1       2.263   1.392   0.055  0.00  0.00    +0.082 A 
ATOM      4  C   UNL     1       3.352   2.304  -0.375  0.00  0.00    +0.089 A 
ATOM      5  C   UNL     1       2.766   3.518  -0.637  0.00  0.00    +0.069 A 
ATOM      6  N   UNL     1       1.431   3.385  -0.411  0.00  0.00    -0.306 N 
ATOM      7  C   UNL     1       1.143   2.098   0.023  0.00  0.00    +0.073 A 
ATOM      8  C   UNL     1      -0.268   1.679   0.378  0.00  0.00    +0.154 C 
ATOM      9  N   UNL     1      -1.196   2.546  -0.363  0.00  0.00    -0.330 N 
ATOM     10  C   UNL     1      -0.911   3.906  -0.524  0.00  0.00    +0.052 A 
ATOM     11  C   UNL     1       0.418   4.341  -0.579  0.00  0.00    +0.068 A 
ATOM     12  C   UNL     1       0.707   5.671  -0.809  0.00  0.00    +0.028 A 
ATOM     13  C   UNL     1      -0.324   6.583  -0.954  0.00  0.00    +0.002 A 
ATOM     14  C   UNL     1      -1.639   6.163  -0.874  0.00  0.00    +0.002 A 
ATOM     15  C   UNL     1      -1.935   4.829  -0.661  0.00  0.00    +0.025 A 
ATOM     16  C   UNL     1       4.727   1.799  -0.436  0.00  0.00    +0.266 A 
ATOM     17  O   UNL     1       5.663   2.498  -0.777  0.00  0.00    -0.267 OA
ATOM     18  N   UNL     1       4.885   0.496  -0.084  0.00  0.00    -0.263 N 
ATOM     19  C   UNL     1       3.880  -0.298   0.296  0.00  0.00    +0.332 A 
ATOM     20  O   UNL     1       4.157  -1.446   0.585  0.00  0.00    -0.246 OA
ATOM     21  C   UNL     1       6.236  -0.070  -0.124  0.00  0.00    +0.157 C 
ATOM     22  H   UNL     1      -2.118   2.125  -0.792  0.00  0.00    +0.147 HD
ENDROOT
BRANCH   5  23
ATOM     23  C   UNL     1       3.458   4.743  -1.081  0.00  0.00    -0.000 A 
ATOM     24  C   UNL     1       3.098   5.355  -2.284  0.00  0.00    +0.011 A 
ATOM     25  C   UNL     1       3.744   6.503  -2.690  0.00  0.00    +0.020 A 
ATOM     26  C   UNL     1       4.756   7.044  -1.914  0.00  0.00    +0.041 A 
ATOM     27  C   UNL     1       5.122   6.438  -0.723  0.00  0.00    +0.020 A 
ATOM     28  C   UNL     1       4.479   5.293  -0.303  0.00  0.00    +0.011 A 
ATOM     29 CL   UNL     1       5.570   8.486  -2.436  0.00  0.00    -0.084 Cl
ENDBRANCH   5  23
BRANCH   8  30
ATOM     30  C   UNL     1      -0.490   1.840   1.859  0.00  0.00    +0.023 A 
ATOM     31  C   UNL     1       0.378   2.610   2.609  0.00  0.00    +0.054 A 
ATOM     32  C   UNL     1       0.170   2.763   3.971  0.00  0.00    +0.117 A 
ATOM     33  C   UNL     1      -0.904   2.133   4.584  0.00  0.00    +0.049 A 
ATOM     34  C   UNL     1      -1.768   1.358   3.836  0.00  0.00    +0.049 A 
ATOM     35  C   UNL     1      -1.563   1.210   2.472  0.00  0.00    +0.122 A 
BRANCH  35  36
ATOM     36  O   UNL     1      -2.415   0.448   1.735  0.00  0.00    -0.506 OA
ATOM     37  H   UNL     1      -3.267  -0.051   2.221  0.00  0.00    +0.292 HD
ENDBRANCH  35  36
BRANCH  32  38
ATOM     38  O   UNL     1       1.021   3.525   4.708  0.00  0.00    -0.507 OA
ATOM     39  H   UNL     1       0.856   3.646   5.789  0.00  0.00    +0.292 HD
ENDBRANCH  32  38
ENDBRANCH   8  30
TORSDOF 4
