REMARK  Name = ZINC12279158
REMARK  9 active torsions:
REMARK  status: ('A' for Active; 'I' for Inactive)
REMARK    1  A    between atoms: C_1  and  C_2
REMARK    2  A    between atoms: C_2  and  C_3
REMARK    3  A    between atoms: N_5  and  C_6
REMARK    4  A    between atoms: C_15  and  O_17
REMARK    5  A    between atoms: O_17  and  C_18
REMARK    6  A    between atoms: C_18  and  C_19
REMARK    7  A    between atoms: C_24  and  C_25
REMARK    8  A    between atoms: C_24  and  N_68
REMARK    9  A    between atoms: C_30  and  N_31
REMARK                            x       y       z     vdW  Elec       q    Type
REMARK                         _______ _______ _______ _____ _____    ______ ____
ROOT
ATOM      1  C   UNL     1      -0.342   5.180   0.070  0.00  0.00    +0.133 C 
ATOM      2  C   UNL     1      -0.087   3.687   0.068  0.00  0.00    -0.021 A 
ATOM      3  C   UNL     1       1.104   2.980   0.063  0.00  0.00    +0.006 A 
ATOM      4  C   UNL     1       1.093   1.599   0.061  0.00  0.00    +0.000 A 
ATOM      5  C   UNL     1      -0.111   0.919   0.063  0.00  0.00    +0.000 A 
ATOM      6  C   UNL     1      -1.299   1.622   0.063  0.00  0.00    +0.004 A 
ATOM      7  C   UNL     1      -1.292   3.007   0.071  0.00  0.00    -0.034 A 
ATOM      8  C   UNL     1      -2.432   3.997   0.080  0.00  0.00    +0.021 C 
ATOM      9  C   UNL     1      -1.813   5.338   0.514  0.00  0.00    +0.153 C 
ATOM     10  C   UNL     1      -3.502   3.566   1.080  0.00  0.00    -0.005 C 
ATOM     11  C   UNL     1      -4.660   4.566   1.045  0.00  0.00    -0.077 C 
ATOM     12  C   UNL     1      -4.206   5.112  -1.273  0.00  0.00    -0.077 C 
ATOM     13  C   UNL     1      -3.033   4.128  -1.317  0.00  0.00    -0.005 C 
ATOM     14  N   UNL     1      -5.220   4.604  -0.323  0.00  0.00    +0.382 N 
ATOM     15  H   UNL     1      -5.488   3.653  -0.600  0.00  0.00    -0.081 HD
ENDROOT
BRANCH   1  18
ATOM     16  C   UNL     1       1.073   6.109  -1.683  0.00  0.00    +0.213 C 
ATOM     17  O   UNL     1       2.022   5.994  -0.937  0.00  0.00    -0.276 OA
ATOM     18  N   UNL     1      -0.155   5.730  -1.274  0.00  0.00    -0.306 N 
ATOM     19  H   UNL     1      -0.914   5.821  -1.871  0.00  0.00    +0.149 HD
BRANCH  16  21
ATOM     20  C   UNL     1       2.741   7.021  -3.274  0.00  0.00    +0.013 C 
ATOM     21  C   UNL     1       1.265   6.675  -3.066  0.00  0.00    +0.092 C 
ENDBRANCH  16  21
ENDBRANCH   1  18
BRANCH   9  22
ATOM     22  O   UNL     1      -1.901   5.503   1.931  0.00  0.00    -0.374 OA
BRANCH  22  23
ATOM     23  C   UNL     1      -1.891   6.867   2.358  0.00  0.00    +0.157 C 
ATOM     24  C   UNL     1      -1.865   6.922   3.887  0.00  0.00    +0.034 C 
ENDBRANCH  22  23
ENDBRANCH   9  22
BRANCH  14  25
ATOM     25  C   UNL     1      -6.417   5.469  -0.355  0.00  0.00    -0.041 C 
BRANCH  25  26
ATOM     26  C   UNL     1      -7.089   5.318  -1.696  0.00  0.00    -0.036 A 
ATOM     27  C   UNL     1      -7.018   6.340  -2.623  0.00  0.00    +0.042 A 
ATOM     28  C   UNL     1      -7.634   6.202  -3.855  0.00  0.00    +0.124 A 
ATOM     29  C   UNL     1      -8.323   5.040  -4.160  0.00  0.00    +0.040 A 
ATOM     30  C   UNL     1      -8.397   4.017  -3.236  0.00  0.00    +0.031 A 
ATOM     31  C   UNL     1      -7.774   4.151  -2.002  0.00  0.00    +0.067 A 
ATOM     32  F   UNL     1      -7.562   7.202  -4.761  0.00  0.00    -0.205 F 
BRANCH  31  33
ATOM     33  N   UNL     1      -7.842   3.110  -1.065  0.00  0.00    -0.240 N 
ATOM     34  C   UNL     1      -8.393   1.892  -1.267  0.00  0.00    +0.114 A 
ATOM     35  C   UNL     1      -8.253   1.182  -0.123  0.00  0.00    +0.041 A 
ATOM     36  C   UNL     1      -7.604   1.995   0.812  0.00  0.00    +0.135 A 
ATOM     37  N   UNL     1      -7.357   3.151   0.249  0.00  0.00    -0.175 NA
ENDBRANCH  31  33
ENDBRANCH  25  26
ENDBRANCH  14  25
TORSDOF 7
