REMARK  Name = ZINC53400539
REMARK  7 active torsions:
REMARK  status: ('A' for Active; 'I' for Inactive)
REMARK    1  A    between atoms: C_1  and  C_2
REMARK    2  A    between atoms: C_2  and  C_3
REMARK    3  A    between atoms: C_3  and  C_4
REMARK    4  A    between atoms: C_4  and  N_5
REMARK    5  A    between atoms: N_14  and  C_30
REMARK    6  A    between atoms: C_15  and  C_17
REMARK    7  A    between atoms: C_17  and  N_18
REMARK                            x       y       z     vdW  Elec       q    Type
REMARK                         _______ _______ _______ _____ _____    ______ ____
ROOT
ATOM      1  N   UNL     1      -2.787  -2.571   0.015  0.00  0.00    -0.277 N 
ATOM      2  C   UNL     1      -3.426  -2.811   1.220  0.00  0.00    +0.168 A 
ATOM      3  C   UNL     1      -4.730  -3.292   1.204  0.00  0.00    +0.151 A 
ATOM      4  C   UNL     1      -5.363  -3.521  -0.037  0.00  0.00    +0.280 A 
ATOM      5  O   UNL     1      -6.505  -3.941  -0.078  0.00  0.00    -0.265 OA
ATOM      6  N   UNL     1      -4.688  -3.267  -1.178  0.00  0.00    -0.273 N 
ATOM      7  H   UNL     1      -5.119  -3.423  -2.033  0.00  0.00    +0.173 HD
ATOM      8  C   UNL     1      -3.429  -2.797  -1.147  0.00  0.00    +0.331 A 
ATOM      9  O   UNL     1      -2.853  -2.575  -2.195  0.00  0.00    -0.246 OA
ATOM     10  N   UNL     1      -5.105  -3.435   2.524  0.00  0.00    -0.324 N 
ATOM     11  C   UNL     1      -4.055  -3.051   3.276  0.00  0.00    +0.132 A 
ATOM     12  N   UNL     1      -3.068  -2.684   2.500  0.00  0.00    -0.212 NA
ATOM     13  C   UNL     1      -6.400  -3.914   3.015  0.00  0.00    +0.151 C 
ENDROOT
BRANCH   1  14
ATOM     14  C   UNL     1      -1.413  -2.063   0.004  0.00  0.00    +0.128 C 
BRANCH  14  15
ATOM     15  C   UNL     1      -1.433  -0.534   0.013  0.00  0.00    +0.021 C 
BRANCH  15  17
ATOM     16  C   UNL     1      -0.019   1.526   0.010  0.00  0.00    +0.004 C 
ATOM     17  C   UNL     1       0.002  -0.004   0.002  0.00  0.00    -0.002 C 
ENDBRANCH  15  17
ENDBRANCH  14  15
ENDBRANCH   1  14
BRANCH  11  18
ATOM     18  C   UNL     1      -4.024  -3.044   4.783  0.00  0.00    +0.200 C 
BRANCH  18  19
ATOM     19  N   UNL     1      -3.536  -4.338   5.267  0.00  0.00    -0.291 N 
ATOM     20  C   UNL     1      -4.418  -5.342   5.509  0.00  0.00    +0.203 A 
ATOM     21  N   UNL     1      -4.065  -6.515   5.939  0.00  0.00    -0.237 NA
ATOM     22  C   UNL     1      -2.765  -6.822   6.179  0.00  0.00    +0.081 A 
ATOM     23  C   UNL     1      -2.383  -8.082   6.640  0.00  0.00    +0.067 A 
ATOM     24  C   UNL     1      -1.048  -8.346   6.869  0.00  0.00    +0.125 A 
ATOM     25  C   UNL     1      -0.081  -7.371   6.646  0.00  0.00    +0.039 A 
ATOM     26  C   UNL     1      -0.434  -6.130   6.194  0.00  0.00    +0.018 A 
ATOM     27  C   UNL     1      -1.776  -5.839   5.955  0.00  0.00    +0.065 A 
ATOM     28  C   UNL     1      -2.210  -4.523   5.463  0.00  0.00    +0.262 A 
ATOM     29  O   UNL     1      -1.408  -3.634   5.245  0.00  0.00    -0.267 OA
ATOM     30  F   UNL     1      -0.676  -9.566   7.316  0.00  0.00    -0.205 F 
ENDBRANCH  18  19
ENDBRANCH  11  18
TORSDOF 5
