REMARK  Name = ZINC40154253
REMARK  7 active torsions:
REMARK  status: ('A' for Active; 'I' for Inactive)
REMARK    1  A    between atoms: C_1  and  C_2
REMARK    2  A    between atoms: C_5  and  S_8
REMARK    3  A    between atoms: S_8  and  N_11
REMARK    4  A    between atoms: C_17  and  C_19
REMARK    5  A    between atoms: C_19  and  C_21
REMARK    6  A    between atoms: C_19  and  N_22
REMARK    7  A    between atoms: C_26  and  C_28
REMARK                            x       y       z     vdW  Elec       q    Type
REMARK                         _______ _______ _______ _____ _____    ______ ____
ROOT
ATOM      1  N   UNL     1       1.876  -5.976   0.467  0.00  0.00    -0.174 NA
ATOM      2  C   UNL     1       2.509  -6.179  -0.844  0.00  0.00    +0.128 C 
ATOM      3  C   UNL     1       3.493  -5.029  -1.097  0.00  0.00    +0.125 C 
ATOM      4  N   UNL     1       4.349  -4.875   0.087  0.00  0.00    -0.300 N 
ATOM      5  C   UNL     1       3.717  -4.672   1.398  0.00  0.00    +0.125 C 
ATOM      6  C   UNL     1       2.733  -5.816   1.650  0.00  0.00    +0.128 C 
ATOM      7  C   UNL     1       5.692  -4.920  -0.027  0.00  0.00    +0.202 C 
ATOM      8  O   UNL     1       6.390  -4.702   0.940  0.00  0.00    -0.277 OA
ENDROOT
BRANCH   1   9
ATOM      9  S   UNL     1       0.227  -5.920   0.608  0.00  0.00    +0.061 S 
ATOM     10  O   UNL     1      -0.078  -6.270   1.951  0.00  0.00    -0.153 OA
ATOM     11  O   UNL     1      -0.299  -6.633  -0.503  0.00  0.00    -0.153 OA
BRANCH   9  16
ATOM     12  C   UNL     1      -1.435  -0.163  -0.096  0.00  0.00    +0.044 C 
ATOM     13  C   UNL     1      -1.020  -1.601   0.080  0.00  0.00    -0.050 A 
ATOM     14  C   UNL     1      -0.934  -2.435  -1.019  0.00  0.00    +0.005 A 
ATOM     15  C   UNL     1      -0.553  -3.754  -0.858  0.00  0.00    +0.029 A 
ATOM     16  C   UNL     1      -0.257  -4.239   0.402  0.00  0.00    +0.105 A 
ATOM     17  C   UNL     1      -0.341  -3.405   1.501  0.00  0.00    +0.029 A 
ATOM     18  C   UNL     1      -0.718  -2.084   1.339  0.00  0.00    +0.005 A 
ENDBRANCH   9  16
ENDBRANCH   1   9
BRANCH   7  19
ATOM     19  C   UNL     1       6.324  -5.242  -1.357  0.00  0.00    +0.017 C 
ATOM     20  C   UNL     1       6.410  -3.970  -2.202  0.00  0.00    -0.004 C 
BRANCH  19  21
ATOM     21  N   UNL     1       7.675  -5.777  -1.139  0.00  0.00    +0.392 N 
ATOM     22  C   UNL     1       7.596  -7.018  -0.340  0.00  0.00    -0.077 C 
ATOM     23  C   UNL     1       7.609  -8.162  -1.384  0.00  0.00    -0.020 C 
ATOM     24  C   UNL     1       8.595  -7.608  -2.445  0.00  0.00    -0.013 C 
ATOM     25  C   UNL     1       8.298  -6.093  -2.438  0.00  0.00    -0.036 C 
ATOM     26  H   UNL     1       8.236  -5.096  -0.650  0.00  0.00    -0.080 HD
BRANCH  25  27
ATOM     27  C   UNL     1       9.582  -5.319  -2.592  0.00  0.00    -0.054 A 
ATOM     28  C   UNL     1       9.919  -4.756  -3.809  0.00  0.00    +0.009 A 
ATOM     29  C   UNL     1      11.081  -4.066  -3.915  0.00  0.00    +0.045 A 
ATOM     30  S   UNL     1      11.740  -4.197  -2.261  0.00  0.00    -0.105 S 
ATOM     31  C   UNL     1      10.420  -5.158  -1.539  0.00  0.00    +0.047 A 
ENDBRANCH  25  27
ENDBRANCH  19  21
ENDBRANCH   7  19
TORSDOF 5
