REMARK  Name = ZINC17836303
REMARK  1 active torsions:
REMARK  status: ('A' for Active; 'I' for Inactive)
REMARK    1  A    between atoms: C_6  and  N_7
REMARK                            x       y       z     vdW  Elec       q    Type
REMARK                         _______ _______ _______ _____ _____    ______ ____
ROOT
ATOM      1  N   UNL     1      -1.202  -0.723   0.010  0.00  0.00    -0.210 N 
ATOM      2  C   UNL     1      -2.397  -0.131   0.117  0.00  0.00    +0.233 C 
ATOM      3  O   UNL     1      -2.579   1.063   0.218  0.00  0.00    -0.274 OA
ATOM      4  C   UNL     1      -3.484  -1.180   0.094  0.00  0.00    +0.123 C 
ATOM      5  C   UNL     1      -4.086  -1.296   1.528  0.00  0.00    +0.154 C 
ATOM      6  C   UNL     1      -5.140  -2.402   1.432  0.00  0.00    +0.003 C 
ATOM      7  C   UNL     1      -4.479  -3.542   1.326  0.00  0.00    +0.003 C 
ATOM      8  C   UNL     1      -2.991  -3.186   1.354  0.00  0.00    +0.154 C 
ATOM      9  C   UNL     1      -2.688  -2.515  -0.050  0.00  0.00    +0.123 C 
ATOM     10  C   UNL     1      -1.249  -2.055  -0.095  0.00  0.00    +0.233 C 
ATOM     11  O   UNL     1      -0.286  -2.783  -0.206  0.00  0.00    -0.274 OA
ATOM     12  O   UNL     1      -3.003  -1.991   2.234  0.00  0.00    -0.364 OA
ENDROOT
BRANCH   1  18
ATOM     13  C   UNL     1       0.775   0.044  -1.150  0.00  0.00    +0.025 A 
ATOM     14  C   UNL     1       1.960   0.753  -1.156  0.00  0.00    +0.022 A 
ATOM     15  C   UNL     1       2.378   1.415  -0.014  0.00  0.00    +0.041 A 
ATOM     16  C   UNL     1       1.609   1.367   1.136  0.00  0.00    +0.022 A 
ATOM     17  C   UNL     1       0.423   0.660   1.146  0.00  0.00    +0.025 A 
ATOM     18  C   UNL     1       0.002  -0.004   0.002  0.00  0.00    +0.044 A 
ATOM     19 CL   UNL     1       3.869   2.304  -0.024  0.00  0.00    -0.084 Cl
ENDBRANCH   1  18
TORSDOF 1
