REMARK  Name = ZINC36207393
REMARK  17 active torsions:
REMARK  status: ('A' for Active; 'I' for Inactive)
REMARK    1  A    between atoms: C_1  and  C_2
REMARK    2  A    between atoms: C_8  and  C_19
REMARK    3  A    between atoms: C_12  and  C_13
REMARK    4  A    between atoms: C_13  and  O_15
REMARK    5  A    between atoms: O_15  and  C_16
REMARK    6  A    between atoms: C_16  and  C_17
REMARK    7  A    between atoms: C_16  and  C_18
REMARK    8  A    between atoms: C_19  and  N_20
REMARK    9  A    between atoms: N_20  and  C_21
REMARK   10  A    between atoms: N_20  and  C_27
REMARK   11  A    between atoms: C_21  and  C_22
REMARK   12  A    between atoms: C_27  and  C_28
REMARK   13  A    between atoms: C_28  and  C_30
REMARK   14  A    between atoms: C_28  and  O_35
REMARK   15  A    between atoms: C_30  and  O_31
REMARK   16  A    between atoms: O_31  and  C_32
REMARK   17  A    between atoms: C_32  and  C_33
REMARK                            x       y       z     vdW  Elec       q    Type
REMARK                         _______ _______ _______ _____ _____    ______ ____
ROOT
ATOM      1  C   UNL     1      -0.811   1.174   0.727  0.00  0.00    +0.046 C 
ATOM      2  C   UNL     1      -0.768  -0.324   0.572  0.00  0.00    -0.015 A 
ATOM      3  C   UNL     1      -0.525  -0.891  -0.680  0.00  0.00    +0.076 A 
ATOM      4  C   UNL     1      -0.284  -0.223  -1.980  0.00  0.00    +0.260 A 
ATOM      5  O   UNL     1      -0.279   0.992  -2.066  0.00  0.00    -0.267 OA
ATOM      6  N   UNL     1      -0.071  -0.994  -3.064  0.00  0.00    -0.312 N 
ATOM      7  H   UNL     1       0.088  -0.572  -3.923  0.00  0.00    +0.170 HD
ATOM      8  C   UNL     1      -0.075  -2.347  -2.980  0.00  0.00    +0.094 A 
ATOM      9  N   UNL     1      -0.283  -2.968  -1.850  0.00  0.00    -0.229 NA
ATOM     10  C   UNL     1      -0.504  -2.305  -0.723  0.00  0.00    +0.116 A 
ATOM     11  S   UNL     1      -0.820  -2.768   0.962  0.00  0.00    -0.062 S 
ATOM     12  C   UNL     1      -0.961  -1.130   1.657  0.00  0.00    +0.102 A 
ENDROOT
BRANCH  12  13
ATOM     13  C   UNL     1      -1.221  -0.746   3.046  0.00  0.00    +0.346 C 
ATOM     14  O   UNL     1      -1.288   0.430   3.349  0.00  0.00    -0.244 OA
BRANCH  13  15
ATOM     15  O   UNL     1      -1.386  -1.696   3.989  0.00  0.00    -0.458 OA
BRANCH  15  16
ATOM     16  C   UNL     1      -1.637  -1.250   5.323  0.00  0.00    +0.171 C 
ATOM     17  C   UNL     1      -2.495  -2.284   6.054  0.00  0.00    +0.052 C 
ATOM     18  C   UNL     1      -0.308  -1.077   6.061  0.00  0.00    +0.052 C 
ENDBRANCH  15  16
ENDBRANCH  13  15
ENDBRANCH  12  13
BRANCH   8  19
ATOM     19  C   UNL     1       0.169  -3.158  -4.226  0.00  0.00    -0.003 C 
BRANCH  19  20
ATOM     20  N   UNL     1       0.120  -4.589  -3.897  0.00  0.00    +0.391 N 
ATOM     21  H   UNL     1       0.774  -4.786  -3.154  0.00  0.00    -0.080 HD
BRANCH  20  22
ATOM     22  C   UNL     1      -1.237  -4.945  -3.461  0.00  0.00    -0.002 C 
BRANCH  22  23
ATOM     23  C   UNL     1      -1.254  -6.375  -2.986  0.00  0.00    +0.089 A 
ATOM     24  C   UNL     1      -0.922  -6.799  -1.754  0.00  0.00    +0.042 A 
ATOM     25  C   UNL     1      -1.080  -8.204  -1.747  0.00  0.00    +0.041 A 
ATOM     26  C   UNL     1      -1.498  -8.555  -2.977  0.00  0.00    +0.195 A 
ATOM     27  O   UNL     1      -1.607  -7.442  -3.721  0.00  0.00    -0.470 OA
ENDBRANCH  22  23
ENDBRANCH  20  22
BRANCH  20  28
ATOM     28  C   UNL     1       0.475  -5.378  -5.084  0.00  0.00    -0.044 C 
BRANCH  28  29
ATOM     29  C   UNL     1       1.937  -5.114  -5.453  0.00  0.00    +0.124 C 
BRANCH  29  30
ATOM     30  O   UNL     1       2.781  -5.525  -4.376  0.00  0.00    -0.391 OA
ATOM     31  H   UNL     1       2.759  -6.475  -4.199  0.00  0.00    +0.210 HD
ENDBRANCH  29  30
BRANCH  29  32
ATOM     32  C   UNL     1       2.295  -5.905  -6.712  0.00  0.00    +0.189 C 
BRANCH  32  33
ATOM     33  O   UNL     1       3.622  -5.569  -7.123  0.00  0.00    -0.373 OA
BRANCH  33  34
ATOM     34  C   UNL     1       4.058  -6.257  -8.298  0.00  0.00    +0.186 C 
BRANCH  34  35
ATOM     35  C   UNL     1       5.463  -5.829  -8.638  0.00  0.00    -0.007 C 
ATOM     36  C   UNL     1       6.359  -6.727  -8.966  0.00  0.00    +0.006 C 
ENDBRANCH  34  35
ENDBRANCH  33  34
ENDBRANCH  32  33
ENDBRANCH  29  32
ENDBRANCH  28  29
ENDBRANCH  20  28
ENDBRANCH  19  20
ENDBRANCH   8  19
TORSDOF 14
