REMARK  Name = ZINC53109600
REMARK  4 active torsions:
REMARK  status: ('A' for Active; 'I' for Inactive)
REMARK    1  A    between atoms: C_1  and  C_2
REMARK    2  A    between atoms: C_5  and  C_8
REMARK    3  A    between atoms: C_5  and  N_10
REMARK    4  A    between atoms: C_8  and  O_9
REMARK                            x       y       z     vdW  Elec       q    Type
REMARK                         _______ _______ _______ _____ _____    ______ ____
ROOT
ATOM      1  N   UNL     1       2.900  -1.969   0.114  0.00  0.00    -0.316 N 
ATOM      2  C   UNL     1       3.562  -2.777  -0.811  0.00  0.00    +0.205 A 
ATOM      3  C   UNL     1       3.467  -4.244  -0.725  0.00  0.00    +0.294 A 
ATOM      4  O   UNL     1       2.811  -4.769   0.155  0.00  0.00    -0.264 OA
ATOM      5  N   UNL     1       4.119  -4.997  -1.635  0.00  0.00    -0.271 N 
ATOM      6  H   UNL     1       4.065  -5.965  -1.590  0.00  0.00    +0.174 HD
ATOM      7  C   UNL     1       4.842  -4.408  -2.605  0.00  0.00    +0.343 A 
ATOM      8  O   UNL     1       5.424  -5.098  -3.420  0.00  0.00    -0.245 OA
ATOM      9  N   UNL     1       4.932  -3.069  -2.689  0.00  0.00    -0.226 N 
ATOM     10  H   UNL     1       5.459  -2.669  -3.398  0.00  0.00    +0.194 HD
ATOM     11  N   UNL     1       4.271  -2.244  -1.771  0.00  0.00    -0.149 NA
ATOM     12  H   UNL     1       2.422  -2.372   0.856  0.00  0.00    +0.148 HD
ENDROOT
BRANCH   1  17
ATOM     13  C   UNL     1       0.092   1.546  -0.490  0.00  0.00    +0.007 C 
ATOM     14  C   UNL     1       0.063   0.024  -0.334  0.00  0.00    -0.014 C 
ATOM     15  C   UNL     1       0.878  -0.619  -1.459  0.00  0.00    +0.005 C 
ATOM     16  C   UNL     1       2.324  -0.126  -1.386  0.00  0.00    +0.028 C 
ATOM     17  C   UNL     1       2.928  -0.512  -0.034  0.00  0.00    +0.057 C 
ATOM     18  C   UNL     1       2.113   0.131   1.090  0.00  0.00    +0.028 C 
ATOM     19  C   UNL     1       0.667  -0.362   1.018  0.00  0.00    +0.005 C 
BRANCH  17  20
ATOM     20  C   UNL     1       4.375  -0.019   0.038  0.00  0.00    +0.181 C 
BRANCH  20  21
ATOM     21  O   UNL     1       4.978  -0.488   1.245  0.00  0.00    -0.393 OA
ATOM     22  H   UNL     1       5.898  -0.213   1.358  0.00  0.00    +0.209 HD
ENDBRANCH  20  21
ENDBRANCH  17  20
ENDBRANCH   1  17
TORSDOF 3
