REMARK  Name = ZINC63230418
REMARK  6 active torsions:
REMARK  status: ('A' for Active; 'I' for Inactive)
REMARK    1  A    between atoms: C_7  and  C_10
REMARK    2  A    between atoms: C_10  and  C_11
REMARK    3  A    between atoms: C_11  and  C_12
REMARK    4  A    between atoms: C_12  and  C_13
REMARK    5  A    between atoms: C_18  and  C_26
REMARK    6  A    between atoms: C_19  and  C_21
REMARK                            x       y       z     vdW  Elec       q    Type
REMARK                         _______ _______ _______ _____ _____    ______ ____
ROOT
ATOM      1  C   UNL     1      -0.729  -5.309  -2.876  0.00  0.00    +0.219 C 
ATOM      2  O   UNL     1      -0.183  -4.738  -3.796  0.00  0.00    -0.275 OA
ATOM      3  N   UNL     1      -1.542  -6.356  -3.120  0.00  0.00    -0.265 N 
ATOM      4  C   UNL     1      -1.755  -6.780  -4.425  0.00  0.00    +0.166 A 
ATOM      5  N   UNL     1      -1.254  -6.300  -5.547  0.00  0.00    -0.221 NA
ATOM      6  C   UNL     1      -1.558  -6.823  -6.723  0.00  0.00    +0.126 A 
ATOM      7  C   UNL     1      -2.433  -7.912  -6.762  0.00  0.00    +0.086 A 
ATOM      8  S   UNL     1      -2.771  -8.125  -5.019  0.00  0.00    -0.048 S 
ATOM      9  H   UNL     1      -1.979  -6.813  -2.385  0.00  0.00    +0.157 HD
ENDROOT
BRANCH   7  10
ATOM     10  C   UNL     1      -2.932  -8.673  -7.913  0.00  0.00    +0.144 A 
ATOM     11  C   UNL     1      -3.796  -9.728  -7.863  0.00  0.00    +0.050 A 
ATOM     12  C   UNL     1      -4.000 -10.148  -9.192  0.00  0.00    +0.042 A 
ATOM     13  C   UNL     1      -3.261  -9.342  -9.980  0.00  0.00    +0.196 A 
ATOM     14  O   UNL     1      -2.622  -8.448  -9.206  0.00  0.00    -0.462 OA
ENDBRANCH   7  10
BRANCH   6  15
ATOM     15  C   UNL     1      -0.988  -6.271  -7.964  0.00  0.00    +0.154 A 
ATOM     16  C   UNL     1      -0.713  -4.958  -8.203  0.00  0.00    +0.051 A 
ATOM     17  C   UNL     1      -0.182  -4.885  -9.506  0.00  0.00    +0.042 A 
ATOM     18  C   UNL     1      -0.159  -6.141  -9.994  0.00  0.00    +0.196 A 
ATOM     19  O   UNL     1      -0.641  -6.976  -9.058  0.00  0.00    -0.461 OA
ENDBRANCH   6  15
BRANCH   1  20
ATOM     20  C   UNL     1      -0.499  -4.848  -1.460  0.00  0.00    +0.096 C 
BRANCH  20  21
ATOM     21  C   UNL     1       0.457  -3.653  -1.462  0.00  0.00    +0.014 C 
BRANCH  21  22
ATOM     22  C   UNL     1       0.691  -3.186  -0.024  0.00  0.00    +0.033 C 
BRANCH  22  29
ATOM     23  C   UNL     1      -0.016   1.348   0.009  0.00  0.00    +0.001 A 
ATOM     24  C   UNL     1       1.166   2.101   0.002  0.00  0.00    +0.002 A 
ATOM     25  C   UNL     1       2.391   1.535  -0.013  0.00  0.00    +0.026 A 
ATOM     26  C   UNL     1       2.529   0.120  -0.022  0.00  0.00    +0.043 A 
ATOM     27  N   UNL     1       3.587  -0.654  -0.037  0.00  0.00    -0.380 N 
ATOM     28  C   UNL     1       3.143  -2.053  -0.041  0.00  0.00    +0.144 C 
ATOM     29  C   UNL     1       1.631  -2.008  -0.025  0.00  0.00    -0.042 C 
ATOM     30  C   UNL     1       1.295  -0.698  -0.014  0.00  0.00    -0.001 A 
ATOM     31  C   UNL     1       0.002  -0.004   0.002  0.00  0.00    +0.010 A 
ATOM     32  H   UNL     1       4.509  -0.353  -0.045  0.00  0.00    +0.160 HD
ENDBRANCH  22  29
ENDBRANCH  21  22
ENDBRANCH  20  21
ENDBRANCH   1  20
TORSDOF 6
