REMARK  Name = ZINC52538643
REMARK  5 active torsions:
REMARK  status: ('A' for Active; 'I' for Inactive)
REMARK    1  A    between atoms: C_1  and  O_2
REMARK    2  A    between atoms: O_2  and  C_3
REMARK    3  A    between atoms: C_3  and  C_5
REMARK    4  A    between atoms: C_8  and  C_22
REMARK    5  A    between atoms: C_13  and  C_15
REMARK                            x       y       z     vdW  Elec       q    Type
REMARK                         _______ _______ _______ _____ _____    ______ ____
ROOT
ATOM      1  C   UNL     1       0.502  -2.021  -1.298  0.00  0.00    +0.269 C 
ATOM      2  O   UNL     1       0.064  -2.713  -0.220  0.00  0.00    -0.280 OA
ATOM      3  C   UNL     1       1.099  -2.672  -2.325  0.00  0.00    +0.055 C 
ATOM      4  C   UNL     1       1.141  -4.144  -2.387  0.00  0.00    +0.075 C 
ATOM      5  N   UNL     1       2.139  -4.708  -3.053  0.00  0.00    -0.192 NA
ATOM      6  C   UNL     1       3.070  -3.977  -3.667  0.00  0.00    +0.155 C 
ATOM      7  S   UNL     1       4.458  -4.775  -4.271  0.00  0.00    -0.017 S 
ATOM      8  N   UNL     1       2.977  -2.650  -3.836  0.00  0.00    -0.314 N 
ATOM      9  C   UNL     1       1.750  -1.923  -3.471  0.00  0.00    +0.138 C 
ATOM     10  H   UNL     1       3.729  -2.162  -4.208  0.00  0.00    +0.149 HD
ENDROOT
BRANCH   9  11
ATOM     11  C   UNL     1       0.811  -1.874  -4.648  0.00  0.00    -0.023 A 
ATOM     12  C   UNL     1       0.687  -2.971  -5.479  0.00  0.00    +0.008 A 
ATOM     13  C   UNL     1      -0.175  -2.926  -6.559  0.00  0.00    +0.038 A 
ATOM     14  C   UNL     1      -0.914  -1.782  -6.808  0.00  0.00    +0.123 A 
ATOM     15  C   UNL     1      -0.789  -0.684  -5.974  0.00  0.00    +0.038 A 
ATOM     16  C   UNL     1       0.070  -0.733  -4.892  0.00  0.00    +0.008 A 
ATOM     17  F   UNL     1      -1.756  -1.738  -7.863  0.00  0.00    -0.205 F 
ENDBRANCH   9  11
BRANCH   4  18
ATOM     18  C   UNL     1       0.105  -4.965  -1.728  0.00  0.00    +0.034 A 
ATOM     19  C   UNL     1       0.447  -5.811  -0.669  0.00  0.00    +0.012 A 
ATOM     20  C   UNL     1      -0.525  -6.574  -0.059  0.00  0.00    +0.001 A 
ATOM     21  C   UNL     1      -1.839  -6.505  -0.491  0.00  0.00    +0.003 A 
ATOM     22  C   UNL     1      -2.188  -5.671  -1.538  0.00  0.00    +0.039 A 
ATOM     23  C   UNL     1      -1.226  -4.895  -2.156  0.00  0.00    +0.132 A 
ATOM     24  F   UNL     1      -1.568  -4.076  -3.175  0.00  0.00    -0.205 F 
ENDBRANCH   4  18
BRANCH   1  25
ATOM     25  C   UNL     1       0.330  -0.553  -1.353  0.00  0.00    +0.379 C 
ATOM     26  O   UNL     1       0.793   0.077  -2.282  0.00  0.00    -0.241 OA
BRANCH  25  28
ATOM     27  C   UNL     1      -0.469   1.502  -0.492  0.00  0.00    +0.280 C 
ATOM     28  O   UNL     1      -0.341   0.084  -0.373  0.00  0.00    -0.462 OA
ENDBRANCH  25  28
ENDBRANCH   1  25
TORSDOF 4
