REMARK  Name = ZINC34348857
REMARK  12 active torsions:
REMARK  status: ('A' for Active; 'I' for Inactive)
REMARK    1  A    between atoms: C_1  and  C_2
REMARK    2  A    between atoms: C_5  and  O_26
REMARK    3  A    between atoms: C_7  and  C_24
REMARK    4  A    between atoms: C_7  and  C_25
REMARK    5  A    between atoms: C_12  and  C_22
REMARK    6  A    between atoms: C_12  and  O_23
REMARK    7  A    between atoms: C_13  and  C_15
REMARK    8  A    between atoms: C_15  and  C_16
REMARK    9  A    between atoms: C_16  and  C_17
REMARK   10  A    between atoms: C_17  and  C_18
REMARK   11  A    between atoms: C_17  and  C_19
REMARK   12  A    between atoms: C_17  and  O_21
REMARK                            x       y       z     vdW  Elec       q    Type
REMARK                         _______ _______ _______ _____ _____    ______ ____
ROOT
ATOM      1  C   UNL     1      -0.366   1.463   0.819  0.00  0.00    +0.012 C 
ATOM      2  C   UNL     1      -0.177  -0.060   0.643  0.00  0.00    -0.023 C 
ATOM      3  C   UNL     1       0.178  -0.330  -0.814  0.00  0.00    +0.010 C 
ATOM      4  C   UNL     1       1.497   0.362  -1.168  0.00  0.00    +0.032 C 
ATOM      5  C   UNL     1       2.623  -0.185  -0.302  0.00  0.00    +0.120 C 
ATOM      6  C   UNL     1       2.321  -0.060   1.187  0.00  0.00    -0.006 C 
ATOM      7  C   UNL     1       0.936  -0.569   1.556  0.00  0.00    +0.004 C 
ATOM      8  C   UNL     1       0.922  -2.102   1.547  0.00  0.00    +0.007 C 
ATOM      9  C   UNL     1      -0.407  -2.618   2.101  0.00  0.00    +0.035 C 
ATOM     10  C   UNL     1      -1.567  -2.154   1.230  0.00  0.00    +0.067 C 
ATOM     11  C   UNL     1      -1.530  -0.654   1.026  0.00  0.00    +0.027 C 
ATOM     12  C   UNL     1      -1.586  -2.909  -0.098  0.00  0.00    +0.041 C 
ATOM     13  C   UNL     1       2.538   1.392   1.636  0.00  0.00    +0.014 C 
ATOM     14  C   UNL     1       3.398  -0.878   1.937  0.00  0.00    +0.014 C 
ENDROOT
BRANCH  10  15
ATOM     15  O   UNL     1      -2.791  -2.479   1.926  0.00  0.00    -0.389 OA
ATOM     16  H   UNL     1      -2.904  -3.422   2.103  0.00  0.00    +0.210 HD
ENDBRANCH  10  15
BRANCH   5  17
ATOM     17  O   UNL     1       2.873  -1.553  -0.636  0.00  0.00    -0.391 OA
ATOM     18  H   UNL     1       3.133  -1.692  -1.557  0.00  0.00    +0.210 HD
ENDBRANCH   5  17
BRANCH  11  19
ATOM     19  C   UNL     1      -2.605  -0.238   0.016  0.00  0.00    +0.010 C 
BRANCH  19  20
ATOM     20  C   UNL     1      -3.972  -0.735   0.492  0.00  0.00    +0.039 C 
BRANCH  20  21
ATOM     21  C   UNL     1      -5.045  -0.320  -0.516  0.00  0.00    +0.081 C 
ATOM     22  C   UNL     1      -4.727  -0.933  -1.881  0.00  0.00    +0.046 C 
BRANCH  21  23
ATOM     23  C   UNL     1      -6.391  -0.809  -0.047  0.00  0.00    -0.001 C 
ATOM     24  C   UNL     1      -7.354   0.048   0.188  0.00  0.00    +0.007 C 
ENDBRANCH  21  23
BRANCH  21  25
ATOM     25  O   UNL     1      -5.068   1.105  -0.628  0.00  0.00    -0.385 OA
ATOM     26  H   UNL     1      -5.264   1.561   0.202  0.00  0.00    +0.211 HD
ENDBRANCH  21  25
ENDBRANCH  20  21
ENDBRANCH  19  20
ENDBRANCH  11  19
TORSDOF 7
