REMARK  Name = ZINC09303193
REMARK  6 active torsions:
REMARK  status: ('A' for Active; 'I' for Inactive)
REMARK    1  A    between atoms: C_1  and  O_2
REMARK    2  A    between atoms: O_2  and  C_3
REMARK    3  A    between atoms: C_6  and  C_9
REMARK    4  A    between atoms: C_10  and  C_11
REMARK    5  A    between atoms: C_19  and  C_31
REMARK    6  A    between atoms: C_22  and  C_25
REMARK                            x       y       z     vdW  Elec       q    Type
REMARK                         _______ _______ _______ _____ _____    ______ ____
ROOT
ATOM      1  C   UNL     1       3.304  -4.543   5.452  0.00  0.00    +0.243 C 
ATOM      2  O   UNL     1       3.810  -3.878   6.337  0.00  0.00    -0.270 OA
ATOM      3  N   UNL     1       3.363  -5.889   5.503  0.00  0.00    -0.250 N 
ATOM      4  C   UNL     1       4.005  -6.521   6.571  0.00  0.00    +0.242 A 
ATOM      5  N   UNL     1       4.592  -5.899   7.604  0.00  0.00    -0.180 NA
ATOM      6  C   UNL     1       5.093  -6.787   8.419  0.00  0.00    +0.216 A 
ATOM      7  N   UNL     1       4.830  -8.018   7.916  0.00  0.00    -0.224 N 
ATOM      8  N   UNL     1       4.125  -7.820   6.728  0.00  0.00    -0.131 NA
ATOM      9  C   UNL     1       5.231  -9.272   8.554  0.00  0.00    +0.143 C 
ATOM     10  C   UNL     1       5.540  -8.999  10.031  0.00  0.00    +0.058 C 
ATOM     11  C   UNL     1       6.477  -7.792  10.150  0.00  0.00    +0.106 C 
ATOM     12  N   UNL     1       5.787  -6.605   9.608  0.00  0.00    -0.307 N 
ATOM     13  H   UNL     1       2.959  -6.419   4.798  0.00  0.00    +0.158 HD
ATOM     14  H   UNL     1       5.816  -5.746  10.057  0.00  0.00    +0.149 HD
ENDROOT
BRANCH  11  15
ATOM     15  C   UNL     1       7.737  -8.050   9.365  0.00  0.00    -0.027 A 
ATOM     16  C   UNL     1       7.747  -7.871   7.995  0.00  0.00    +0.005 A 
ATOM     17  C   UNL     1       8.903  -8.108   7.275  0.00  0.00    +0.000 A 
ATOM     18  C   UNL     1      10.050  -8.525   7.926  0.00  0.00    +0.000 A 
ATOM     19  C   UNL     1      10.040  -8.704   9.296  0.00  0.00    +0.000 A 
ATOM     20  C   UNL     1       8.885  -8.462  10.017  0.00  0.00    +0.005 A 
ENDBRANCH  11  15
BRANCH   9  21
ATOM     21  C   UNL     1       4.111 -10.274   8.446  0.00  0.00    -0.023 A 
ATOM     22  C   UNL     1       2.877  -9.993   9.001  0.00  0.00    +0.006 A 
ATOM     23  C   UNL     1       1.849 -10.913   8.902  0.00  0.00    +0.000 A 
ATOM     24  C   UNL     1       2.056 -12.113   8.247  0.00  0.00    +0.000 A 
ATOM     25  C   UNL     1       3.290 -12.393   7.691  0.00  0.00    +0.000 A 
ATOM     26  C   UNL     1       4.316 -11.471   7.787  0.00  0.00    +0.006 A 
ENDBRANCH   9  21
BRANCH   1  28
ATOM     27  C   UNL     1       2.573  -2.535   4.284  0.00  0.00    +0.013 C 
ATOM     28  C   UNL     1       2.632  -3.883   4.334  0.00  0.00    +0.068 C 
BRANCH  27  32
ATOM     29  C   UNL     1       0.625  -0.618   1.040  0.00  0.00    +0.120 A 
ATOM     30  C   UNL     1       1.202   0.144   2.050  0.00  0.00    +0.046 A 
ATOM     31  C   UNL     1       1.835  -0.473   3.105  0.00  0.00    +0.011 A 
ATOM     32  C   UNL     1       1.897  -1.870   3.160  0.00  0.00    -0.025 A 
ATOM     33  C   UNL     1       1.315  -2.633   2.141  0.00  0.00    +0.011 A 
ATOM     34  C   UNL     1       0.679  -2.006   1.093  0.00  0.00    +0.046 A 
BRANCH  29  36
ATOM     35  C   UNL     1      -0.017   1.425   0.010  0.00  0.00    +0.277 C 
ATOM     36  O   UNL     1       0.002  -0.004   0.002  0.00  0.00    -0.495 OA
ENDBRANCH  29  36
ENDBRANCH  27  32
ENDBRANCH   1  28
TORSDOF 5
