REMARK  Name = ZINC39555252
REMARK  8 active torsions:
REMARK  status: ('A' for Active; 'I' for Inactive)
REMARK    1  A    between atoms: C_1  and  C_2
REMARK    2  A    between atoms: C_4  and  C_17
REMARK    3  A    between atoms: N_8  and  C_11
REMARK    4  A    between atoms: C_11  and  C_12
REMARK    5  A    between atoms: C_17  and  N_19
REMARK    6  A    between atoms: C_22  and  C_25
REMARK    7  A    between atoms: C_25  and  N_26
REMARK    8  A    between atoms: C_30  and  C_33
REMARK                            x       y       z     vdW  Elec       q    Type
REMARK                         _______ _______ _______ _____ _____    ______ ____
ROOT
ATOM      1  C   UNL     1       0.120  -2.283  -2.519  0.00  0.00    +0.270 C 
ATOM      2  O   UNL     1       0.212  -3.493  -2.401  0.00  0.00    -0.268 OA
ENDROOT
BRANCH   1   6
ATOM      3  C   UNL     1      -0.154   2.232  -0.394  0.00  0.00    +0.065 C 
ATOM      4  C   UNL     1      -0.042   0.734  -0.271  0.00  0.00    +0.041 A 
ATOM      5  C   UNL     1      -0.015  -0.038  -1.423  0.00  0.00    +0.037 A 
ATOM      6  C   UNL     1       0.089  -1.422  -1.314  0.00  0.00    +0.053 A 
ATOM      7  C   UNL     1       0.164  -1.979  -0.019  0.00  0.00    +0.051 A 
ATOM      8  C   UNL     1       0.273  -3.296   0.476  0.00  0.00    +0.145 A 
ATOM      9  N   UNL     1       0.303  -3.250   1.777  0.00  0.00    -0.177 NA
ATOM     10  N   UNL     1       0.217  -1.920   2.205  0.00  0.00    -0.241 N 
ATOM     11  C   UNL     1       0.130  -1.118   1.097  0.00  0.00    +0.159 A 
ATOM     12  N   UNL     1       0.034   0.193   0.924  0.00  0.00    -0.233 NA
BRANCH  10  13
ATOM     13  C   UNL     1       0.220  -1.463   3.597  0.00  0.00    +0.188 C 
BRANCH  13  14
ATOM     14  C   UNL     1       1.638  -1.202   4.037  0.00  0.00    +0.011 A 
ATOM     15  C   UNL     1       2.357  -0.055   3.964  0.00  0.00    +0.013 A 
ATOM     16  C   UNL     1       3.656  -0.047   4.435  0.00  0.00    +0.008 A 
ATOM     17  C   UNL     1       4.173  -1.186   4.957  0.00  0.00    +0.045 A 
ATOM     18  S   UNL     1       2.804  -2.320   4.796  0.00  0.00    -0.100 S 
ENDBRANCH  13  14
ENDBRANCH  10  13
ENDBRANCH   1   6
BRANCH   1  19
ATOM     19  N   UNL     1       0.048  -1.734  -3.733  0.00  0.00    -0.152 NA
ATOM     20  C   UNL     1       0.076  -2.509  -4.817  0.00  0.00    +0.163 A 
ATOM     21  N   UNL     1       0.020  -2.136  -6.125  0.00  0.00    -0.341 N 
ATOM     22  C   UNL     1       0.064  -3.099  -7.084  0.00  0.00    +0.008 A 
ATOM     23  C   UNL     1       0.161  -4.369  -6.674  0.00  0.00    +0.067 A 
ATOM     24  S   UNL     1       0.197  -4.184  -4.901  0.00  0.00    -0.061 S 
ATOM     25  H   UNL     1      -0.051  -1.200  -6.368  0.00  0.00    +0.167 HD
BRANCH  22  26
ATOM     26  C   UNL     1       0.005  -2.749  -8.548  0.00  0.00    -0.024 C 
BRANCH  26  27
ATOM     27  N   UNL     1      -1.303  -2.157  -8.858  0.00  0.00    +0.384 N 
ATOM     28  C   UNL     1      -1.307  -1.684 -10.248  0.00  0.00    -0.078 C 
ATOM     29  C   UNL     1      -2.639  -0.994 -10.551  0.00  0.00    -0.018 C 
ATOM     30  C   UNL     1      -3.783  -1.991 -10.347  0.00  0.00    -0.001 C 
ATOM     31  C   UNL     1      -3.723  -2.534  -8.917  0.00  0.00    -0.031 C 
ATOM     32  C   UNL     1      -2.352  -3.167  -8.674  0.00  0.00    -0.075 C 
ATOM     33  C   UNL     1      -4.815  -3.589  -8.725  0.00  0.00    +0.005 C 
ATOM     34  H   UNL     1      -1.474  -1.379  -8.239  0.00  0.00    -0.081 HD
ENDBRANCH  26  27
ENDBRANCH  22  26
ENDBRANCH   1  19
TORSDOF 6
