REMARK  Name = ZINC41546090
REMARK  3 active torsions:
REMARK  status: ('A' for Active; 'I' for Inactive)
REMARK    1  A    between atoms: C_1  and  C_2
REMARK    2  A    between atoms: C_12  and  C_14
REMARK    3  A    between atoms: C_14  and  C_25
REMARK                            x       y       z     vdW  Elec       q    Type
REMARK                         _______ _______ _______ _____ _____    ______ ____
ROOT
ATOM      1  C   UNL     1      -0.019   1.526   0.010  0.00  0.00    +0.008 C 
ATOM      2  C   UNL     1       0.002  -0.004   0.002  0.00  0.00    -0.009 C 
ATOM      3  C   UNL     1       0.724  -0.501  -1.254  0.00  0.00    +0.010 C 
ATOM      4  C   UNL     1       0.541  -2.012  -1.403  0.00  0.00    +0.056 C 
ATOM      5  C   UNL     1       0.951  -2.684  -0.100  0.00  0.00    +0.054 A 
ATOM      6  C   UNL     1       1.031  -1.968   1.051  0.00  0.00    +0.015 A 
ATOM      7  S   UNL     1       1.536  -3.189   2.230  0.00  0.00    -0.057 S 
ATOM      8  C   UNL     1       1.604  -4.500   1.174  0.00  0.00    +0.165 A 
ATOM      9  N   UNL     1       1.255  -3.974   0.021  0.00  0.00    -0.229 NA
ATOM     10  N   UNL     1       1.946  -5.818   1.454  0.00  0.00    -0.261 N 
ATOM     11  C   UNL     1       1.944  -6.738   0.469  0.00  0.00    +0.272 C 
ATOM     12  O   UNL     1       1.644  -6.416  -0.661  0.00  0.00    -0.270 OA
ATOM     13  C   UNL     1       0.751  -0.516   1.243  0.00  0.00    +0.047 C 
ATOM     14  H   UNL     1       2.186  -6.075   2.358  0.00  0.00    +0.157 HD
ENDROOT
BRANCH  11  15
ATOM     15  C   UNL     1       2.314  -8.167   0.772  0.00  0.00    +0.258 C 
ATOM     16  C   UNL     1       1.681  -9.078  -0.249  0.00  0.00    +0.270 C 
ATOM     17  O   UNL     1       1.428  -8.663  -1.361  0.00  0.00    -0.271 OA
ATOM     18  N   UNL     1       1.395 -10.355   0.079  0.00  0.00    -0.279 N 
ATOM     19  C   UNL     1       1.577 -10.779   1.402  0.00  0.00    +0.076 A 
ATOM     20  C   UNL     1       1.515 -12.124   1.726  0.00  0.00    +0.027 A 
ATOM     21  C   UNL     1       1.710 -12.527   3.035  0.00  0.00    +0.002 A 
ATOM     22  C   UNL     1       1.966 -11.591   4.020  0.00  0.00    +0.004 A 
ATOM     23  C   UNL     1       2.025 -10.245   3.703  0.00  0.00    +0.047 A 
ATOM     24  C   UNL     1       1.825  -9.835   2.397  0.00  0.00    +0.144 A 
ATOM     25  O   UNL     1       1.849  -8.512   2.079  0.00  0.00    -0.465 OA
ATOM     26  C   UNL     1       3.836  -8.322   0.716  0.00  0.00    +0.076 C 
ATOM     27  H   UNL     1       1.069 -10.973  -0.594  0.00  0.00    +0.155 HD
ENDBRANCH  11  15
TORSDOF 1
