REMARK  Name = ZINC35992257
REMARK  12 active torsions:
REMARK  status: ('A' for Active; 'I' for Inactive)
REMARK    1  A    between atoms: C_1  and  C_2
REMARK    2  A    between atoms: C_2  and  C_3
REMARK    3  A    between atoms: C_3  and  N_4
REMARK    4  A    between atoms: N_10  and  C_15
REMARK    5  A    between atoms: C_12  and  C_14
REMARK    6  A    between atoms: C_15  and  C_16
REMARK    7  A    between atoms: C_17  and  C_32
REMARK    8  A    between atoms: C_18  and  C_25
REMARK    9  A    between atoms: N_23  and  C_24
REMARK   10  A    between atoms: C_32  and  O_34
REMARK   11  A    between atoms: O_34  and  C_35
REMARK   12  A    between atoms: C_35  and  C_36
REMARK                            x       y       z     vdW  Elec       q    Type
REMARK                         _______ _______ _______ _____ _____    ______ ____
ROOT
ATOM      1  C   UNL     1       2.484  -8.504  -0.471  0.00  0.00    +0.041 C 
ATOM      2  C   UNL     1       2.481  -9.759  -0.969  0.00  0.00    +0.080 C 
ATOM      3  C   UNL     1       1.849 -10.850  -0.128  0.00  0.00    +0.144 C 
ATOM      4  N   UNL     1       1.286 -10.447   1.173  0.00  0.00    -0.288 N 
ATOM      5  C   UNL     1       1.366  -9.151   1.533  0.00  0.00    +0.307 C 
ATOM      6  O   UNL     1       0.904  -8.809   2.604  0.00  0.00    -0.252 OA
ATOM      7  N   UNL     1       1.941  -8.229   0.751  0.00  0.00    -0.260 N 
ATOM      8  C   UNL     1       1.984  -6.845   1.232  0.00  0.00    +0.139 C 
ATOM      9  H   UNL     1       0.869 -11.100   1.756  0.00  0.00    +0.151 HD
ENDROOT
BRANCH   3  10
ATOM     10  C   UNL     1       0.744 -11.479  -0.936  0.00  0.00    -0.022 A 
ATOM     11  C   UNL     1      -0.485 -10.853  -1.031  0.00  0.00    +0.008 A 
ATOM     12  C   UNL     1      -1.499 -11.429  -1.772  0.00  0.00    +0.038 A 
ATOM     13  C   UNL     1      -1.283 -12.634  -2.421  0.00  0.00    +0.123 A 
ATOM     14  C   UNL     1      -0.052 -13.259  -2.325  0.00  0.00    +0.038 A 
ATOM     15  C   UNL     1       0.962 -12.679  -1.587  0.00  0.00    +0.008 A 
ATOM     16  F   UNL     1      -2.274 -13.198  -3.146  0.00  0.00    -0.205 F 
ENDBRANCH   3  10
BRANCH   2  17
ATOM     17  C   UNL     1       3.047 -10.046  -2.233  0.00  0.00    +0.339 C 
ATOM     18  O   UNL     1       3.583  -9.162  -2.874  0.00  0.00    -0.245 OA
BRANCH  17  19
ATOM     19  O   UNL     1       2.994 -11.301  -2.727  0.00  0.00    -0.462 OA
BRANCH  19  20
ATOM     20  C   UNL     1       3.586 -11.519  -4.009  0.00  0.00    +0.229 C 
ATOM     21  C   UNL     1       3.429 -12.990  -4.400  0.00  0.00    +0.048 C 
ENDBRANCH  19  20
ENDBRANCH  17  19
ENDBRANCH   2  17
BRANCH   1  22
ATOM     22  C   UNL     1       3.102  -7.389  -1.276  0.00  0.00    +0.136 C 
BRANCH  22  29
ATOM     23  N   UNL     1      -1.035  -3.638  -3.815  0.00  0.00    -0.299 N 
ATOM     24  C   UNL     1       0.063  -4.157  -4.400  0.00  0.00    +0.303 C 
ATOM     25  O   UNL     1       0.562  -3.601  -5.359  0.00  0.00    -0.253 OA
ATOM     26  N   UNL     1       0.608  -5.293  -3.921  0.00  0.00    -0.280 N 
ATOM     27  C   UNL     1      -0.047  -6.048  -2.842  0.00  0.00    +0.125 C 
ATOM     28  C   UNL     1       0.983  -6.313  -1.739  0.00  0.00    +0.104 C 
ATOM     29  N   UNL     1       2.164  -6.963  -2.323  0.00  0.00    -0.294 NA
ATOM     30  C   UNL     1       2.827  -6.086  -3.298  0.00  0.00    +0.107 C 
ATOM     31  C   UNL     1       1.869  -5.815  -4.469  0.00  0.00    +0.088 C 
ATOM     32  C   UNL     1       2.487  -4.780  -5.411  0.00  0.00    +0.029 C 
ATOM     33  H   UNL     1      -1.476  -4.119  -3.098  0.00  0.00    +0.150 HD
BRANCH  23  34
ATOM     34  C   UNL     1      -1.562  -2.346  -4.264  0.00  0.00    +0.105 C 
BRANCH  34  36
ATOM     35  C   UNL     1      -3.352  -0.640  -3.911  0.00  0.00    +0.005 C 
ATOM     36  C   UNL     1      -2.802  -1.989  -3.442  0.00  0.00    +0.015 C 
ENDBRANCH  34  36
ENDBRANCH  23  34
ENDBRANCH  22  29
ENDBRANCH   1  22
TORSDOF 8
