REMARK  Name = ZINC65493116
REMARK  6 active torsions:
REMARK  status: ('A' for Active; 'I' for Inactive)
REMARK    1  A    between atoms: C_1  and  C_2
REMARK    2  A    between atoms: C_4  and  C_31
REMARK    3  A    between atoms: C_8  and  C_10
REMARK    4  A    between atoms: C_10  and  C_11
REMARK    5  A    between atoms: C_14  and  C_28
REMARK    6  A    between atoms: N_17  and  C_18
REMARK                            x       y       z     vdW  Elec       q    Type
REMARK                         _______ _______ _______ _____ _____    ______ ____
ROOT
ATOM      1  C   UNL     1      -1.215  -1.204   3.425  0.00  0.00    +0.160 C 
ATOM      2  N   UNL     1      -1.183  -2.660   3.147  0.00  0.00    -0.281 NA
ATOM      3  C   UNL     1      -2.110  -3.208   4.176  0.00  0.00    +0.143 C 
ATOM      4  N   UNL     1      -3.143  -2.146   4.273  0.00  0.00    -0.221 NA
ATOM      5  N   UNL     1      -2.466  -0.954   4.160  0.00  0.00    -0.248 N 
ATOM      6  H   UNL     1      -1.518  -2.858   2.216  0.00  0.00    +0.125 HD
ATOM      7  H   UNL     1      -3.830  -2.243   3.540  0.00  0.00    +0.146 HD
ENDROOT
BRANCH   5   8
ATOM      8  C   UNL     1      -2.891   0.282   4.658  0.00  0.00    +0.050 A 
ATOM      9  C   UNL     1      -2.109   1.414   4.468  0.00  0.00    +0.028 A 
ATOM     10  C   UNL     1      -2.528   2.635   4.961  0.00  0.00    +0.051 A 
ATOM     11  C   UNL     1      -3.731   2.735   5.644  0.00  0.00    +0.162 A 
ATOM     12  C   UNL     1      -4.517   1.605   5.833  0.00  0.00    +0.164 A 
ATOM     13  C   UNL     1      -4.098   0.380   5.336  0.00  0.00    +0.074 A 
ATOM     14  O   UNL     1      -5.705   1.685   6.494  0.00  0.00    -0.485 OA
ATOM     15  C   UNL     1      -5.918   2.851   7.296  0.00  0.00    +0.270 C 
ATOM     16  C   UNL     1      -5.508   4.081   6.474  0.00  0.00    +0.270 C 
ATOM     17  O   UNL     1      -4.126   3.946   6.125  0.00  0.00    -0.485 OA
ENDBRANCH   5   8
BRANCH   3  18
ATOM     18  C   UNL     1      -2.723  -4.529   3.707  0.00  0.00    +0.022 C 
ATOM     19  C   UNL     1      -2.637  -5.724   4.658  0.00  0.00    +0.007 C 
ATOM     20  C   UNL     1      -1.766  -5.683   3.401  0.00  0.00    +0.007 C 
ENDBRANCH   3  18
BRANCH   1  21
ATOM     21  C   UNL     1      -1.210  -0.417   2.113  0.00  0.00    +0.058 C 
BRANCH  21  29
ATOM     22  C   UNL     1      -0.669  -2.689   0.096  0.00  0.00    +0.061 C 
ATOM     23  C   UNL     1       0.316  -2.022   1.021  0.00  0.00    +0.030 C 
ATOM     24  N   UNL     1       1.342  -2.667   1.495  0.00  0.00    -0.243 NA
ATOM     25  C   UNL     1       2.230  -2.103   2.315  0.00  0.00    +0.119 C 
ATOM     26  N   UNL     1       2.190  -0.870   2.740  0.00  0.00    -0.165 NA
ATOM     27  C   UNL     1       1.212  -0.026   2.373  0.00  0.00    +0.246 C 
ATOM     28  O   UNL     1       1.180   1.121   2.771  0.00  0.00    -0.273 OA
ATOM     29  C   UNL     1       0.152  -0.570   1.432  0.00  0.00    +0.124 C 
ATOM     30  C   UNL     1       3.373  -2.961   2.792  0.00  0.00    +0.085 C 
ENDBRANCH  21  29
ENDBRANCH   1  21
TORSDOF 4
