REMARK  Name = ZINC05001505
REMARK  8 active torsions:
REMARK  status: ('A' for Active; 'I' for Inactive)
REMARK    1  A    between atoms: C_1  and  C_2
REMARK    2  A    between atoms: C_2  and  S_3
REMARK    3  A    between atoms: S_3  and  C_4
REMARK    4  A    between atoms: C_7  and  C_10
REMARK    5  A    between atoms: N_8  and  C_9
REMARK    6  A    between atoms: C_16  and  C_17
REMARK    7  A    between atoms: C_16  and  N_49
REMARK    8  A    between atoms: C_22  and  C_25
REMARK                            x       y       z     vdW  Elec       q    Type
REMARK                         _______ _______ _______ _____ _____    ______ ____
ROOT
ATOM      1  C   UNL     1       0.088   1.752  -0.315  0.00  0.00    +0.040 C 
ATOM      2  C   UNL     1      -0.664   2.216   0.935  0.00  0.00    +0.007 C 
ATOM      3  C   UNL     1      -0.078   1.515   2.163  0.00  0.00    -0.018 C 
ATOM      4  C   UNL     1       1.417   1.827   2.257  0.00  0.00    -0.078 C 
ATOM      5  C   UNL     1       1.579   2.057  -0.150  0.00  0.00    -0.067 C 
ATOM      6  N   UNL     1       2.088   1.334   1.035  0.00  0.00    +0.386 N 
ATOM      7  H   UNL     1       1.887   0.333   0.926  0.00  0.00    -0.081 HD
ENDROOT
BRANCH   1  11
ATOM      8  C   UNL     1      -1.341   2.948  -3.452  0.00  0.00    +0.191 A 
ATOM      9  N   UNL     1      -0.970   4.052  -2.846  0.00  0.00    -0.123 NA
ATOM     10  N   UNL     1      -0.447   3.770  -1.707  0.00  0.00    -0.133 NA
ATOM     11  C   UNL     1      -0.443   2.480  -1.523  0.00  0.00    +0.135 A 
ATOM     12  N   UNL     1      -1.016   1.910  -2.626  0.00  0.00    -0.309 N 
ATOM     13  C   UNL     1      -1.236   0.483  -2.871  0.00  0.00    +0.152 C 
BRANCH   8  14
ATOM     14  S   UNL     1      -2.112   2.828  -5.032  0.00  0.00    -0.086 S 
BRANCH  14  16
ATOM     15  C   UNL     1      -2.854   4.729  -6.848  0.00  0.00    +0.016 C 
ATOM     16  C   UNL     1      -2.201   4.581  -5.472  0.00  0.00    +0.074 C 
ENDBRANCH  14  16
ENDBRANCH   8  14
ENDBRANCH   1  11
BRANCH   6  17
ATOM     17  C   UNL     1       3.549   1.520   1.151  0.00  0.00    +0.019 C 
BRANCH  17  18
ATOM     18  C   UNL     1       4.221   0.805   0.008  0.00  0.00    +0.202 C 
ATOM     19  O   UNL     1       3.564   0.128  -0.755  0.00  0.00    -0.277 OA
ATOM     20  N   UNL     1       5.553   0.917  -0.167  0.00  0.00    -0.266 N 
ATOM     21  C   UNL     1       6.173   0.257  -1.222  0.00  0.00    +0.165 A 
ATOM     22  N   UNL     1       7.449   0.243  -1.555  0.00  0.00    -0.230 NA
ATOM     23  C   UNL     1       7.876  -0.443  -2.597  0.00  0.00    +0.047 A 
ATOM     24  C   UNL     1       6.970  -1.140  -3.327  0.00  0.00    +0.071 A 
ATOM     25  S   UNL     1       5.468  -0.767  -2.434  0.00  0.00    -0.060 S 
ATOM     26  C   UNL     1       9.336  -0.451  -2.969  0.00  0.00    +0.066 C 
ATOM     27  H   UNL     1       6.078   1.458   0.443  0.00  0.00    +0.157 HD
ENDBRANCH  17  18
ENDBRANCH   6  17
TORSDOF 5
