REMARK  Name = ZINC34740289
REMARK  15 active torsions:
REMARK  status: ('A' for Active; 'I' for Inactive)
REMARK    1  A    between atoms: C_1  and  C_2
REMARK    2  A    between atoms: C_2  and  C_3
REMARK    3  A    between atoms: C_2  and  C_4
REMARK    4  A    between atoms: C_4  and  N_5
REMARK    5  A    between atoms: N_5  and  C_6
REMARK    6  A    between atoms: C_6  and  C_7
REMARK    7  A    between atoms: N_10  and  C_22
REMARK    8  A    between atoms: C_12  and  C_14
REMARK    9  A    between atoms: C_18  and  O_20
REMARK   10  A    between atoms: O_20  and  C_21
REMARK   11  A    between atoms: C_22  and  C_23
REMARK   12  A    between atoms: C_28  and  O_29
REMARK   13  A    between atoms: C_30  and  C_32
REMARK   14  A    between atoms: C_32  and  C_33
REMARK   15  A    between atoms: C_32  and  C_34
REMARK                            x       y       z     vdW  Elec       q    Type
REMARK                         _______ _______ _______ _____ _____    ______ ____
ROOT
ATOM      1  C   UNL     1      -4.253  -1.299  -2.873  0.00  0.00    -0.005 C 
ATOM      2  C   UNL     1      -5.228  -0.106  -3.035  0.00  0.00    -0.073 C 
ATOM      3  N   UNL     1      -6.414  -0.722  -3.684  0.00  0.00    +0.383 N 
ATOM      4  C   UNL     1      -5.879  -1.692  -4.664  0.00  0.00    -0.070 C 
ATOM      5  C   UNL     1      -4.481  -2.116  -4.166  0.00  0.00    +0.005 C 
ATOM      6  H   UNL     1      -6.979  -1.198  -2.997  0.00  0.00    -0.081 HD
ENDROOT
BRANCH   5   7
ATOM      7  C   UNL     1      -4.455  -3.592  -3.863  0.00  0.00    -0.042 A 
ATOM      8  C   UNL     1      -5.371  -4.133  -2.980  0.00  0.00    +0.004 A 
ATOM      9  C   UNL     1      -5.349  -5.487  -2.700  0.00  0.00    +0.004 A 
ATOM     10  C   UNL     1      -4.411  -6.303  -3.303  0.00  0.00    +0.045 A 
ATOM     11  C   UNL     1      -3.491  -5.763  -4.189  0.00  0.00    +0.120 A 
ATOM     12  C   UNL     1      -3.519  -4.405  -4.473  0.00  0.00    +0.049 A 
BRANCH  11  13
ATOM     13  O   UNL     1      -2.567  -6.563  -4.783  0.00  0.00    -0.495 OA
ATOM     14  C   UNL     1      -2.601  -7.952  -4.448  0.00  0.00    +0.277 C 
ENDBRANCH  11  13
ENDBRANCH   5   7
BRANCH   1  15
ATOM     15  C   UNL     1      -2.806  -0.808  -2.792  0.00  0.00    +0.110 C 
BRANCH  15  16
ATOM     16  N   UNL     1      -2.604  -0.091  -1.530  0.00  0.00    -0.301 N 
ATOM     17  C   UNL     1      -2.821   1.238  -1.468  0.00  0.00    +0.218 C 
ATOM     18  O   UNL     1      -3.059   1.861  -2.481  0.00  0.00    -0.275 OA
BRANCH  17  19
ATOM     19  C   UNL     1      -2.768   1.949  -0.141  0.00  0.00    +0.069 C 
ATOM     20  C   UNL     1      -1.333   2.399   0.140  0.00  0.00    +0.017 C 
ATOM     21  C   UNL     1      -3.687   3.172  -0.180  0.00  0.00    +0.017 C 
ENDBRANCH  17  19
BRANCH  16  22
ATOM     22  C   UNL     1      -2.167  -0.818  -0.336  0.00  0.00    +0.110 C 
BRANCH  22  24
ATOM     23  C   UNL     1       0.228  -0.444  -0.942  0.00  0.00    +0.009 C 
ATOM     24  C   UNL     1      -0.828  -1.503  -0.618  0.00  0.00    +0.000 C 
ATOM     25  C   UNL     1      -0.392  -2.297   0.615  0.00  0.00    +0.009 C 
ENDBRANCH  22  24
ENDBRANCH  16  22
ENDBRANCH  15  16
ENDBRANCH   1  15
BRANCH   3  26
ATOM     26  C   UNL     1      -7.207   0.306  -4.371  0.00  0.00    -0.039 C 
BRANCH  26  27
ATOM     27  C   UNL     1      -8.467  -0.314  -4.918  0.00  0.00    -0.022 A 
ATOM     28  C   UNL     1      -8.543  -0.662  -6.253  0.00  0.00    +0.005 A 
ATOM     29  C   UNL     1      -9.699  -1.230  -6.755  0.00  0.00    +0.000 A 
ATOM     30  C   UNL     1     -10.782  -1.452  -5.924  0.00  0.00    +0.004 A 
ATOM     31  C   UNL     1     -10.711  -1.106  -4.588  0.00  0.00    +0.045 A 
ATOM     32  C   UNL     1      -9.550  -0.540  -4.080  0.00  0.00    +0.118 A 
BRANCH  32  33
ATOM     33  O   UNL     1      -9.475  -0.204  -2.766  0.00  0.00    -0.507 OA
ATOM     34  H   UNL     1      -9.767   0.698  -2.573  0.00  0.00    +0.292 HD
ENDBRANCH  32  33
ENDBRANCH  26  27
ENDBRANCH   3  26
TORSDOF 10
