REMARK  Name = ZINC09018613
REMARK  12 active torsions:
REMARK  status: ('A' for Active; 'I' for Inactive)
REMARK    1  A    between atoms: C_1  and  C_2
REMARK    2  A    between atoms: C_2  and  O_3
REMARK    3  A    between atoms: O_3  and  C_4
REMARK    4  A    between atoms: C_4  and  C_6
REMARK    5  A    between atoms: C_10  and  N_11
REMARK    6  A    between atoms: C_12  and  C_14
REMARK    7  A    between atoms: C_14  and  C_16
REMARK    8  A    between atoms: C_14  and  S_17
REMARK    9  A    between atoms: S_17  and  C_18
REMARK   10  A    between atoms: C_23  and  C_29
REMARK   11  A    between atoms: C_29  and  C_30
REMARK   12  A    between atoms: C_29  and  C_31
REMARK                            x       y       z     vdW  Elec       q    Type
REMARK                         _______ _______ _______ _____ _____    ______ ____
ROOT
ATOM      1  N   UNL     1      -6.766   6.650   0.340  0.00  0.00    -0.278 N 
ATOM      2  C   UNL     1      -5.491   6.556  -0.086  0.00  0.00    +0.231 C 
ATOM      3  O   UNL     1      -4.809   7.554  -0.183  0.00  0.00    -0.274 OA
ATOM      4  H   UNL     1      -7.311   5.852   0.418  0.00  0.00    +0.155 HD
ENDROOT
BRANCH   1   9
ATOM      5  C   UNL     1      -8.579   8.186   1.114  0.00  0.00    +0.091 A 
ATOM      6  C   UNL     1      -8.884   9.579   1.393  0.00  0.00    -0.021 A 
ATOM      7  C   UNL     1      -7.873  10.445   1.172  0.00  0.00    -0.004 A 
ATOM      8  S   UNL     1      -6.529   9.439   0.610  0.00  0.00    -0.077 S 
ATOM      9  C   UNL     1      -7.298   7.888   0.667  0.00  0.00    +0.086 A 
ATOM     10  C   UNL     1      -7.897  11.931   1.364  0.00  0.00    +0.043 C 
ATOM     11  C   UNL     1      -9.361  12.377   1.494  0.00  0.00    +0.005 C 
ATOM     12  C   UNL     1     -10.069  11.461   2.497  0.00  0.00    +0.005 C 
ATOM     13  C   UNL     1     -10.239  10.065   1.895  0.00  0.00    +0.037 C 
BRANCH   5  14
ATOM     14  C   UNL     1      -9.581   7.135   1.301  0.00  0.00    +0.342 C 
ATOM     15  O   UNL     1      -9.680   6.573   2.375  0.00  0.00    -0.245 OA
BRANCH  14  16
ATOM     16  O   UNL     1     -10.396   6.791   0.283  0.00  0.00    -0.461 OA
BRANCH  16  18
ATOM     17  C   UNL     1     -12.194   5.492  -0.722  0.00  0.00    +0.048 C 
ATOM     18  C   UNL     1     -11.366   5.742   0.540  0.00  0.00    +0.229 C 
ENDBRANCH  16  18
ENDBRANCH  14  16
ENDBRANCH   5  14
ENDBRANCH   1   9
BRANCH   2  19
ATOM     19  C   UNL     1      -4.912   5.211  -0.442  0.00  0.00    +0.137 C 
ATOM     20  C   UNL     1      -5.267   4.870  -1.890  0.00  0.00    +0.029 C 
BRANCH  19  21
ATOM     21  S   UNL     1      -3.109   5.260  -0.256  0.00  0.00    -0.073 S 
BRANCH  21  22
ATOM     22  C   UNL     1      -2.604   3.599  -0.558  0.00  0.00    +0.198 A 
ATOM     23  N   UNL     1      -3.394   2.594  -0.847  0.00  0.00    -0.120 NA
ATOM     24  N   UNL     1      -2.602   1.450  -1.011  0.00  0.00    -0.109 NA
ATOM     25  C   UNL     1      -1.350   1.792  -0.823  0.00  0.00    +0.237 A 
ATOM     26  N   UNL     1      -1.317   3.132  -0.532  0.00  0.00    -0.260 N 
ATOM     27  C   UNL     1      -0.116   3.756  -0.284  0.00  0.00    +0.037 A 
ATOM     28  C   UNL     1       1.031   3.055  -0.321  0.00  0.00    +0.092 A 
ATOM     29  C   UNL     1       1.003   1.669  -0.616  0.00  0.00    +0.253 A 
ATOM     30  O   UNL     1       2.040   1.030  -0.650  0.00  0.00    -0.268 OA
ATOM     31  N   UNL     1      -0.175   1.060  -0.859  0.00  0.00    -0.291 N 
ATOM     32  H   UNL     1      -0.199   0.111  -1.061  0.00  0.00    +0.172 HD
BRANCH  27  33
ATOM     33  C   UNL     1      -0.086   5.230   0.029  0.00  0.00    +0.030 C 
ATOM     34  C   UNL     1      -0.517   5.451   1.481  0.00  0.00    +0.013 C 
ATOM     35  C   UNL     1       1.333   5.765  -0.168  0.00  0.00    +0.013 C 
ENDBRANCH  27  33
ENDBRANCH  21  22
ENDBRANCH  19  21
ENDBRANCH   2  19
TORSDOF 8
