REMARK  Name = ZINC14997135
REMARK  5 active torsions:
REMARK  status: ('A' for Active; 'I' for Inactive)
REMARK    1  A    between atoms: C_15  and  O_18
REMARK    2  A    between atoms: O_18  and  C_19
REMARK    3  A    between atoms: C_19  and  C_20
REMARK    4  A    between atoms: C_26  and  C_29
REMARK    5  A    between atoms: C_29  and  C_31
REMARK                            x       y       z     vdW  Elec       q    Type
REMARK                         _______ _______ _______ _____ _____    ______ ____
ROOT
ATOM      1  C   UNL     1      -1.221   1.761   0.017  0.00  0.00    +0.005 A 
ATOM      2  C   UNL     1      -0.013   1.076   0.008  0.00  0.00    +0.018 A 
ATOM      3  C   UNL     1       1.169   1.789   0.001  0.00  0.00    +0.084 A 
ATOM      4  C   UNL     1       0.033   3.798   0.021  0.00  0.00    +0.099 A 
ATOM      5  C   UNL     1      -1.195   3.144   0.029  0.00  0.00    +0.042 A 
ATOM      6  N   UNL     1       0.073   5.187   0.028  0.00  0.00    -0.314 N 
ATOM      7  C   UNL     1      -0.685   5.742  -1.102  0.00  0.00    +0.125 C 
ATOM      8  C   UNL     1      -0.683   7.270  -1.014  0.00  0.00    +0.125 C 
ATOM      9  N   UNL     1       0.704   7.756  -1.024  0.00  0.00    -0.311 N 
ATOM     10  C   UNL     1       1.462   7.202   0.107  0.00  0.00    +0.125 C 
ATOM     11  C   UNL     1       1.460   5.674   0.018  0.00  0.00    +0.125 C 
ATOM     12  C   UNL     1       0.744   9.149  -1.016  0.00  0.00    +0.144 A 
ATOM     13  C   UNL     1       0.084   9.873  -2.010  0.00  0.00    +0.051 A 
ATOM     14  C   UNL     1       0.153  11.255  -1.960  0.00  0.00    +0.072 A 
ATOM     15  C   UNL     1       0.878  11.836  -0.921  0.00  0.00    +0.235 A 
ATOM     16  N   UNL     1       1.472  11.070  -0.023  0.00  0.00    -0.110 NA
ATOM     17  N   UNL     1       1.404   9.789  -0.065  0.00  0.00    -0.131 NA
ATOM     18  N   UNL     1       1.232   3.147   0.007  0.00  0.00    -0.350 N 
ATOM     19  H   UNL     1       2.126   3.652   0.001  0.00  0.00    +0.166 HD
ENDROOT
BRANCH  15  20
ATOM     20  O   UNL     1       0.973  13.188  -0.831  0.00  0.00    -0.466 OA
BRANCH  20  21
ATOM     21  C   UNL     1       1.732  13.714   0.260  0.00  0.00    +0.326 C 
BRANCH  21  22
ATOM     22  C   UNL     1       1.726  15.219   0.196  0.00  0.00    +0.253 C 
ATOM     23  O   UNL     1       1.131  15.786  -0.696  0.00  0.00    -0.272 OA
ATOM     24  N   UNL     1       2.383  15.936   1.130  0.00  0.00    -0.298 N 
ATOM     25  C   UNL     1       3.108  15.263   2.216  0.00  0.00    +0.108 C 
ATOM     26  C   UNL     1       2.624  15.827   3.555  0.00  0.00    +0.020 C 
ATOM     27  C   UNL     1       2.774  17.350   3.547  0.00  0.00    +0.014 C 
ATOM     28  C   UNL     1       1.910  17.944   2.433  0.00  0.00    +0.078 C 
ATOM     29  C   UNL     1       2.391  17.404   1.077  0.00  0.00    +0.119 C 
BRANCH  28  30
ATOM     30  C   UNL     1       2.033  19.446   2.447  0.00  0.00    +0.174 C 
ATOM     31  O   UNL     1       3.062  19.968   2.828  0.00  0.00    -0.291 OA
BRANCH  30  32
ATOM     32  C   UNL     1       0.952  20.247   2.017  0.00  0.00    +0.055 A 
ATOM     33  C   UNL     1       0.860  21.634   1.951  0.00  0.00    +0.019 A 
ATOM     34  C   UNL     1      -0.318  22.158   1.490  0.00  0.00    +0.008 A 
ATOM     35  C   UNL     1      -1.323  21.316   1.124  0.00  0.00    +0.046 A 
ATOM     36  S   UNL     1      -0.648  19.745   1.409  0.00  0.00    -0.094 S 
ENDBRANCH  30  32
ENDBRANCH  28  30
ENDBRANCH  21  22
ENDBRANCH  20  21
ENDBRANCH  15  20
TORSDOF 5
