REMARK  Name = ZINC39395015
REMARK  6 active torsions:
REMARK  status: ('A' for Active; 'I' for Inactive)
REMARK    1  A    between atoms: C_1  and  O_2
REMARK    2  A    between atoms: O_2  and  C_3
REMARK    3  A    between atoms: C_6  and  C_9
REMARK    4  A    between atoms: C_13  and  C_15
REMARK    5  A    between atoms: C_15  and  N_16
REMARK    6  A    between atoms: C_20  and  N_23
REMARK                            x       y       z     vdW  Elec       q    Type
REMARK                         _______ _______ _______ _____ _____    ______ ____
ROOT
ATOM      1  N   UNL     1       1.539  -6.082  -4.791  0.00  0.00    +0.381 N 
ATOM      2  C   UNL     1       2.348  -6.367  -5.982  0.00  0.00    -0.079 C 
ATOM      3  C   UNL     1       2.709  -7.854  -6.015  0.00  0.00    -0.017 C 
ATOM      4  C   UNL     1       1.423  -8.684  -6.058  0.00  0.00    +0.015 C 
ATOM      5  C   UNL     1       0.554  -8.325  -4.850  0.00  0.00    +0.040 C 
ATOM      6  C   UNL     1       0.273  -6.821  -4.861  0.00  0.00    -0.060 C 
ATOM      7  H   UNL     1       2.047  -6.365  -3.967  0.00  0.00    -0.082 HD
ENDROOT
BRANCH   5   8
ATOM      8  N   UNL     1      -0.715  -9.062  -4.921  0.00  0.00    -0.297 NA
ATOM      9  C   UNL     1      -0.501 -10.502  -4.703  0.00  0.00    +0.089 C 
ATOM     10  C   UNL     1      -1.854 -11.156  -4.423  0.00  0.00    +0.051 C 
ATOM     11  C   UNL     1      -2.848 -10.757  -5.483  0.00  0.00    -0.042 A 
ATOM     12  C   UNL     1      -4.007 -11.506  -5.620  0.00  0.00    +0.004 A 
ATOM     13  C   UNL     1      -4.945 -11.173  -6.576  0.00  0.00    +0.000 A 
ATOM     14  C   UNL     1      -4.728 -10.085  -7.401  0.00  0.00    +0.000 A 
ATOM     15  C   UNL     1      -3.575  -9.339  -7.267  0.00  0.00    +0.005 A 
ATOM     16  C   UNL     1      -2.630  -9.675  -6.309  0.00  0.00    -0.030 A 
ATOM     17  C   UNL     1      -1.381  -8.838  -6.208  0.00  0.00    +0.120 C 
ENDBRANCH   5   8
BRANCH   1  18
ATOM     18  C   UNL     1       1.261  -4.641  -4.723  0.00  0.00    -0.063 C 
BRANCH  18  23
ATOM     19  C   UNL     1       0.179  -2.853  -3.343  0.00  0.00    +0.077 C 
ATOM     20  N   UNL     1       0.825  -2.359  -2.322  0.00  0.00    -0.153 NA
ATOM     21  N   UNL     1       1.606  -3.315  -1.682  0.00  0.00    -0.161 NA
ATOM     22  C   UNL     1       1.519  -4.479  -2.239  0.00  0.00    +0.115 C 
ATOM     23  C   UNL     1       0.560  -4.319  -3.401  0.00  0.00    +0.066 C 
BRANCH  19  27
ATOM     24  C   UNL     1      -2.457  -0.788  -5.947  0.00  0.00    +0.120 A 
ATOM     25  C   UNL     1      -1.841  -0.108  -4.903  0.00  0.00    +0.046 A 
ATOM     26  C   UNL     1      -0.984  -0.773  -4.055  0.00  0.00    +0.013 A 
ATOM     27  C   UNL     1      -0.735  -2.138  -4.245  0.00  0.00    -0.001 A 
ATOM     28  C   UNL     1      -1.358  -2.818  -5.297  0.00  0.00    +0.013 A 
ATOM     29  C   UNL     1      -2.217  -2.144  -6.137  0.00  0.00    +0.046 A 
BRANCH  24  31
ATOM     30  C   UNL     1      -3.502   1.265  -6.529  0.00  0.00    +0.277 C 
ATOM     31  O   UNL     1      -3.300  -0.127  -6.781  0.00  0.00    -0.495 OA
ENDBRANCH  24  31
ENDBRANCH  19  27
ENDBRANCH  18  23
ENDBRANCH   1  18
TORSDOF 5
