REMARK  Name = ZINC47617310
REMARK  6 active torsions:
REMARK  status: ('A' for Active; 'I' for Inactive)
REMARK    1  A    between atoms: C_7  and  N_12
REMARK    2  A    between atoms: N_15  and  C_16
REMARK    3  A    between atoms: C_16  and  C_17
REMARK    4  A    between atoms: C_17  and  C_18
REMARK    5  A    between atoms: C_21  and  S_24
REMARK    6  A    between atoms: S_24  and  N_27
REMARK                            x       y       z     vdW  Elec       q    Type
REMARK                         _______ _______ _______ _____ _____    ______ ____
ROOT
ATOM      1  N   UNL     1       0.148  -2.670  -0.926  0.00  0.00    -0.292 N 
ATOM      2  C   UNL     1      -1.127  -2.780  -0.501  0.00  0.00    +0.300 C 
ATOM      3  O   UNL     1      -1.414  -2.485   0.643  0.00  0.00    -0.253 OA
ATOM      4  N   UNL     1      -2.083  -3.217  -1.345  0.00  0.00    -0.299 N 
ATOM      5  H   UNL     1       0.377  -2.905  -1.839  0.00  0.00    +0.151 HD
ATOM      6  H   UNL     1      -1.854  -3.453  -2.257  0.00  0.00    +0.150 HD
ENDROOT
BRANCH   1  13
ATOM      7  C   UNL     1      -0.017   1.377   0.010  0.00  0.00    +0.001 A 
ATOM      8  C   UNL     1       1.172   2.084   0.002  0.00  0.00    +0.004 A 
ATOM      9  C   UNL     1       2.375   1.409  -0.015  0.00  0.00    +0.046 A 
ATOM     10  C   UNL     1       2.398   0.018  -0.024  0.00  0.00    +0.125 A 
ATOM     11  C   UNL     1       1.207  -0.687  -0.012  0.00  0.00    +0.015 A 
ATOM     12  C   UNL     1       0.002  -0.004   0.002  0.00  0.00    +0.009 A 
ATOM     13  C   UNL     1       1.187  -2.194  -0.010  0.00  0.00    +0.111 C 
ATOM     14  C   UNL     1       2.548  -2.729  -0.463  0.00  0.00    +0.068 C 
ATOM     15  C   UNL     1       3.641  -1.990   0.320  0.00  0.00    +0.231 C 
ATOM     16  O   UNL     1       3.602  -0.610  -0.046  0.00  0.00    -0.492 OA
ENDBRANCH   1  13
BRANCH   4  17
ATOM     17  C   UNL     1      -3.468  -3.337  -0.883  0.00  0.00    +0.110 C 
BRANCH  17  18
ATOM     18  C   UNL     1      -4.344  -3.851  -2.027  0.00  0.00    +0.054 C 
BRANCH  18  19
ATOM     19  C   UNL     1      -5.769  -3.975  -1.552  0.00  0.00    -0.046 A 
ATOM     20  C   UNL     1      -6.209  -5.157  -0.985  0.00  0.00    +0.005 A 
ATOM     21  C   UNL     1      -7.516  -5.270  -0.549  0.00  0.00    +0.029 A 
ATOM     22  C   UNL     1      -8.383  -4.201  -0.679  0.00  0.00    +0.105 A 
ATOM     23  C   UNL     1      -7.943  -3.019  -1.245  0.00  0.00    +0.029 A 
ATOM     24  C   UNL     1      -6.635  -2.905  -1.677  0.00  0.00    +0.005 A 
BRANCH  22  25
ATOM     25  S   UNL     1     -10.049  -4.346  -0.125  0.00  0.00    +0.056 S 
ATOM     26  O   UNL     1     -10.805  -3.391  -0.857  0.00  0.00    -0.153 OA
ATOM     27  O   UNL     1     -10.361  -5.732  -0.133  0.00  0.00    -0.153 OA
BRANCH  25  28
ATOM     28  N   UNL     1     -10.082  -3.863   1.459  0.00  0.00    -0.204 NA
ATOM     29  H   UNL     1     -10.882  -3.455   1.825  0.00  0.00    +0.144 HD
ATOM     30  H   UNL     1      -9.301  -3.988   2.020  0.00  0.00    +0.144 HD
ENDBRANCH  25  28
ENDBRANCH  22  25
ENDBRANCH  18  19
ENDBRANCH  17  18
ENDBRANCH   4  17
TORSDOF 6
