REMARK  Name = ZINC19955491
REMARK  14 active torsions:
REMARK  status: ('A' for Active; 'I' for Inactive)
REMARK    1  A    between atoms: C_1  and  C_2
REMARK    2  A    between atoms: C_3  and  C_8
REMARK    3  A    between atoms: N_5  and  C_7
REMARK    4  A    between atoms: C_8  and  N_9
REMARK    5  A    between atoms: N_9  and  C_10
REMARK    6  A    between atoms: N_9  and  C_11
REMARK    7  A    between atoms: C_11  and  C_13
REMARK    8  A    between atoms: C_11  and  C_21
REMARK    9  A    between atoms: C_13  and  C_14
REMARK   10  A    between atoms: N_24  and  C_27
REMARK   11  A    between atoms: C_27  and  C_28
REMARK   12  A    between atoms: C_30  and  O_35
REMARK   13  A    between atoms: C_33  and  O_34
REMARK   14  A    between atoms: O_35  and  C_36
REMARK                            x       y       z     vdW  Elec       q    Type
REMARK                         _______ _______ _______ _____ _____    ______ ____
ROOT
ATOM      1  C   UNL     1       5.886   2.969   5.235  0.00  0.00    +0.064 C 
ENDROOT
BRANCH   1   2
ATOM      2  C   UNL     1       5.714   3.317   3.755  0.00  0.00    +0.003 C 
ATOM      3  C   UNL     1       6.416   4.645   3.457  0.00  0.00    -0.014 C 
ATOM      4  C   UNL     1       6.190   5.018   1.990  0.00  0.00    -0.078 C 
ATOM      5  N   UNL     1       4.750   5.136   1.730  0.00  0.00    +0.382 N 
ATOM      6  C   UNL     1       4.062   3.860   1.964  0.00  0.00    -0.078 C 
ATOM      7  C   UNL     1       4.224   3.453   3.430  0.00  0.00    -0.014 C 
ATOM      8  H   UNL     1       4.340   5.872   2.438  0.00  0.00    -0.081 HD
BRANCH   5   9
ATOM      9  C   UNL     1       4.499   5.628   0.369  0.00  0.00    -0.039 C 
BRANCH   9  10
ATOM     10  C   UNL     1       3.031   5.504   0.052  0.00  0.00    -0.019 A 
ATOM     11  C   UNL     1       2.230   6.630   0.043  0.00  0.00    +0.051 A 
ATOM     12  C   UNL     1       0.878   6.516  -0.248  0.00  0.00    +0.121 A 
ATOM     13  C   UNL     1       0.333   5.273  -0.535  0.00  0.00    +0.049 A 
ATOM     14  C   UNL     1       1.133   4.148  -0.521  0.00  0.00    +0.049 A 
ATOM     15  C   UNL     1       2.485   4.261  -0.229  0.00  0.00    +0.118 A 
BRANCH  15  16
ATOM     16  O   UNL     1       3.274   3.154  -0.220  0.00  0.00    -0.507 OA
ATOM     17  H   UNL     1       2.840   2.168  -0.443  0.00  0.00    +0.292 HD
ENDBRANCH  15  16
BRANCH  12  18
ATOM     18  O   UNL     1       0.089   7.623  -0.257  0.00  0.00    -0.495 OA
ATOM     19  C   UNL     1      -1.293   7.432  -0.565  0.00  0.00    +0.277 C 
ENDBRANCH  12  18
ENDBRANCH   9  10
ENDBRANCH   5   9
ENDBRANCH   1   2
BRANCH   1  20
ATOM     20  N   UNL     1       5.249   1.674   5.510  0.00  0.00    -0.298 NA
ATOM     21  C   UNL     1       5.394   0.762   4.368  0.00  0.00    +0.105 C 
BRANCH  20  22
ATOM     22  C   UNL     1       3.835   1.849   5.867  0.00  0.00    +0.123 C 
BRANCH  22  25
ATOM     23  C   UNL     1       4.476   0.939   8.834  0.00  0.00    +0.068 C 
ATOM     24  C   UNL     1       3.611   0.197   7.849  0.00  0.00    +0.064 A 
ATOM     25  C   UNL     1       3.328   0.599   6.540  0.00  0.00    +0.007 A 
ATOM     26  C   UNL     1       2.524  -0.335   5.982  0.00  0.00    +0.113 A 
ATOM     27  N   UNL     1       2.301  -1.292   6.907  0.00  0.00    -0.274 N 
ATOM     28  N   UNL     1       2.991  -0.933   8.072  0.00  0.00    -0.176 NA
ATOM     29  C   UNL     1       1.482  -2.493   6.725  0.00  0.00    +0.172 C 
ENDBRANCH  22  25
ENDBRANCH  20  22
ENDBRANCH   1  20
BRANCH   1  30
ATOM     30  C   UNL     1       7.377   2.885   5.569  0.00  0.00    +0.054 C 
BRANCH  30  31
ATOM     31  C   UNL     1       7.548   2.650   7.048  0.00  0.00    -0.046 A 
ATOM     32  C   UNL     1       7.507   3.717   7.926  0.00  0.00    +0.006 A 
ATOM     33  C   UNL     1       7.659   3.502   9.283  0.00  0.00    +0.038 A 
ATOM     34  C   UNL     1       7.862   2.219   9.761  0.00  0.00    +0.123 A 
ATOM     35  C   UNL     1       7.908   1.151   8.880  0.00  0.00    +0.038 A 
ATOM     36  C   UNL     1       7.751   1.368   7.525  0.00  0.00    +0.006 A 
ATOM     37  F   UNL     1       8.015   2.008  11.087  0.00  0.00    -0.205 F 
ENDBRANCH  30  31
ENDBRANCH   1  30
TORSDOF 10
