REMARK  Name = ZINC36360042
REMARK  6 active torsions:
REMARK  status: ('A' for Active; 'I' for Inactive)
REMARK    1  A    between atoms: C_4  and  C_7
REMARK    2  A    between atoms: C_7  and  N_8
REMARK    3  A    between atoms: C_15  and  C_16
REMARK    4  A    between atoms: N_18  and  C_19
REMARK    5  A    between atoms: C_19  and  C_20
REMARK    6  A    between atoms: C_20  and  C_21
REMARK                            x       y       z     vdW  Elec       q    Type
REMARK                         _______ _______ _______ _____ _____    ______ ____
ROOT
ATOM      1  C   UNL     1       3.289  -3.162   1.800  0.00  0.00    +0.261 C 
ATOM      2  O   UNL     1       3.097  -4.021   2.641  0.00  0.00    -0.269 OA
ATOM      3  N   UNL     1       2.814  -3.325   0.549  0.00  0.00    -0.310 N 
ATOM      4  H   UNL     1       2.893  -2.606  -0.097  0.00  0.00    +0.149 HD
ENDROOT
BRANCH   1  12
ATOM      5  N   UNL     1       4.452  -0.974   1.263  0.00  0.00    -0.329 N 
ATOM      6  C   UNL     1       5.114  -0.002   1.967  0.00  0.00    +0.088 A 
ATOM      7  C   UNL     1       5.798   1.233   1.889  0.00  0.00    +0.067 A 
ATOM      8  C   UNL     1       6.181   1.554   3.138  0.00  0.00    +0.198 A 
ATOM      9  O   UNL     1       5.777   0.596   3.990  0.00  0.00    -0.461 OA
ATOM     10  C   UNL     1       5.122  -0.370   3.309  0.00  0.00    +0.153 A 
ATOM     11  C   UNL     1       4.449  -1.592   3.412  0.00  0.00    +0.079 A 
ATOM     12  C   UNL     1       4.037  -1.951   2.147  0.00  0.00    +0.109 A 
BRANCH   5  13
ATOM     13  C   UNL     1       4.218  -0.975  -0.183  0.00  0.00    +0.157 C 
BRANCH  13  17
ATOM     14  C   UNL     1       0.651   1.209  -1.052  0.00  0.00    +0.000 A 
ATOM     15  C   UNL     1       1.834   1.884  -0.816  0.00  0.00    +0.000 A 
ATOM     16  C   UNL     1       2.988   1.177  -0.534  0.00  0.00    +0.005 A 
ATOM     17  C   UNL     1       2.959  -0.204  -0.489  0.00  0.00    -0.028 A 
ATOM     18  C   UNL     1       1.776  -0.879  -0.724  0.00  0.00    +0.005 A 
ATOM     19  C   UNL     1       0.622  -0.172  -1.007  0.00  0.00    +0.000 A 
ENDBRANCH  13  17
ENDBRANCH   5  13
ENDBRANCH   1  12
BRANCH   3  20
ATOM     20  C   UNL     1       2.178  -4.588   0.166  0.00  0.00    +0.109 C 
BRANCH  20  21
ATOM     21  C   UNL     1       1.731  -4.511  -1.295  0.00  0.00    +0.056 C 
BRANCH  21  22
ATOM     22  C   UNL     1       1.077  -5.810  -1.689  0.00  0.00    -0.021 A 
ATOM     23  C   UNL     1       1.671  -6.853  -2.291  0.00  0.00    +0.087 A 
ATOM     24  N   UNL     1       0.761  -7.856  -2.492  0.00  0.00    -0.360 N 
ATOM     25  H   UNL     1       0.956  -8.709  -2.911  0.00  0.00    +0.165 HD
ATOM     26  C   UNL     1      -0.471  -7.473  -2.012  0.00  0.00    +0.047 A 
ATOM     27  C   UNL     1      -0.326  -6.178  -1.482  0.00  0.00    +0.003 A 
ATOM     28  C   UNL     1      -1.425  -5.531  -0.913  0.00  0.00    +0.010 A 
ATOM     29  C   UNL     1      -2.636  -6.161  -0.871  0.00  0.00    +0.001 A 
ATOM     30  C   UNL     1      -2.784  -7.441  -1.389  0.00  0.00    +0.002 A 
ATOM     31  C   UNL     1      -1.715  -8.094  -1.963  0.00  0.00    +0.026 A 
ENDBRANCH  21  22
ENDBRANCH  20  21
ENDBRANCH   3  20
TORSDOF 6
