REMARK  Name = ZINC65306057
REMARK  8 active torsions:
REMARK  status: ('A' for Active; 'I' for Inactive)
REMARK    1  A    between atoms: C_1  and  C_2
REMARK    2  A    between atoms: C_2  and  C_3
REMARK    3  A    between atoms: C_3  and  C_4
REMARK    4  A    between atoms: C_4  and  C_6
REMARK    5  A    between atoms: C_4  and  N_18
REMARK    6  A    between atoms: N_8  and  C_9
REMARK    7  A    between atoms: C_19  and  C_21
REMARK    8  A    between atoms: C_24  and  C_27
REMARK                            x       y       z     vdW  Elec       q    Type
REMARK                         _______ _______ _______ _____ _____    ______ ____
ROOT
ATOM      1  C   UNL     1       0.763  -2.041   1.233  0.00  0.00    +0.159 C 
ENDROOT
BRANCH   1   2
ATOM      2  C   UNL     1       1.596  -2.538   2.386  0.00  0.00    +0.236 C 
ATOM      3  O   UNL     1       1.096  -3.247   3.234  0.00  0.00    -0.274 OA
ATOM      4  N   UNL     1       2.896  -2.195   2.476  0.00  0.00    -0.277 N 
ATOM      5  H   UNL     1       3.296  -1.629   1.798  0.00  0.00    +0.152 HD
BRANCH   4   6
ATOM      6  C   UNL     1       3.705  -2.679   3.597  0.00  0.00    +0.269 C 
ATOM      7  N   UNL     1       3.420  -1.890   4.802  0.00  0.00    -0.348 N 
ATOM      8  C   UNL     1       4.530  -1.317   5.167  0.00  0.00    +0.061 A 
ATOM      9  C   UNL     1       4.873  -0.420   6.279  0.00  0.00    +0.027 A 
ATOM     10  C   UNL     1       6.139   0.026   6.407  0.00  0.00    +0.002 A 
ATOM     11  C   UNL     1       7.163  -0.332   5.512  0.00  0.00    +0.002 A 
ATOM     12  C   UNL     1       6.957  -1.148   4.460  0.00  0.00    +0.027 A 
ATOM     13  C   UNL     1       5.614  -1.697   4.220  0.00  0.00    +0.061 A 
ATOM     14  N   UNL     1       5.132  -2.490   3.307  0.00  0.00    -0.348 N 
ATOM     15  H   UNL     1       2.560  -1.811   5.245  0.00  0.00    +0.163 HD
ATOM     16  H   UNL     1       5.625  -2.883   2.570  0.00  0.00    +0.163 HD
ENDBRANCH   4   6
ENDBRANCH   1   2
BRANCH   1  17
ATOM     17  N   UNL     1      -0.605  -2.548   1.364  0.00  0.00    -0.300 N 
ATOM     18  C   UNL     1      -1.382  -2.682   0.271  0.00  0.00    +0.245 C 
ATOM     19  O   UNL     1      -0.947  -2.381  -0.824  0.00  0.00    -0.270 OA
ATOM     20  H   UNL     1      -0.952  -2.789   2.237  0.00  0.00    +0.150 HD
BRANCH  18  21
ATOM     21  C   UNL     1      -2.762  -3.194   0.402  0.00  0.00    +0.037 A 
ATOM     22  C   UNL     1      -3.266  -3.535   1.659  0.00  0.00    +0.013 A 
ATOM     23  C   UNL     1      -4.556  -4.012   1.775  0.00  0.00    +0.004 A 
ATOM     24  C   UNL     1      -5.348  -4.153   0.650  0.00  0.00    -0.050 A 
ATOM     25  C   UNL     1      -4.855  -3.817  -0.599  0.00  0.00    +0.004 A 
ATOM     26  C   UNL     1      -3.569  -3.333  -0.728  0.00  0.00    +0.013 A 
ATOM     27  C   UNL     1      -6.756  -4.675   0.784  0.00  0.00    +0.044 C 
ENDBRANCH  18  21
ENDBRANCH   1  17
BRANCH   1  28
ATOM     28  C   UNL     1       0.742  -0.511   1.242  0.00  0.00    +0.031 C 
BRANCH  28  30
ATOM     29  C   UNL     1      -0.019   1.526   0.010  0.00  0.00    +0.004 C 
ATOM     30  C   UNL     1       0.002  -0.004   0.002  0.00  0.00    -0.001 C 
ENDBRANCH  28  30
ENDBRANCH   1  28
TORSDOF 6
