REMARK  Name = ZINC01062992
REMARK  9 active torsions:
REMARK  status: ('A' for Active; 'I' for Inactive)
REMARK    1  A    between atoms: C_1  and  C_2
REMARK    2  A    between atoms: C_5  and  N_9
REMARK    3  A    between atoms: C_6  and  C_8
REMARK    4  A    between atoms: C_10  and  C_12
REMARK    5  A    between atoms: C_13  and  C_34
REMARK    6  A    between atoms: C_18  and  C_20
REMARK    7  A    between atoms: C_23  and  O_26
REMARK    8  A    between atoms: O_26  and  C_27
REMARK    9  A    between atoms: C_27  and  C_28
REMARK                            x       y       z     vdW  Elec       q    Type
REMARK                         _______ _______ _______ _____ _____    ______ ____
ROOT
ATOM      1  C   UNL     1      -2.757   4.382   7.164  0.00  0.00    +0.056 C 
ATOM      2  C   UNL     1      -2.260   4.811   8.343  0.00  0.00    +0.017 C 
ATOM      3  N   UNL     1      -3.089   5.182   9.364  0.00  0.00    -0.300 N 
ATOM      4  C   UNL     1      -4.425   5.140   9.288  0.00  0.00    +0.135 C 
ATOM      5  S   UNL     1      -5.347   5.627  10.645  0.00  0.00    -0.019 S 
ATOM      6  N   UNL     1      -5.067   4.728   8.177  0.00  0.00    -0.315 N 
ATOM      7  C   UNL     1      -4.263   4.312   7.016  0.00  0.00    +0.139 C 
ATOM      8  C   UNL     1      -0.768   4.889   8.535  0.00  0.00    +0.061 C 
ATOM      9  H   UNL     1      -2.687   5.488  10.192  0.00  0.00    +0.154 HD
ATOM     10  H   UNL     1      -6.037   4.706   8.143  0.00  0.00    +0.149 HD
ENDROOT
BRANCH   7  11
ATOM     11  C   UNL     1      -4.655   5.178   5.846  0.00  0.00    -0.022 A 
ATOM     12  C   UNL     1      -4.655   6.554   5.975  0.00  0.00    +0.009 A 
ATOM     13  C   UNL     1      -5.008   7.350   4.903  0.00  0.00    +0.046 A 
ATOM     14  C   UNL     1      -5.376   6.767   3.699  0.00  0.00    +0.121 A 
ATOM     15  C   UNL     1      -5.381   5.385   3.573  0.00  0.00    +0.046 A 
ATOM     16  C   UNL     1      -5.020   4.594   4.647  0.00  0.00    +0.009 A 
BRANCH  14  17
ATOM     17  O   UNL     1      -5.730   7.547   2.644  0.00  0.00    -0.487 OA
BRANCH  17  18
ATOM     18  C   UNL     1      -5.702   8.962   2.845  0.00  0.00    +0.264 C 
BRANCH  18  19
ATOM     19  C   UNL     1      -6.122   9.658   1.577  0.00  0.00    -0.010 A 
ATOM     20  C   UNL     1      -5.174  10.011   0.635  0.00  0.00    +0.007 A 
ATOM     21  C   UNL     1      -5.560  10.645  -0.531  0.00  0.00    +0.000 A 
ATOM     22  C   UNL     1      -6.893  10.937  -0.750  0.00  0.00    +0.000 A 
ATOM     23  C   UNL     1      -7.841  10.588   0.194  0.00  0.00    +0.000 A 
ATOM     24  C   UNL     1      -7.456   9.949   1.357  0.00  0.00    +0.007 A 
ENDBRANCH  18  19
ENDBRANCH  17  18
ENDBRANCH  14  17
ENDBRANCH   7  11
BRANCH   1  26
ATOM     25  N   UNL     1      -1.400   4.941   5.272  0.00  0.00    -0.281 N 
ATOM     26  C   UNL     1      -1.898   4.003   6.103  0.00  0.00    +0.248 C 
ATOM     27  O   UNL     1      -1.610   2.831   5.941  0.00  0.00    -0.270 OA
ATOM     28  H   UNL     1      -1.553   5.881   5.454  0.00  0.00    +0.155 HD
BRANCH  25  33
ATOM     29  C   UNL     1       1.587   3.386   0.707  0.00  0.00    +0.044 C 
ATOM     30  C   UNL     1       0.793   3.799   1.920  0.00  0.00    -0.050 A 
ATOM     31  C   UNL     1       0.832   3.026   3.066  0.00  0.00    +0.005 A 
ATOM     32  C   UNL     1       0.106   3.401   4.179  0.00  0.00    +0.024 A 
ATOM     33  C   UNL     1      -0.664   4.557   4.146  0.00  0.00    +0.037 A 
ATOM     34  C   UNL     1      -0.701   5.331   2.994  0.00  0.00    -0.029 A 
ATOM     35  C   UNL     1       0.032   4.952   1.886  0.00  0.00    +0.008 A 
ATOM     36  C   UNL     1      -1.535   6.585   2.954  0.00  0.00    +0.045 C 
ENDBRANCH  25  33
ENDBRANCH   1  26
TORSDOF 6
