REMARK  Name = ZINC04847813
REMARK  11 active torsions:
REMARK  status: ('A' for Active; 'I' for Inactive)
REMARK    1  A    between atoms: C_1  and  C_2
REMARK    2  A    between atoms: C_2  and  C_3
REMARK    3  A    between atoms: C_3  and  C_4
REMARK    4  A    between atoms: C_3  and  C_5
REMARK    5  A    between atoms: C_3  and  N_6
REMARK    6  A    between atoms: C_7  and  C_11
REMARK    7  A    between atoms: C_11  and  C_13
REMARK    8  A    between atoms: C_11  and  N_59
REMARK    9  A    between atoms: C_16  and  O_21
REMARK   10  A    between atoms: C_17  and  O_19
REMARK   11  A    between atoms: O_19  and  C_20
REMARK                            x       y       z     vdW  Elec       q    Type
REMARK                         _______ _______ _______ _____ _____    ______ ____
ROOT
ATOM      1  C   UNL     1       0.043   1.145  -0.163  0.00  0.00    +0.034 C 
ENDROOT
BRANCH   1  11
ATOM      2  C   UNL     1      -1.838   0.298  -1.434  0.00  0.00    -0.072 C 
ATOM      3  C   UNL     1      -2.661   0.593  -2.688  0.00  0.00    +0.017 C 
ATOM      4  C   UNL     1      -1.792   0.477  -3.914  0.00  0.00    -0.048 A 
ATOM      5  C   UNL     1      -2.405   0.355  -5.152  0.00  0.00    +0.004 A 
ATOM      6  C   UNL     1      -1.646   0.249  -6.299  0.00  0.00    +0.000 A 
ATOM      7  C   UNL     1      -0.266   0.265  -6.215  0.00  0.00    +0.000 A 
ATOM      8  C   UNL     1       0.346   0.385  -4.984  0.00  0.00    +0.002 A 
ATOM      9  C   UNL     1      -0.416   0.489  -3.829  0.00  0.00    -0.061 A 
ATOM     10  C   UNL     1       0.298   0.610  -2.508  0.00  0.00    -0.041 C 
ATOM     11  N   UNL     1      -0.622   1.135  -1.485  0.00  0.00    +0.392 N 
ATOM     12  H   UNL     1      -0.887   2.096  -1.734  0.00  0.00    -0.080 HD
ENDBRANCH   1  11
BRANCH   1  13
ATOM     13  C   UNL     1      -0.849   1.847   0.829  0.00  0.00    -0.050 A 
ATOM     14  C   UNL     1      -1.428   3.058   0.498  0.00  0.00    +0.006 A 
ATOM     15  C   UNL     1      -2.252   3.703   1.402  0.00  0.00    +0.049 A 
ATOM     16  C   UNL     1      -2.489   3.142   2.647  0.00  0.00    +0.158 A 
ATOM     17  C   UNL     1      -1.901   1.926   2.981  0.00  0.00    +0.161 A 
ATOM     18  C   UNL     1      -1.081   1.282   2.068  0.00  0.00    +0.051 A 
BRANCH  17  19
ATOM     19  O   UNL     1      -2.131   1.370   4.201  0.00  0.00    -0.491 OA
ATOM     20  C   UNL     1      -1.495   0.120   4.475  0.00  0.00    +0.277 C 
ENDBRANCH  17  19
BRANCH  16  21
ATOM     21  O   UNL     1      -3.294   3.778   3.539  0.00  0.00    -0.503 OA
ATOM     22  H   UNL     1      -2.827   4.390   4.124  0.00  0.00    +0.292 HD
ENDBRANCH  16  21
ENDBRANCH   1  13
BRANCH   1  24
ATOM     23  N   UNL     1       2.559   1.446   0.127  0.00  0.00    -0.225 N 
ATOM     24  C   UNL     1       1.351   1.885  -0.273  0.00  0.00    +0.143 A 
ATOM     25  N   UNL     1       1.533   3.084  -0.772  0.00  0.00    -0.115 NA
ATOM     26  N   UNL     1       2.788   3.364  -0.688  0.00  0.00    -0.023 NA
ATOM     27  N   UNL     1       3.411   2.375  -0.148  0.00  0.00    -0.043 NA
BRANCH  23  28
ATOM     28  C   UNL     1       2.852   0.155   0.754  0.00  0.00    +0.061 C 
ATOM     29  C   UNL     1       2.042   0.019   2.045  0.00  0.00    +0.036 C 
ATOM     30  C   UNL     1       2.474  -0.975  -0.206  0.00  0.00    +0.036 C 
BRANCH  28  32
ATOM     31  C   UNL     1       4.650  -1.277   1.732  0.00  0.00    +0.006 C 
ATOM     32  C   UNL     1       4.345   0.071   1.078  0.00  0.00    +0.026 C 
ENDBRANCH  28  32
ENDBRANCH  23  28
ENDBRANCH   1  24
TORSDOF 7
