REMARK  Name = ZINC39659749
REMARK  4 active torsions:
REMARK  status: ('A' for Active; 'I' for Inactive)
REMARK    1  A    between atoms: C_4  and  C_31
REMARK    2  A    between atoms: C_5  and  C_7
REMARK    3  A    between atoms: C_11  and  C_20
REMARK    4  A    between atoms: N_22  and  C_23
REMARK                            x       y       z     vdW  Elec       q    Type
REMARK                         _______ _______ _______ _____ _____    ______ ____
ROOT
ATOM      1  C   UNL     1       1.187  -1.958  -0.100  0.00  0.00    +0.247 C 
ATOM      2  O   UNL     1       2.272  -2.506  -0.125  0.00  0.00    -0.270 OA
ATOM      3  N   UNL     1       0.067  -2.689   0.061  0.00  0.00    -0.296 N 
ATOM      4  C   UNL     1      -1.338  -2.219   0.024  0.00  0.00    +0.121 C 
ATOM      5  C   UNL     1      -2.104  -3.335  -0.720  0.00  0.00    +0.100 C 
ATOM      6  C   UNL     1      -1.248  -4.597  -0.522  0.00  0.00    -0.004 C 
ATOM      7  C   UNL     1      -0.040  -4.147   0.311  0.00  0.00    +0.115 C 
ATOM      8  C   UNL     1      -0.780  -5.135  -1.871  0.00  0.00    -0.010 C 
ATOM      9  C   UNL     1       0.022  -6.422  -1.652  0.00  0.00    -0.082 C 
ATOM     10  N   UNL     1      -0.819  -7.414  -0.972  0.00  0.00    +0.379 N 
ATOM     11  C   UNL     1      -1.189  -6.927   0.363  0.00  0.00    -0.082 C 
ATOM     12  C   UNL     1      -2.041  -5.662   0.229  0.00  0.00    -0.010 C 
ATOM     13  H   UNL     1      -1.655  -7.573  -1.514  0.00  0.00    -0.086 HD
ATOM     14  H   UNL     1      -0.310  -8.281  -0.883  0.00  0.00    -0.086 HD
ENDROOT
BRANCH   1  19
ATOM     15  C   UNL     1       0.150   1.614   0.420  0.00  0.00    +0.001 A 
ATOM     16  C   UNL     1       0.928   2.260  -0.524  0.00  0.00    +0.001 A 
ATOM     17  C   UNL     1       1.790   1.539  -1.330  0.00  0.00    +0.013 A 
ATOM     18  C   UNL     1       1.879   0.169  -1.198  0.00  0.00    +0.067 A 
ATOM     19  C   UNL     1       1.097  -0.490  -0.247  0.00  0.00    +0.049 A 
ATOM     20  C   UNL     1       0.230   0.244   0.563  0.00  0.00    +0.013 A 
BRANCH  18  21
ATOM     21  C   UNL     1       2.818  -0.616  -2.078  0.00  0.00    +0.418 C 
ATOM     22  F   UNL     1       3.486   0.258  -2.942  0.00  0.00    -0.166 F 
ATOM     23  F   UNL     1       3.751  -1.288  -1.282  0.00  0.00    -0.166 F 
ATOM     24  F   UNL     1       2.088  -1.546  -2.826  0.00  0.00    -0.166 F 
ENDBRANCH  18  21
ENDBRANCH   1  19
BRANCH   5  25
ATOM     25  C   UNL     1      -3.471  -3.526  -0.116  0.00  0.00    +0.218 C 
ATOM     26  O   UNL     1      -3.647  -3.318   1.066  0.00  0.00    -0.275 OA
ATOM     27  N   UNL     1      -4.500  -3.928  -0.889  0.00  0.00    -0.312 N 
ATOM     28  H   UNL     1      -4.360  -4.095  -1.835  0.00  0.00    +0.149 HD
BRANCH  27  29
ATOM     29  C   UNL     1      -5.829  -4.113  -0.302  0.00  0.00    +0.073 C 
ATOM     30  C   UNL     1      -6.565  -2.772  -0.274  0.00  0.00    +0.022 C 
ATOM     31  C   UNL     1      -8.058  -3.015  -0.044  0.00  0.00    +0.002 C 
ATOM     32  C   UNL     1      -8.298  -3.362   1.427  0.00  0.00    +0.000 C 
ATOM     33  C   UNL     1      -7.859  -4.803   1.690  0.00  0.00    +0.000 C 
ATOM     34  C   UNL     1      -8.356  -5.703   0.557  0.00  0.00    +0.000 C 
ATOM     35  C   UNL     1      -7.160  -6.227  -0.241  0.00  0.00    +0.002 C 
ATOM     36  C   UNL     1      -6.623  -5.114  -1.144  0.00  0.00    +0.022 C 
ENDBRANCH  27  29
ENDBRANCH   5  25
TORSDOF 4
