REMARK  Name = ZINC21259059
REMARK  8 active torsions:
REMARK  status: ('A' for Active; 'I' for Inactive)
REMARK    1  A    between atoms: C_1  and  C_2
REMARK    2  A    between atoms: C_2  and  C_3
REMARK    3  A    between atoms: C_2  and  O_4
REMARK    4  A    between atoms: O_4  and  C_5
REMARK    5  A    between atoms: C_10  and  C_11
REMARK    6  A    between atoms: C_16  and  C_21
REMARK    7  A    between atoms: C_25  and  O_27
REMARK    8  A    between atoms: O_27  and  C_28
REMARK                            x       y       z     vdW  Elec       q    Type
REMARK                         _______ _______ _______ _____ _____    ______ ____
ROOT
ATOM      1  C   UNL     1      -1.259  -1.224  -1.072  0.00  0.00    +0.139 C 
ATOM      2  C   UNL     1      -0.191  -2.289  -1.097  0.00  0.00    +0.037 C 
ATOM      3  C   UNL     1       1.042  -2.183  -0.571  0.00  0.00    +0.017 C 
ATOM      4  C   UNL     1       2.019  -3.344  -0.654  0.00  0.00    +0.059 C 
ATOM      5  C   UNL     1       1.786  -4.129  -1.944  0.00  0.00    +0.032 C 
ATOM      6  C   UNL     1       0.343  -4.647  -1.921  0.00  0.00    +0.088 C 
ATOM      7  C   UNL     1      -0.583  -3.479  -1.755  0.00  0.00    +0.163 C 
ATOM      8  O   UNL     1      -1.710  -3.557  -2.202  0.00  0.00    -0.292 OA
ATOM      9  N   UNL     1       1.512  -1.084   0.070  0.00  0.00    -0.316 N 
ATOM     10  C   UNL     1       1.378   0.221  -0.385  0.00  0.00    +0.052 A 
ATOM     11  C   UNL     1       2.469   1.003  -0.724  0.00  0.00    +0.025 A 
ATOM     12  C   UNL     1       2.272   2.325  -1.083  0.00  0.00    +0.002 A 
ATOM     13  C   UNL     1       0.997   2.861  -1.103  0.00  0.00    +0.002 A 
ATOM     14  C   UNL     1      -0.098   2.076  -0.782  0.00  0.00    +0.025 A 
ATOM     15  C   UNL     1       0.096   0.748  -0.440  0.00  0.00    +0.049 A 
ATOM     16  N   UNL     1      -0.978  -0.107  -0.194  0.00  0.00    -0.331 N 
ATOM     17  H   UNL     1       2.046  -1.191   1.026  0.00  0.00    +0.152 HD
ATOM     18  H   UNL     1      -1.616   0.077   0.683  0.00  0.00    +0.147 HD
ENDROOT
BRANCH   1  24
ATOM     19  C   UNL     1      -2.575   0.030  -2.800  0.00  0.00    +0.126 A 
ATOM     20  C   UNL     1      -2.737   0.515  -4.089  0.00  0.00    +0.046 A 
ATOM     21  C   UNL     1      -1.767   0.275  -5.043  0.00  0.00    +0.004 A 
ATOM     22  C   UNL     1      -0.636  -0.448  -4.714  0.00  0.00    +0.001 A 
ATOM     23  C   UNL     1      -0.469  -0.928  -3.428  0.00  0.00    +0.009 A 
ATOM     24  C   UNL     1      -1.439  -0.695  -2.472  0.00  0.00    +0.019 A 
BRANCH  19  25
ATOM     25  O   UNL     1      -3.527   0.265  -1.859  0.00  0.00    -0.489 OA
BRANCH  25  27
ATOM     26  C   UNL     1      -5.684   0.281  -2.948  0.00  0.00    +0.051 C 
ATOM     27  C   UNL     1      -4.615   1.111  -2.235  0.00  0.00    +0.167 C 
ATOM     28  C   UNL     1      -5.218   1.753  -0.984  0.00  0.00    +0.051 C 
ENDBRANCH  25  27
ENDBRANCH  19  25
ENDBRANCH   1  24
BRANCH   5  29
ATOM     29  C   UNL     1       2.744  -5.290  -2.016  0.00  0.00    -0.040 A 
ATOM     30  C   UNL     1       2.727  -6.261  -1.032  0.00  0.00    +0.004 A 
ATOM     31  C   UNL     1       3.605  -7.327  -1.094  0.00  0.00    +0.004 A 
ATOM     32  C   UNL     1       4.501  -7.425  -2.142  0.00  0.00    +0.045 A 
ATOM     33  C   UNL     1       4.519  -6.453  -3.131  0.00  0.00    +0.120 A 
ATOM     34  C   UNL     1       3.634  -5.386  -3.068  0.00  0.00    +0.049 A 
BRANCH  33  35
ATOM     35  O   UNL     1       5.399  -6.547  -4.162  0.00  0.00    -0.495 OA
ATOM     36  C   UNL     1       6.276  -7.675  -4.165  0.00  0.00    +0.277 C 
ENDBRANCH  33  35
ENDBRANCH   5  29
TORSDOF 5
