REMARK  Name = ZINC38994406
REMARK  7 active torsions:
REMARK  status: ('A' for Active; 'I' for Inactive)
REMARK    1  A    between atoms: C_1  and  C_2
REMARK    2  A    between atoms: C_2  and  C_3
REMARK    3  A    between atoms: C_2  and  C_4
REMARK    4  A    between atoms: C_4  and  N_5
REMARK    5  A    between atoms: N_5  and  C_6
REMARK    6  A    between atoms: C_6  and  C_7
REMARK    7  A    between atoms: C_19  and  C_21
REMARK                            x       y       z     vdW  Elec       q    Type
REMARK                         _______ _______ _______ _____ _____    ______ ____
ROOT
ATOM      1  N   UNL     1      -1.326  -2.001  -0.126  0.00  0.00    -0.296 N 
ATOM      2  C   UNL     1      -1.556  -2.564  -1.328  0.00  0.00    +0.248 C 
ATOM      3  O   UNL     1      -1.716  -3.766  -1.416  0.00  0.00    -0.270 OA
ENDROOT
BRANCH   2   4
ATOM      4  C   UNL     1      -1.616  -1.721  -2.540  0.00  0.00    +0.051 A 
ATOM      5  C   UNL     1      -2.561  -0.697  -2.636  0.00  0.00    +0.014 A 
ATOM      6  C   UNL     1      -2.611   0.086  -3.770  0.00  0.00    +0.001 A 
ATOM      7  C   UNL     1      -1.727  -0.139  -4.811  0.00  0.00    +0.001 A 
ATOM      8  C   UNL     1      -0.789  -1.151  -4.724  0.00  0.00    +0.016 A 
ATOM      9  C   UNL     1      -0.724  -1.940  -3.592  0.00  0.00    +0.030 A 
ATOM     10 BR   UNL     1       0.566  -3.318  -3.470  0.00  0.00    -0.050 Br
ENDBRANCH   2   4
BRANCH   1  11
ATOM     11  C   UNL     1      -1.214  -0.545  -0.008  0.00  0.00    +0.111 C 
BRANCH  11  13
ATOM     12  C   UNL     1       0.298   1.414  -0.349  0.00  0.00    +0.009 C 
ATOM     13  C   UNL     1       0.213  -0.113  -0.350  0.00  0.00    +0.000 C 
ATOM     14  C   UNL     1       1.180  -0.679   0.692  0.00  0.00    +0.009 C 
ENDBRANCH  11  13
ENDBRANCH   1  11
BRANCH   1  15
ATOM     15  C   UNL     1      -1.186  -2.845   1.064  0.00  0.00    +0.125 C 
BRANCH  15  16
ATOM     16  C   UNL     1      -2.558  -3.048   1.709  0.00  0.00    +0.116 C 
ATOM     17  C   UNL     1      -2.348  -3.734   3.045  0.00  0.00    -0.003 C 
ATOM     18  C   UNL     1      -2.974  -4.929   3.239  0.00  0.00    -0.007 A 
ATOM     19  C   UNL     1      -2.824  -5.658   4.499  0.00  0.00    +0.009 A 
ATOM     20  C   UNL     1      -3.466  -6.846   4.648  0.00  0.00    +0.001 A 
ATOM     21  C   UNL     1      -4.258  -7.377   3.630  0.00  0.00    +0.002 A 
ATOM     22  C   UNL     1      -4.436  -6.750   2.438  0.00  0.00    +0.024 A 
ATOM     23  C   UNL     1      -3.816  -5.513   2.181  0.00  0.00    +0.040 A 
ATOM     24  N   UNL     1      -3.999  -4.907   1.009  0.00  0.00    -0.284 N 
ATOM     25  C   UNL     1      -3.445  -3.747   0.702  0.00  0.00    +0.226 C 
ATOM     26  O   UNL     1      -3.648  -3.242  -0.386  0.00  0.00    -0.275 OA
ATOM     27  H   UNL     1      -4.565  -5.338   0.349  0.00  0.00    +0.155 HD
ENDBRANCH  15  16
ENDBRANCH   1  15
TORSDOF 5
