REMARK  Name = ZINC39289930
REMARK  4 active torsions:
REMARK  status: ('A' for Active; 'I' for Inactive)
REMARK    1  A    between atoms: C_4  and  N_7
REMARK    2  A    between atoms: C_13  and  C_14
REMARK    3  A    between atoms: C_17  and  S_19
REMARK    4  A    between atoms: S_19  and  C_20
REMARK                            x       y       z     vdW  Elec       q    Type
REMARK                         _______ _______ _______ _____ _____    ______ ____
ROOT
ATOM      1  C   UNL     1       6.725  -5.696   2.599  0.00  0.00    +0.131 A 
ATOM      2  C   UNL     1       7.537  -6.772   2.919  0.00  0.00    +0.050 A 
ATOM      3  C   UNL     1       8.697  -6.642   2.152  0.00  0.00    +0.057 A 
ATOM      4  C   UNL     1       8.560  -5.510   1.401  0.00  0.00    +0.165 A 
ATOM      5  O   UNL     1       7.369  -4.951   1.673  0.00  0.00    -0.449 OA
ENDROOT
BRANCH   1  12
ATOM      6  N   UNL     1       3.337  -1.077   0.866  0.00  0.00    -0.226 NA
ATOM      7  C   UNL     1       3.655  -2.167   1.530  0.00  0.00    +0.166 C 
ATOM      8  N   UNL     1       2.888  -2.898   2.414  0.00  0.00    -0.260 N 
ATOM      9  C   UNL     1       3.387  -3.978   2.990  0.00  0.00    +0.257 C 
ATOM     10  O   UNL     1       2.721  -4.632   3.773  0.00  0.00    -0.269 OA
ATOM     11  C   UNL     1       4.720  -4.359   2.675  0.00  0.00    +0.081 C 
ATOM     12  C   UNL     1       5.454  -5.429   3.138  0.00  0.00    +0.066 C 
ATOM     13  S   UNL     1       5.187  -3.085   1.512  0.00  0.00    -0.049 S 
ATOM     14  H   UNL     1       1.980  -2.618   2.614  0.00  0.00    +0.157 HD
BRANCH   6  18
ATOM     15  C   UNL     1      -0.415   0.607   1.326  0.00  0.00    +0.000 A 
ATOM     16  C   UNL     1       0.709   1.414   1.340  0.00  0.00    +0.002 A 
ATOM     17  C   UNL     1       1.963   0.860   1.188  0.00  0.00    +0.028 A 
ATOM     18  C   UNL     1       2.096  -0.520   1.018  0.00  0.00    +0.067 A 
ATOM     19  C   UNL     1       0.958  -1.329   1.005  0.00  0.00    +0.028 A 
ATOM     20  C   UNL     1      -0.290  -0.761   1.159  0.00  0.00    +0.002 A 
ENDBRANCH   6  18
ENDBRANCH   1  12
BRANCH   4  21
ATOM     21  S   UNL     1       9.748  -4.888   0.258  0.00  0.00    -0.046 S 
BRANCH  21  22
ATOM     22  C   UNL     1       9.269  -5.638  -1.323  0.00  0.00    +0.240 C 
ATOM     23  N   UNL     1       7.902  -5.195  -1.710  0.00  0.00    -0.275 NA
ATOM     24  C   UNL     1       7.407  -6.382  -2.422  0.00  0.00    +0.128 C 
ATOM     25  C   UNL     1       5.902  -6.418  -2.434  0.00  0.00    -0.002 C 
ATOM     26  C   UNL     1       5.325  -7.615  -2.261  0.00  0.00    -0.002 C 
ATOM     27  C   UNL     1       6.119  -8.824  -2.066  0.00  0.00    +0.002 C 
ATOM     28  C   UNL     1       7.447  -8.802  -1.818  0.00  0.00    +0.025 C 
ATOM     29  C   UNL     1       8.129  -7.549  -1.772  0.00  0.00    +0.060 C 
ATOM     30  N   UNL     1       9.192  -7.101  -1.189  0.00  0.00    -0.256 NA
ATOM     31  H   UNL     1       7.340  -5.003  -0.894  0.00  0.00    +0.126 HD
ENDBRANCH  21  22
ENDBRANCH   4  21
TORSDOF 4
