REMARK  Name = ZINC09959646
REMARK  10 active torsions:
REMARK  status: ('A' for Active; 'I' for Inactive)
REMARK    1  A    between atoms: C_5  and  N_7
REMARK    2  A    between atoms: N_7  and  S_8
REMARK    3  A    between atoms: S_8  and  C_11
REMARK    4  A    between atoms: C_14  and  C_17
REMARK    5  A    between atoms: C_18  and  C_19
REMARK    6  A    between atoms: N_21  and  N_22
REMARK    7  A    between atoms: N_22  and  C_23
REMARK    8  A    between atoms: C_23  and  N_25
REMARK    9  A    between atoms: N_25  and  C_26
REMARK   10  A    between atoms: C_26  and  C_27
REMARK                            x       y       z     vdW  Elec       q    Type
REMARK                         _______ _______ _______ _____ _____    ______ ____
ROOT
ATOM      1  C   UNL     1       1.495   2.887   1.278  0.00  0.00    +0.109 A 
ATOM      2  C   UNL     1       0.973   4.166   1.190  0.00  0.00    +0.029 A 
ATOM      3  C   UNL     1       1.031   5.014   2.276  0.00  0.00    +0.010 A 
ATOM      4  C   UNL     1       1.629   4.583   3.464  0.00  0.00    -0.025 A 
ATOM      5  C   UNL     1       2.159   3.291   3.543  0.00  0.00    +0.010 A 
ATOM      6  C   UNL     1       2.088   2.453   2.451  0.00  0.00    +0.029 A 
ENDROOT
BRANCH   1   7
ATOM      7  S   UNL     1       1.410   1.808  -0.112  0.00  0.00    +0.072 S 
ATOM      8  O   UNL     1       2.458   0.861   0.044  0.00  0.00    -0.150 OA
ATOM      9  O   UNL     1       1.296   2.635  -1.262  0.00  0.00    -0.150 OA
BRANCH   7  10
ATOM     10  N   UNL     1      -0.011   0.966   0.007  0.00  0.00    -0.215 N 
ATOM     11  H   UNL     1       0.003  -0.002   0.071  0.00  0.00    +0.174 HD
BRANCH  10  16
ATOM     12  C   UNL     1      -2.599   3.461  -0.761  0.00  0.00    +0.002 A 
ATOM     13  C   UNL     1      -3.644   3.003   0.019  0.00  0.00    +0.002 A 
ATOM     14  C   UNL     1      -3.487   1.869   0.796  0.00  0.00    +0.022 A 
ATOM     15  C   UNL     1      -2.283   1.191   0.795  0.00  0.00    +0.063 A 
ATOM     16  C   UNL     1      -1.230   1.649   0.011  0.00  0.00    +0.066 A 
ATOM     17  C   UNL     1      -1.391   2.791  -0.763  0.00  0.00    +0.026 A 
ATOM     18 CL   UNL     1      -2.085  -0.231   1.771  0.00  0.00    -0.082 Cl
ENDBRANCH  10  16
ENDBRANCH   7  10
ENDBRANCH   1   7
BRANCH   4  19
ATOM     19  C   UNL     1       1.700   5.484   4.626  0.00  0.00    +0.013 C 
ATOM     20  C   UNL     1       1.188   6.729   4.546  0.00  0.00    +0.069 C 
BRANCH  20  21
ATOM     21  C   UNL     1       1.259   7.625   5.701  0.00  0.00    +0.253 C 
ATOM     22  O   UNL     1       1.779   7.247   6.734  0.00  0.00    -0.269 OA
ATOM     23  N   UNL     1       0.747   8.870   5.621  0.00  0.00    -0.232 N 
ATOM     24  H   UNL     1       0.332   9.171   4.798  0.00  0.00    +0.173 HD
BRANCH  23  25
ATOM     25  N   UNL     1       0.815   9.727   6.727  0.00  0.00    -0.246 N 
ATOM     26  H   UNL     1       1.230   9.426   7.550  0.00  0.00    +0.172 HD
BRANCH  25  27
ATOM     27  C   UNL     1       0.303  10.972   6.647  0.00  0.00    +0.147 C 
ATOM     28  S   UNL     1       0.386  12.020   7.998  0.00  0.00    -0.017 S 
BRANCH  27  29
ATOM     29  N   UNL     1      -0.274  11.391   5.503  0.00  0.00    -0.323 N 
ATOM     30  H   UNL     1      -0.320  10.797   4.737  0.00  0.00    +0.148 HD
BRANCH  29  31
ATOM     31  C   UNL     1      -0.830  12.743   5.416  0.00  0.00    +0.134 C 
BRANCH  31  32
ATOM     32  C   UNL     1      -1.420  12.963   4.021  0.00  0.00    +0.135 C 
ATOM     33  C   UNL     1      -2.008  14.384   3.919  0.00  0.00    +0.035 C 
ATOM     34  C   UNL     1      -1.234  15.031   2.744  0.00  0.00    +0.031 C 
ATOM     35  C   UNL     1      -0.711  13.790   1.978  0.00  0.00    +0.160 C 
ATOM     36  O   UNL     1      -0.384  12.857   3.030  0.00  0.00    -0.375 OA
ENDBRANCH  31  32
ENDBRANCH  29  31
ENDBRANCH  27  29
ENDBRANCH  25  27
ENDBRANCH  23  25
ENDBRANCH  20  21
ENDBRANCH   4  19
TORSDOF 10
