REMARK  Name = ZINC12040773
REMARK  18 active torsions:
REMARK  status: ('A' for Active; 'I' for Inactive)
REMARK    1  A    between atoms: C_1  and  C_2
REMARK    2  A    between atoms: C_2  and  O_3
REMARK    3  A    between atoms: O_3  and  C_4
REMARK    4  A    between atoms: C_11  and  C_13
REMARK    5  A    between atoms: C_11  and  C_22
REMARK    6  A    between atoms: C_11  and  N_81
REMARK    7  A    between atoms: C_16  and  N_19
REMARK    8  A    between atoms: N_19  and  C_20
REMARK    9  A    between atoms: N_19  and  C_21
REMARK   10  A    between atoms: C_24  and  C_33
REMARK   11  A    between atoms: C_25  and  O_32
REMARK   12  A    between atoms: C_26  and  C_28
REMARK   13  A    between atoms: C_28  and  C_29
REMARK   14  A    between atoms: C_28  and  C_30
REMARK   15  A    between atoms: C_28  and  C_31
REMARK   16  A    between atoms: C_33  and  C_34
REMARK   17  A    between atoms: C_33  and  C_35
REMARK   18  A    between atoms: C_33  and  C_36
REMARK                            x       y       z     vdW  Elec       q    Type
REMARK                         _______ _______ _______ _____ _____    ______ ____
ROOT
ATOM      1  C   UNL     1      -0.013   1.086   0.008  0.00  0.00    -0.007 C 
ENDROOT
BRANCH   1   9
ATOM      2  C   UNL     1      -1.887   1.248   5.097  0.00  0.00    +0.403 C 
ATOM      3  O   UNL     1      -3.054   0.962   5.281  0.00  0.00    -0.226 OA
ATOM      4  N   UNL     1      -1.485   1.694   3.891  0.00  0.00    -0.271 N 
ATOM      5  C   UNL     1      -2.441   1.843   2.783  0.00  0.00    +0.092 C 
ATOM      6  C   UNL     1      -1.876   1.124   1.553  0.00  0.00    -0.058 C 
ATOM      7  C   UNL     1       0.394   1.318   2.384  0.00  0.00    -0.058 C 
ATOM      8  C   UNL     1      -0.077   2.046   3.647  0.00  0.00    +0.092 C 
ATOM      9  N   UNL     1      -0.524   1.653   1.273  0.00  0.00    +0.389 N 
ATOM     10  H   UNL     1      -0.578   2.674   1.183  0.00  0.00    -0.080 HD
BRANCH   2  11
ATOM     11  O   UNL     1      -0.997   1.119   6.099  0.00  0.00    -0.451 OA
BRANCH  11  13
ATOM     12  C   UNL     1      -0.353   0.552   8.378  0.00  0.00    +0.048 C 
ATOM     13  C   UNL     1      -1.502   0.632   7.370  0.00  0.00    +0.230 C 
ENDBRANCH  11  13
ENDBRANCH   2  11
ENDBRANCH   1   9
BRANCH   1  14
ATOM     14  C   UNL     1       1.357   1.652  -0.263  0.00  0.00    -0.057 A 
ATOM     15  C   UNL     1       1.591   3.004  -0.094  0.00  0.00    +0.004 A 
ATOM     16  C   UNL     1       2.847   3.525  -0.335  0.00  0.00    +0.023 A 
ATOM     17  C   UNL     1       3.873   2.691  -0.759  0.00  0.00    +0.029 A 
ATOM     18  C   UNL     1       3.634   1.334  -0.933  0.00  0.00    +0.023 A 
ATOM     19  C   UNL     1       2.377   0.819  -0.684  0.00  0.00    +0.004 A 
BRANCH  17  20
ATOM     20  N   UNL     1       5.143   3.216  -1.010  0.00  0.00    -0.336 N 
ATOM     21  C   UNL     1       6.225   2.334  -1.458  0.00  0.00    +0.129 C 
ATOM     22  C   UNL     1       5.394   4.647  -0.826  0.00  0.00    +0.129 C 
ENDBRANCH  17  20
ENDBRANCH   1  14
BRANCH   1  23
ATOM     23  C   UNL     1      -0.945   1.471  -1.111  0.00  0.00    -0.056 A 
ATOM     24  C   UNL     1      -1.441   2.759  -1.184  0.00  0.00    +0.010 A 
ATOM     25  C   UNL     1      -2.292   3.116  -2.212  0.00  0.00    -0.000 A 
ATOM     26  C   UNL     1      -2.657   2.178  -3.167  0.00  0.00    +0.124 A 
ATOM     27  C   UNL     1      -2.162   0.884  -3.088  0.00  0.00    -0.000 A 
ATOM     28  C   UNL     1      -1.308   0.534  -2.061  0.00  0.00    +0.010 A 
BRANCH  27  29
ATOM     29  C   UNL     1      -2.557  -0.138  -4.123  0.00  0.00    -0.009 C 
ATOM     30  C   UNL     1      -1.878  -1.472  -3.807  0.00  0.00    +0.015 C 
ATOM     31  C   UNL     1      -4.075  -0.321  -4.106  0.00  0.00    +0.015 C 
ATOM     32  C   UNL     1      -2.117   0.342  -5.508  0.00  0.00    +0.015 C 
ENDBRANCH  27  29
BRANCH  25  33
ATOM     33  C   UNL     1      -2.827   4.523  -2.294  0.00  0.00    -0.009 C 
ATOM     34  C   UNL     1      -2.274   5.348  -1.131  0.00  0.00    +0.015 C 
ATOM     35  C   UNL     1      -2.396   5.156  -3.619  0.00  0.00    +0.015 C 
ATOM     36  C   UNL     1      -4.355   4.492  -2.217  0.00  0.00    +0.015 C 
ENDBRANCH  25  33
BRANCH  26  37
ATOM     37  O   UNL     1      -3.498   2.525  -4.176  0.00  0.00    -0.506 OA
ATOM     38  H   UNL     1      -4.433   2.391  -3.972  0.00  0.00    +0.292 HD
ENDBRANCH  26  37
ENDBRANCH   1  23
TORSDOF 9
