REMARK  Name = ZINC40142335
REMARK  9 active torsions:
REMARK  status: ('A' for Active; 'I' for Inactive)
REMARK    1  A    between atoms: C_1  and  C_2
REMARK    2  A    between atoms: C_2  and  C_3
REMARK    3  A    between atoms: C_2  and  C_4
REMARK    4  A    between atoms: N_12  and  C_13
REMARK    5  A    between atoms: C_13  and  C_14
REMARK    6  A    between atoms: C_14  and  C_16
REMARK    7  A    between atoms: C_14  and  O_26
REMARK    8  A    between atoms: C_16  and  O_17
REMARK    9  A    between atoms: O_17  and  C_18
REMARK                            x       y       z     vdW  Elec       q    Type
REMARK                         _______ _______ _______ _____ _____    ______ ____
ROOT
ATOM      1  C   UNL     1      -1.290  -1.795  -2.163  0.00  0.00    +0.158 C 
ENDROOT
BRANCH   1  10
ATOM      2  C   UNL     1      -1.412  -0.526   0.013  0.00  0.00    +0.113 A 
ATOM      3  N   UNL     1      -2.288  -0.284   0.943  0.00  0.00    -0.232 NA
ATOM      4  C   UNL     1      -3.458  -0.905   0.641  0.00  0.00    +0.089 A 
ATOM      5  C   UNL     1      -4.700  -0.981   1.276  0.00  0.00    +0.030 A 
ATOM      6  C   UNL     1      -5.710  -1.706   0.710  0.00  0.00    +0.002 A 
ATOM      7  C   UNL     1      -5.517  -2.370  -0.493  0.00  0.00    +0.002 A 
ATOM      8  C   UNL     1      -4.300  -2.309  -1.137  0.00  0.00    +0.028 A 
ATOM      9  C   UNL     1      -3.261  -1.577  -0.577  0.00  0.00    +0.069 A 
ATOM     10  N   UNL     1      -1.959  -1.313  -0.952  0.00  0.00    -0.325 N 
BRANCH   2  12
ATOM     11  C   UNL     1      -0.019   1.526   0.010  0.00  0.00    +0.015 C 
ATOM     12  C   UNL     1       0.002  -0.004   0.002  0.00  0.00    +0.049 C 
ATOM     13  C   UNL     1       0.742  -0.511   1.242  0.00  0.00    +0.015 C 
ENDBRANCH   2  12
ENDBRANCH   1  10
BRANCH   1  14
ATOM     14  C   UNL     1      -0.617  -3.138  -1.874  0.00  0.00    +0.171 C 
BRANCH  14  15
ATOM     15  O   UNL     1      -1.616  -4.117  -1.579  0.00  0.00    -0.387 OA
ATOM     16  H   UNL     1      -2.248  -4.263  -2.296  0.00  0.00    +0.210 HD
ENDBRANCH  14  15
BRANCH  14  17
ATOM     17  C   UNL     1       0.185  -3.581  -3.099  0.00  0.00    +0.262 C 
BRANCH  17  18
ATOM     18  O   UNL     1       0.906  -4.775  -2.791  0.00  0.00    -0.488 OA
BRANCH  18  19
ATOM     19  C   UNL     1       1.675  -5.305  -3.779  0.00  0.00    +0.135 A 
ATOM     20  C   UNL     1       1.738  -4.684  -5.018  0.00  0.00    +0.048 A 
ATOM     21  C   UNL     1       2.520  -5.224  -6.020  0.00  0.00    +0.019 A 
ATOM     22  C   UNL     1       3.241  -6.383  -5.790  0.00  0.00    +0.019 A 
ATOM     23  C   UNL     1       3.179  -7.004  -4.555  0.00  0.00    +0.034 A 
ATOM     24  C   UNL     1       2.402  -6.464  -3.547  0.00  0.00    +0.061 A 
ATOM     25 BR   UNL     1       2.325  -7.309  -1.857  0.00  0.00    -0.046 Br
ATOM     26 BR   UNL     1       4.311  -7.118  -7.165  0.00  0.00    -0.050 Br
ENDBRANCH  18  19
ENDBRANCH  17  18
ENDBRANCH  14  17
ENDBRANCH   1  14
TORSDOF 7
