REMARK  Name = ZINC63253518
REMARK  7 active torsions:
REMARK  status: ('A' for Active; 'I' for Inactive)
REMARK    1  A    between atoms: C_4  and  O_7
REMARK    2  A    between atoms: O_7  and  C_8
REMARK    3  A    between atoms: C_8  and  C_9
REMARK    4  A    between atoms: C_9  and  S_10
REMARK    5  A    between atoms: S_10  and  C_11
REMARK    6  A    between atoms: C_14  and  C_23
REMARK    7  A    between atoms: N_15  and  C_16
REMARK                            x       y       z     vdW  Elec       q    Type
REMARK                         _______ _______ _______ _____ _____    ______ ____
ROOT
ATOM      1  C   UNL     1       6.577  -4.927  -0.090  0.00  0.00    +0.196 A 
ATOM      2  N   UNL     1       7.628  -4.120  -0.091  0.00  0.00    -0.122 NA
ATOM      3  N   UNL     1       8.714  -4.806  -0.107  0.00  0.00    -0.128 NA
ATOM      4  C   UNL     1       8.427  -6.100  -0.118  0.00  0.00    +0.168 A 
ATOM      5  N   UNL     1       7.046  -6.207  -0.102  0.00  0.00    -0.270 N 
ENDROOT
BRANCH   4   6
ATOM      6  C   UNL     1       9.347  -7.160  -0.137  0.00  0.00    +0.025 C 
ATOM      7  C   UNL     1      10.739  -7.068  -0.142  0.00  0.00    +0.006 A 
ATOM      8  C   UNL     1      11.622  -5.967  -0.130  0.00  0.00    +0.010 A 
ATOM      9  C   UNL     1      12.963  -6.178  -0.138  0.00  0.00    +0.001 A 
ATOM     10  C   UNL     1      13.500  -7.468  -0.159  0.00  0.00    +0.002 A 
ATOM     11  C   UNL     1      12.711  -8.571  -0.171  0.00  0.00    +0.026 A 
ATOM     12  C   UNL     1      11.300  -8.429  -0.163  0.00  0.00    +0.043 A 
ATOM     13  N   UNL     1      10.333  -9.325  -0.171  0.00  0.00    -0.380 N 
ATOM     14  C   UNL     1       9.037  -8.640  -0.149  0.00  0.00    +0.152 C 
ATOM     15  H   UNL     1      10.459 -10.287  -0.186  0.00  0.00    +0.160 HD
ENDBRANCH   4   6
BRANCH   5  16
ATOM     16  C   UNL     1       6.288  -7.386  -0.101  0.00  0.00    +0.051 A 
ATOM     17  C   UNL     1       6.346  -8.249   0.986  0.00  0.00    +0.028 A 
ATOM     18  C   UNL     1       5.598  -9.410   0.984  0.00  0.00    +0.022 A 
ATOM     19  C   UNL     1       4.793  -9.714  -0.099  0.00  0.00    +0.041 A 
ATOM     20  C   UNL     1       4.734  -8.856  -1.183  0.00  0.00    +0.022 A 
ATOM     21  C   UNL     1       5.475  -7.691  -1.184  0.00  0.00    +0.028 A 
ATOM     22 CL   UNL     1       3.854 -11.175  -0.098  0.00  0.00    -0.084 Cl
ENDBRANCH   5  16
BRANCH   1  23
ATOM     23  S   UNL     1       4.885  -4.437  -0.070  0.00  0.00    -0.082 S 
BRANCH  23  24
ATOM     24  C   UNL     1       4.954  -2.624  -0.061  0.00  0.00    +0.118 C 
BRANCH  24  25
ATOM     25  C   UNL     1       3.531  -2.060  -0.044  0.00  0.00    +0.240 C 
BRANCH  25  26
ATOM     26  O   UNL     1       3.586  -0.632  -0.037  0.00  0.00    -0.491 OA
BRANCH  26  30
ATOM     27  C   UNL     1      -0.017   1.378   0.010  0.00  0.00    +0.000 A 
ATOM     28  C   UNL     1       1.170   2.088   0.002  0.00  0.00    +0.004 A 
ATOM     29  C   UNL     1       2.377   1.417  -0.013  0.00  0.00    +0.045 A 
ATOM     30  C   UNL     1       2.399   0.030  -0.021  0.00  0.00    +0.121 A 
ATOM     31  C   UNL     1       1.207  -0.680  -0.013  0.00  0.00    +0.045 A 
ATOM     32  C   UNL     1       0.002  -0.004   0.002  0.00  0.00    +0.004 A 
ENDBRANCH  26  30
ENDBRANCH  25  26
ENDBRANCH  24  25
ENDBRANCH  23  24
ENDBRANCH   1  23
TORSDOF 7
