REMARK  Name = ZINC12902373
REMARK  6 active torsions:
REMARK  status: ('A' for Active; 'I' for Inactive)
REMARK    1  A    between atoms: C_1  and  C_2
REMARK    2  A    between atoms: N_4  and  C_5
REMARK    3  A    between atoms: C_7  and  O_37
REMARK    4  A    between atoms: C_15  and  C_18
REMARK    5  A    between atoms: C_24  and  O_26
REMARK    6  A    between atoms: O_26  and  C_27
REMARK                            x       y       z     vdW  Elec       q    Type
REMARK                         _______ _______ _______ _____ _____    ______ ____
ROOT
ATOM      1  C   UNL     1      -6.408   5.520   0.238  0.00  0.00    +0.173 C 
ATOM      2  C   UNL     1      -5.432   4.343   0.120  0.00  0.00    +0.172 C 
ATOM      3  C   UNL     1      -4.008   4.897   0.093  0.00  0.00    +0.183 C 
ATOM      4  C   UNL     1      -3.772   5.705   1.375  0.00  0.00    +0.179 C 
ATOM      5  C   UNL     1      -2.333   6.222   1.364  0.00  0.00    +0.197 C 
ATOM      6  O   UNL     1      -1.453   5.101   1.212  0.00  0.00    -0.342 OA
ATOM      7  C   UNL     1      -1.694   4.317   0.042  0.00  0.00    +0.319 C 
ATOM      8  O   UNL     1      -3.046   3.843   0.037  0.00  0.00    -0.336 OA
ATOM      9  O   UNL     1      -4.706   6.782   1.420  0.00  0.00    -0.332 OA
ATOM     10  C   UNL     1      -6.069   6.348   1.479  0.00  0.00    +0.331 C 
ENDROOT
BRANCH   1  14
ATOM     11  C   UNL     1     -10.224   5.247   0.086  0.00  0.00    +0.109 C 
ATOM     12  C   UNL     1      -8.817   5.773  -0.032  0.00  0.00    +0.210 C 
ATOM     13  O   UNL     1      -8.621   6.886  -0.473  0.00  0.00    -0.276 OA
ATOM     14  N   UNL     1      -7.776   5.008   0.353  0.00  0.00    -0.304 N 
ATOM     15  H   UNL     1      -7.933   4.118   0.706  0.00  0.00    +0.149 HD
ENDBRANCH   1  14
BRANCH   7  16
ATOM     16  C   UNL     1      -0.753   3.140   0.026  0.00  0.00    +0.161 A 
ATOM     17  C   UNL     1       0.591   3.208   0.014  0.00  0.00    +0.050 A 
ATOM     18  C   UNL     1       1.068   1.877   0.002  0.00  0.00    +0.041 A 
ATOM     19  C   UNL     1      -0.013   1.076   0.008  0.00  0.00    +0.195 A 
ATOM     20  O   UNL     1      -1.113   1.846   0.017  0.00  0.00    -0.463 OA
ENDBRANCH   7  16
BRANCH   2  21
ATOM     21  O   UNL     1      -5.691   3.623  -1.088  0.00  0.00    -0.387 OA
ATOM     22  H   UNL     1      -6.584   3.258  -1.144  0.00  0.00    +0.210 HD
ENDBRANCH   2  21
BRANCH  10  23
ATOM     23  O   UNL     1      -6.928   7.489   1.537  0.00  0.00    -0.461 OA
BRANCH  23  24
ATOM     24  C   UNL     1      -6.838   8.272   2.642  0.00  0.00    +0.132 A 
ATOM     25  C   UNL     1      -5.957   7.958   3.639  0.00  0.00    +0.046 A 
ATOM     26  C   UNL     1      -5.853   8.751   4.778  0.00  0.00    +0.004 A 
ATOM     27  C   UNL     1      -6.626   9.861   4.934  0.00  0.00    +0.009 A 
ATOM     28  C   UNL     1      -7.545  10.218   3.932  0.00  0.00    -0.014 A 
ATOM     29  C   UNL     1      -7.650   9.418   2.768  0.00  0.00    +0.024 A 
ATOM     30  C   UNL     1      -8.572   9.771   1.770  0.00  0.00    +0.012 A 
ATOM     31  C   UNL     1      -9.344  10.882   1.928  0.00  0.00    +0.001 A 
ATOM     32  C   UNL     1      -9.236  11.673   3.071  0.00  0.00    +0.001 A 
ATOM     33  C   UNL     1      -8.358  11.358   4.061  0.00  0.00    +0.008 A 
ENDBRANCH  23  24
ENDBRANCH  10  23
TORSDOF 5
