REMARK  Name = ZINC35778454
REMARK  12 active torsions:
REMARK  status: ('A' for Active; 'I' for Inactive)
REMARK    1  A    between atoms: C_1  and  C_2
REMARK    2  A    between atoms: C_3  and  C_21
REMARK    3  A    between atoms: C_4  and  O_14
REMARK    4  A    between atoms: N_5  and  C_7
REMARK    5  A    between atoms: O_14  and  C_15
REMARK    6  A    between atoms: C_21  and  N_22
REMARK    7  A    between atoms: N_22  and  C_23
REMARK    8  A    between atoms: N_22  and  C_29
REMARK    9  A    between atoms: C_23  and  C_24
REMARK   10  A    between atoms: C_24  and  C_25
REMARK   11  A    between atoms: C_24  and  C_26
REMARK   12  A    between atoms: C_24  and  O_28
REMARK                            x       y       z     vdW  Elec       q    Type
REMARK                         _______ _______ _______ _____ _____    ______ ____
ROOT
ATOM      1  C   UNL     1      -0.625   1.310   1.093  0.00  0.00    +0.068 C 
ATOM      2  C   UNL     1      -0.413  -0.147   0.775  0.00  0.00    +0.065 A 
ATOM      3  C   UNL     1      -0.230  -0.687  -0.502  0.00  0.00    +0.021 A 
ATOM      4  C   UNL     1      -0.072  -2.031  -0.369  0.00  0.00    +0.225 A 
ATOM      5  N   UNL     1      -0.154  -2.322   0.957  0.00  0.00    -0.200 N 
ATOM      6  N   UNL     1      -0.362  -1.121   1.647  0.00  0.00    -0.168 NA
ENDROOT
BRANCH   5   7
ATOM      7  C   UNL     1      -0.045  -3.597   1.531  0.00  0.00    +0.070 A 
ATOM      8  C   UNL     1      -0.639  -4.690   0.915  0.00  0.00    +0.028 A 
ATOM      9  C   UNL     1      -0.530  -5.945   1.482  0.00  0.00    +0.003 A 
ATOM     10  C   UNL     1       0.170  -6.113   2.662  0.00  0.00    +0.020 A 
ATOM     11  C   UNL     1       0.764  -5.026   3.279  0.00  0.00    +0.043 A 
ATOM     12  C   UNL     1       0.663  -3.769   2.712  0.00  0.00    +0.048 A 
ATOM     13 CL   UNL     1       1.642  -5.242   4.761  0.00  0.00    -0.083 Cl
ENDBRANCH   5   7
BRANCH   4  14
ATOM     14  O   UNL     1       0.131  -2.919  -1.375  0.00  0.00    -0.438 OA
BRANCH  14  15
ATOM     15  C   UNL     1       1.408  -3.288  -1.653  0.00  0.00    +0.130 A 
ATOM     16  C   UNL     1       2.450  -2.843  -0.852  0.00  0.00    +0.046 A 
ATOM     17  C   UNL     1       3.748  -3.220  -1.136  0.00  0.00    +0.004 A 
ATOM     18  C   UNL     1       4.010  -4.039  -2.218  0.00  0.00    +0.000 A 
ATOM     19  C   UNL     1       2.974  -4.484  -3.019  0.00  0.00    +0.004 A 
ATOM     20  C   UNL     1       1.673  -4.115  -2.735  0.00  0.00    +0.046 A 
ENDBRANCH  14  15
ENDBRANCH   4  14
BRANCH   3  21
ATOM     21  C   UNL     1      -0.212   0.085  -1.797  0.00  0.00    -0.035 C 
BRANCH  21  22
ATOM     22  N   UNL     1       1.178   0.363  -2.182  0.00  0.00    +0.386 N 
ATOM     23  H   UNL     1       1.680  -0.507  -2.281  0.00  0.00    -0.081 HD
BRANCH  22  24
ATOM     24  C   UNL     1       1.818   1.183  -1.145  0.00  0.00    -0.068 C 
ATOM     25  C   UNL     1       2.121   2.643  -1.487  0.00  0.00    -0.017 C 
ATOM     26  C   UNL     1       3.262   1.628  -1.388  0.00  0.00    -0.017 C 
ENDBRANCH  22  24
BRANCH  22  27
ATOM     27  C   UNL     1       1.196   1.087  -3.460  0.00  0.00    -0.039 C 
BRANCH  27  28
ATOM     28  C   UNL     1       0.701   0.164  -4.576  0.00  0.00    +0.067 C 
ATOM     29  C   UNL     1       1.505  -1.137  -4.556  0.00  0.00    +0.044 C 
BRANCH  28  30
ATOM     30  C   UNL     1       0.882   0.846  -5.908  0.00  0.00    -0.003 C 
ATOM     31  C   UNL     1      -0.157   1.077  -6.671  0.00  0.00    +0.006 C 
ENDBRANCH  28  30
BRANCH  28  32
ATOM     32  O   UNL     1      -0.683  -0.128  -4.374  0.00  0.00    -0.387 OA
ATOM     33  H   UNL     1      -1.254   0.653  -4.375  0.00  0.00    +0.210 HD
ENDBRANCH  28  32
ENDBRANCH  27  28
ENDBRANCH  22  27
ENDBRANCH  21  22
ENDBRANCH   3  21
TORSDOF 10
