REMARK  Name = ZINC39638264
REMARK  10 active torsions:
REMARK  status: ('A' for Active; 'I' for Inactive)
REMARK    1  A    between atoms: C_1  and  C_2
REMARK    2  A    between atoms: C_2  and  C_3
REMARK    3  A    between atoms: C_3  and  C_5
REMARK    4  A    between atoms: C_3  and  N_8
REMARK    5  A    between atoms: C_5  and  O_6
REMARK    6  A    between atoms: O_6  and  C_7
REMARK    7  A    between atoms: C_9  and  C_11
REMARK    8  A    between atoms: C_22  and  C_24
REMARK    9  A    between atoms: C_24  and  C_25
REMARK   10  A    between atoms: C_30  and  C_31
REMARK                            x       y       z     vdW  Elec       q    Type
REMARK                         _______ _______ _______ _____ _____    ______ ____
ROOT
ATOM      1  C   UNL     1      -0.608   1.458   4.234  0.00  0.00    +0.100 C 
ATOM      2  C   UNL     1      -2.112   1.596   3.909  0.00  0.00    +0.121 C 
ATOM      3  N   UNL     1      -2.569   2.741   4.730  0.00  0.00    -0.300 N 
ATOM      4  C   UNL     1      -1.455   3.716   4.656  0.00  0.00    +0.115 C 
ATOM      5  C   UNL     1      -0.180   2.852   4.724  0.00  0.00    -0.004 C 
ATOM      6  C   UNL     1       0.896   3.427   3.807  0.00  0.00    -0.010 C 
ATOM      7  C   UNL     1       1.346   4.787   4.347  0.00  0.00    -0.082 C 
ATOM      8  N   UNL     1       1.870   4.626   5.709  0.00  0.00    +0.379 N 
ATOM      9  C   UNL     1       0.803   4.161   6.604  0.00  0.00    -0.082 C 
ATOM     10  C   UNL     1       0.330   2.774   6.159  0.00  0.00    -0.010 C 
ATOM     11  C   UNL     1      -3.735   2.868   5.394  0.00  0.00    +0.220 C 
ATOM     12  O   UNL     1      -3.965   3.876   6.028  0.00  0.00    -0.275 OA
ATOM     13  H   UNL     1       2.620   3.951   5.702  0.00  0.00    -0.086 HD
ATOM     14  H   UNL     1       2.222   5.512   6.039  0.00  0.00    -0.086 HD
ENDROOT
BRANCH   1  16
ATOM     15  N   UNL     1       1.304   0.366   3.107  0.00  0.00    -0.310 N 
ATOM     16  C   UNL     1       0.164   1.077   2.997  0.00  0.00    +0.218 C 
ATOM     17  O   UNL     1      -0.240   1.409   1.903  0.00  0.00    -0.275 OA
ATOM     18  H   UNL     1       1.628   0.100   3.982  0.00  0.00    +0.149 HD
BRANCH  15  19
ATOM     19  C   UNL     1       2.054  -0.005   1.905  0.00  0.00    +0.098 C 
BRANCH  19  21
ATOM     20  C   UNL     1       0.046  -1.046   0.844  0.00  0.00    +0.006 C 
ATOM     21  C   UNL     1       1.478  -1.297   1.322  0.00  0.00    +0.021 C 
ENDBRANCH  19  21
BRANCH  19  22
ATOM     22  C   UNL     1       3.525  -0.221   2.268  0.00  0.00    +0.181 C 
BRANCH  22  23
ATOM     23  O   UNL     1       3.639  -1.343   3.145  0.00  0.00    -0.381 OA
ATOM     24  C   UNL     1       4.979  -1.633   3.547  0.00  0.00    +0.194 C 
ENDBRANCH  22  23
ENDBRANCH  19  22
ENDBRANCH  15  19
ENDBRANCH   1  16
BRANCH  11  25
ATOM     25  C   UNL     1      -4.752   1.757   5.350  0.00  0.00    +0.131 C 
BRANCH  25  26
ATOM     26  C   UNL     1      -5.957   2.146   6.168  0.00  0.00    -0.036 A 
ATOM     27  C   UNL     1      -6.055   1.744   7.488  0.00  0.00    +0.004 A 
ATOM     28  C   UNL     1      -7.159   2.100   8.238  0.00  0.00    +0.000 A 
ATOM     29  C   UNL     1      -8.166   2.859   7.670  0.00  0.00    +0.000 A 
ATOM     30  C   UNL     1      -8.067   3.261   6.351  0.00  0.00    +0.003 A 
ATOM     31  C   UNL     1      -6.960   2.908   5.601  0.00  0.00    -0.047 A 
ATOM     32  C   UNL     1      -6.850   3.351   4.165  0.00  0.00    +0.044 C 
ENDBRANCH  25  26
ENDBRANCH  11  25
TORSDOF 7
