REMARK  Name = ZINC45440041
REMARK  5 active torsions:
REMARK  status: ('A' for Active; 'I' for Inactive)
REMARK    1  A    between atoms: C_1  and  C_2
REMARK    2  A    between atoms: C_2  and  N_9
REMARK    3  A    between atoms: N_9  and  N_10
REMARK    4  A    between atoms: N_13  and  C_14
REMARK    5  A    between atoms: C_19  and  C_22
REMARK                            x       y       z     vdW  Elec       q    Type
REMARK                         _______ _______ _______ _____ _____    ______ ____
ROOT
ATOM      1  N   UNL     1      -2.107  -0.036  -1.006  0.00  0.00    -0.234 N 
ATOM      2  C   UNL     1      -3.404  -0.376  -1.133  0.00  0.00    +0.314 C 
ATOM      3  O   UNL     1      -4.049   0.031  -2.081  0.00  0.00    -0.252 OA
ATOM      4  N   UNL     1      -3.988  -1.167  -0.211  0.00  0.00    -0.296 N 
ATOM      5  H   UNL     1      -1.687   0.533  -1.669  0.00  0.00    +0.171 HD
ATOM      6  H   UNL     1      -3.473  -1.491   0.545  0.00  0.00    +0.151 HD
ENDROOT
BRANCH   4   7
ATOM      7  C   UNL     1      -5.398  -1.536  -0.349  0.00  0.00    +0.075 C 
ATOM      8  C   UNL     1      -5.518  -2.760  -1.260  0.00  0.00    +0.022 C 
ATOM      9  C   UNL     1      -4.742  -3.929  -0.649  0.00  0.00    +0.002 C 
ATOM     10  C   UNL     1      -5.320  -4.260   0.728  0.00  0.00    +0.012 C 
ATOM     11  C   UNL     1      -5.201  -3.036   1.639  0.00  0.00    +0.095 C 
ATOM     12  C   UNL     1      -5.977  -1.867   1.028  0.00  0.00    +0.034 C 
BRANCH  11  13
ATOM     13  C   UNL     1      -5.779  -3.367   3.016  0.00  0.00    +0.393 C 
ATOM     14  F   UNL     1      -5.070  -4.436   3.575  0.00  0.00    -0.170 F 
ATOM     15  F   UNL     1      -5.670  -2.248   3.849  0.00  0.00    -0.170 F 
ATOM     16  F   UNL     1      -7.127  -3.720   2.884  0.00  0.00    -0.170 F 
ENDBRANCH  11  13
ENDBRANCH   4   7
BRANCH   1  17
ATOM     17  N   UNL     1      -1.382  -0.492   0.059  0.00  0.00    -0.232 NA
ATOM     18  H   UNL     1      -1.821  -0.237   0.931  0.00  0.00    +0.145 HD
BRANCH  17  20
ATOM     19  C   UNL     1      -0.019   1.526   0.010  0.00  0.00    +0.031 C 
ATOM     20  C   UNL     1       0.002  -0.004   0.002  0.00  0.00    +0.054 C 
ATOM     21  C   UNL     1       0.632  -0.478  -1.307  0.00  0.00    +0.047 C 
ATOM     22  C   UNL     1       2.169  -0.637  -1.140  0.00  0.00    +0.168 C 
ATOM     23  S   UNL     1       2.220  -1.358   0.560  0.00  0.00    -0.029 S 
ATOM     24  O   UNL     1       3.389  -0.902   1.226  0.00  0.00    -0.174 OA
ATOM     25  O   UNL     1       1.952  -2.752   0.484  0.00  0.00    -0.174 OA
ATOM     26  C   UNL     1       0.751  -0.495   1.257  0.00  0.00    +0.189 C 
ENDBRANCH  17  20
ENDBRANCH   1  17
TORSDOF 4
