REMARK  Name = ZINC62834006
REMARK  7 active torsions:
REMARK  status: ('A' for Active; 'I' for Inactive)
REMARK    1  A    between atoms: C_1  and  C_2
REMARK    2  A    between atoms: C_2  and  C_4
REMARK    3  A    between atoms: C_2  and  O_20
REMARK    4  A    between atoms: C_4  and  N_5
REMARK    5  A    between atoms: N_5  and  C_6
REMARK    6  A    between atoms: C_7  and  C_9
REMARK    7  A    between atoms: C_15  and  N_19
REMARK                            x       y       z     vdW  Elec       q    Type
REMARK                         _______ _______ _______ _____ _____    ______ ____
ROOT
ATOM      1  C   UNL     1       0.389  -4.246   2.187  0.00  0.00    +0.103 A 
ATOM      2  C   UNL     1      -0.392  -5.171   2.805  0.00  0.00    +0.041 A 
ATOM      3  C   UNL     1       0.337  -6.383   2.860  0.00  0.00    +0.002 A 
ATOM      4  C   UNL     1       0.050  -7.657   3.373  0.00  0.00    +0.010 A 
ATOM      5  C   UNL     1       0.975  -8.654   3.279  0.00  0.00    +0.002 A 
ATOM      6  C   UNL     1       2.207  -8.424   2.678  0.00  0.00    +0.025 A 
ATOM      7  C   UNL     1       2.517  -7.178   2.165  0.00  0.00    +0.049 A 
ATOM      8  C   UNL     1       1.582  -6.142   2.251  0.00  0.00    +0.068 A 
ATOM      9  N   UNL     1       1.591  -4.828   1.840  0.00  0.00    -0.349 N 
ATOM     10  H   UNL     1       2.324  -4.384   1.385  0.00  0.00    +0.166 HD
ENDROOT
BRANCH   1  13
ATOM     11  N   UNL     1       0.797  -2.071   1.154  0.00  0.00    -0.297 N 
ATOM     12  C   UNL     1       1.955  -2.651   0.469  0.00  0.00    +0.132 C 
ATOM     13  C   UNL     1       0.010  -2.849   1.924  0.00  0.00    +0.263 C 
ATOM     14  O   UNL     1      -1.013  -2.396   2.400  0.00  0.00    -0.268 OA
BRANCH  11  15
ATOM     15  C   UNL     1       0.494  -0.646   1.003  0.00  0.00    +0.138 C 
BRANCH  15  17
ATOM     16  C   UNL     1      -0.653   1.050  -0.429  0.00  0.00    +0.039 C 
ATOM     17  C   UNL     1      -0.437  -0.447  -0.195  0.00  0.00    +0.129 C 
BRANCH  17  18
ATOM     18  O   UNL     1      -1.694  -1.074   0.070  0.00  0.00    -0.391 OA
ATOM     19  H   UNL     1      -2.335  -0.987  -0.649  0.00  0.00    +0.210 HD
ENDBRANCH  17  18
ENDBRANCH  15  17
ENDBRANCH  11  15
ENDBRANCH   1  13
BRANCH   7  20
ATOM     20  N   UNL     1       3.759  -6.955   1.564  0.00  0.00    -0.356 N 
ATOM     21  H   UNL     1       4.406  -7.676   1.506  0.00  0.00    +0.142 HD
ATOM     22  H   UNL     1       3.974  -6.080   1.204  0.00  0.00    +0.142 HD
ENDBRANCH   7  20
TORSDOF 5
