REMARK  Name = ZINC39711159
REMARK  14 active torsions:
REMARK  status: ('A' for Active; 'I' for Inactive)
REMARK    1  A    between atoms: C_1  and  C_2
REMARK    2  A    between atoms: C_2  and  C_3
REMARK    3  A    between atoms: C_3  and  C_4
REMARK    4  A    between atoms: C_3  and  C_5
REMARK    5  A    between atoms: C_3  and  N_6
REMARK    6  A    between atoms: C_7  and  C_12
REMARK    7  A    between atoms: C_12  and  C_14
REMARK    8  A    between atoms: C_12  and  N_28
REMARK    9  A    between atoms: C_18  and  C_27
REMARK   10  A    between atoms: C_20  and  C_26
REMARK   11  A    between atoms: N_28  and  C_29
REMARK   12  A    between atoms: N_28  and  C_36
REMARK   13  A    between atoms: C_29  and  C_30
REMARK   14  A    between atoms: C_36  and  C_37
REMARK                            x       y       z     vdW  Elec       q    Type
REMARK                         _______ _______ _______ _____ _____    ______ ____
ROOT
ATOM      1  C   UNL     1       0.584  -4.123  -4.628  0.00  0.00    -0.010 C 
ENDROOT
BRANCH   1   2
ATOM      2  C   UNL     1       0.123  -2.685  -4.878  0.00  0.00    +0.088 C 
ATOM      3  C   UNL     1       1.338  -1.871  -5.280  0.00  0.00    -0.006 C 
ATOM      4  C   UNL     1       1.643  -0.785  -4.514  0.00  0.00    -0.004 A 
ATOM      5  C   UNL     1       2.798   0.056  -4.831  0.00  0.00    -0.042 A 
ATOM      6  C   UNL     1       3.065   1.127  -4.040  0.00  0.00    +0.007 A 
ATOM      7  C   UNL     1       2.263   1.435  -2.940  0.00  0.00    -0.048 A 
ATOM      8  C   UNL     1       1.178   0.695  -2.593  0.00  0.00    +0.027 A 
ATOM      9  C   UNL     1       0.814  -0.435  -3.348  0.00  0.00    +0.041 A 
ATOM     10  N   UNL     1      -0.253  -1.154  -2.999  0.00  0.00    -0.285 N 
ATOM     11  C   UNL     1      -0.648  -2.227  -3.661  0.00  0.00    +0.223 C 
ATOM     12  O   UNL     1      -1.631  -2.843  -3.294  0.00  0.00    -0.275 OA
ATOM     13  C   UNL     1       2.616   2.638  -2.103  0.00  0.00    +0.044 C 
ATOM     14  C   UNL     1       3.677  -0.262  -6.013  0.00  0.00    +0.044 C 
ATOM     15  H   UNL     1      -0.763  -0.876  -2.221  0.00  0.00    +0.155 HD
ENDBRANCH   1   2
BRANCH   1  17
ATOM     16  N   UNL     1       1.864  -5.515  -3.035  0.00  0.00    -0.211 N 
ATOM     17  C   UNL     1       1.621  -4.137  -3.503  0.00  0.00    +0.183 C 
ATOM     18  N   UNL     1       2.945  -3.721  -4.003  0.00  0.00    -0.229 N 
ATOM     19  N   UNL     1       3.793  -4.816  -3.799  0.00  0.00    -0.064 NA
ATOM     20  N   UNL     1       3.219  -5.769  -3.279  0.00  0.00    -0.061 NA
ATOM     21  H   UNL     1       3.180  -2.865  -4.393  0.00  0.00    +0.172 HD
BRANCH  16  22
ATOM     22  C   UNL     1       0.890  -6.428  -2.433  0.00  0.00    +0.050 C 
ATOM     23  C   UNL     1      -0.007  -7.010  -3.527  0.00  0.00    +0.033 C 
ATOM     24  C   UNL     1       0.031  -5.663  -1.423  0.00  0.00    +0.033 C 
BRANCH  22  26
ATOM     25  C   UNL     1       0.610  -8.566  -1.172  0.00  0.00    +0.006 C 
ATOM     26  C   UNL     1       1.627  -7.563  -1.719  0.00  0.00    +0.023 C 
ENDBRANCH  22  26
ENDBRANCH  16  22
ENDBRANCH   1  17
BRANCH   1  27
ATOM     27  N   UNL     1       1.184  -4.665  -5.854  0.00  0.00    +0.390 N 
ATOM     28  H   UNL     1       2.040  -4.170  -6.057  0.00  0.00    -0.080 HD
BRANCH  27  29
ATOM     29  C   UNL     1       1.476  -6.092  -5.666  0.00  0.00    -0.042 C 
BRANCH  29  30
ATOM     30  C   UNL     1       2.189  -6.624  -6.883  0.00  0.00    -0.064 A 
ATOM     31  C   UNL     1       1.461  -7.143  -7.938  0.00  0.00    +0.002 A 
ATOM     32  C   UNL     1       2.115  -7.630  -9.055  0.00  0.00    +0.000 A 
ATOM     33  C   UNL     1       3.495  -7.598  -9.117  0.00  0.00    +0.000 A 
ATOM     34  C   UNL     1       4.222  -7.078  -8.062  0.00  0.00    +0.000 A 
ATOM     35  C   UNL     1       3.569  -6.587  -6.948  0.00  0.00    +0.002 A 
ENDBRANCH  29  30
ENDBRANCH  27  29
BRANCH  27  36
ATOM     36  C   UNL     1       0.246  -4.500  -6.972  0.00  0.00    -0.035 C 
BRANCH  36  37
ATOM     37  C   UNL     1       0.861  -3.604  -8.016  0.00  0.00    -0.027 A 
ATOM     38  C   UNL     1       1.758  -3.911  -8.984  0.00  0.00    +0.009 A 
ATOM     39  C   UNL     1       2.188  -2.915  -9.841  0.00  0.00    +0.008 A 
ATOM     40  C   UNL     1       1.699  -1.660  -9.688  0.00  0.00    +0.045 A 
ATOM     41  S   UNL     1       0.591  -1.863  -8.303  0.00  0.00    -0.103 S 
ENDBRANCH  36  37
ENDBRANCH  27  36
ENDBRANCH   1  27
TORSDOF 9
