REMARK  Name = ZINC14467297
REMARK  7 active torsions:
REMARK  status: ('A' for Active; 'I' for Inactive)
REMARK    1  A    between atoms: C_1  and  C_2
REMARK    2  A    between atoms: C_4  and  C_37
REMARK    3  A    between atoms: C_6  and  N_8
REMARK    4  A    between atoms: N_8  and  S_9
REMARK    5  A    between atoms: S_9  and  C_12
REMARK    6  A    between atoms: C_25  and  C_28
REMARK    7  A    between atoms: C_33  and  O_34
REMARK                            x       y       z     vdW  Elec       q    Type
REMARK                         _______ _______ _______ _____ _____    ______ ____
ROOT
ATOM      1  C   UNL     1       3.574   1.848  -3.544  0.00  0.00    +0.109 A 
ATOM      2  C   UNL     1       3.246   0.749  -4.317  0.00  0.00    +0.030 A 
ATOM      3  C   UNL     1       2.229  -0.097  -3.923  0.00  0.00    +0.025 A 
ATOM      4  C   UNL     1       1.528   0.148  -2.748  0.00  0.00    +0.031 A 
ATOM      5  C   UNL     1       1.877   1.253  -1.964  0.00  0.00    -0.018 A 
ATOM      6  C   UNL     1       2.888   2.096  -2.370  0.00  0.00    +0.034 A 
ATOM      7  C   UNL     1       1.139   1.450  -0.697  0.00  0.00    +0.049 C 
ATOM      8  C   UNL     1       0.988   2.789  -0.073  0.00  0.00    -0.023 C 
ATOM      9  C   UNL     1      -0.167   2.824   0.580  0.00  0.00    -0.030 C 
ATOM     10  C   UNL     1      -0.906   1.495   0.409  0.00  0.00    +0.033 C 
ATOM     11  C   UNL     1      -0.333   0.992  -0.923  0.00  0.00    +0.029 C 
ATOM     12  C   UNL     1      -0.264  -0.512  -1.121  0.00  0.00    +0.109 C 
ATOM     13  N   UNL     1       0.489  -0.714  -2.378  0.00  0.00    -0.336 N 
ATOM     14  H   UNL     1       0.259  -1.458  -2.957  0.00  0.00    +0.147 HD
ENDROOT
BRANCH  12  15
ATOM     15  C   UNL     1       0.464  -1.156   0.030  0.00  0.00    +0.017 A 
ATOM     16  C   UNL     1       1.817  -1.421  -0.068  0.00  0.00    +0.029 A 
ATOM     17  C   UNL     1       2.486  -2.011   0.989  0.00  0.00    +0.043 A 
ATOM     18  C   UNL     1       1.802  -2.339   2.147  0.00  0.00    +0.043 A 
ATOM     19  C   UNL     1       0.449  -2.077   2.249  0.00  0.00    +0.084 A 
ATOM     20  C   UNL     1      -0.223  -1.478   1.191  0.00  0.00    +0.140 A 
ATOM     21 CL   UNL     1      -0.409  -2.487   3.702  0.00  0.00    -0.080 Cl
ATOM     22 CL   UNL     1       4.185  -2.342   0.863  0.00  0.00    -0.083 Cl
BRANCH  20  23
ATOM     23  O   UNL     1      -1.552  -1.214   1.292  0.00  0.00    -0.505 OA
ATOM     24  H   UNL     1      -2.121  -1.935   0.990  0.00  0.00    +0.292 HD
ENDBRANCH  20  23
ENDBRANCH  12  15
BRANCH   1  25
ATOM     25  S   UNL     1       4.865   2.931  -4.057  0.00  0.00    +0.072 S 
ATOM     26  O   UNL     1       5.065   2.698  -5.444  0.00  0.00    -0.150 OA
ATOM     27  O   UNL     1       4.548   4.216  -3.538  0.00  0.00    -0.150 OA
BRANCH  25  28
ATOM     28  N   UNL     1       6.249   2.441  -3.290  0.00  0.00    -0.216 N 
ATOM     29  H   UNL     1       6.684   3.027  -2.652  0.00  0.00    +0.174 HD
BRANCH  28  35
ATOM     30  C   UNL     1       8.696  -0.542  -6.334  0.00  0.00    +0.044 C 
ATOM     31  C   UNL     1       7.981  -0.293  -5.032  0.00  0.00    -0.048 A 
ATOM     32  C   UNL     1       7.859  -1.312  -4.104  0.00  0.00    +0.006 A 
ATOM     33  C   UNL     1       7.204  -1.087  -2.908  0.00  0.00    -0.048 A 
ATOM     34  C   UNL     1       6.669   0.156  -2.634  0.00  0.00    +0.028 A 
ATOM     35  C   UNL     1       6.790   1.182  -3.563  0.00  0.00    +0.049 A 
ATOM     36  C   UNL     1       7.444   0.951  -4.767  0.00  0.00    +0.028 A 
ATOM     37  C   UNL     1       7.073  -2.201  -1.901  0.00  0.00    +0.044 C 
ENDBRANCH  28  35
ENDBRANCH  25  28
ENDBRANCH   1  25
TORSDOF 5
