REMARK  Name = ZINC59829813
REMARK  15 active torsions:
REMARK  status: ('A' for Active; 'I' for Inactive)
REMARK    1  A    between atoms: C_1  and  C_2
REMARK    2  A    between atoms: C_3  and  C_11
REMARK    3  A    between atoms: C_4  and  C_10
REMARK    4  A    between atoms: N_5  and  C_7
REMARK    5  A    between atoms: C_7  and  C_8
REMARK    6  A    between atoms: N_12  and  N_13
REMARK    7  A    between atoms: C_14  and  C_16
REMARK    8  A    between atoms: C_16  and  C_18
REMARK    9  A    between atoms: C_16  and  S_19
REMARK   10  A    between atoms: S_19  and  C_20
REMARK   11  A    between atoms: C_23  and  C_28
REMARK   12  A    between atoms: N_24  and  C_25
REMARK   13  A    between atoms: C_25  and  C_26
REMARK   14  A    between atoms: C_28  and  N_29
REMARK   15  A    between atoms: N_29  and  C_30
REMARK                            x       y       z     vdW  Elec       q    Type
REMARK                         _______ _______ _______ _____ _____    ______ ____
ROOT
ATOM      1  S   UNL     1       0.635   4.785  -5.964  0.00  0.00    -0.073 S 
ENDROOT
BRANCH   1   2
ATOM      2  C   UNL     1       0.687   5.123  -7.692  0.00  0.00    +0.193 A 
ATOM      3  N   UNL     1       0.293   4.324  -8.656  0.00  0.00    -0.122 NA
ATOM      4  N   UNL     1       0.475   4.891  -9.795  0.00  0.00    -0.132 NA
ATOM      5  C   UNL     1       0.992   6.076  -9.628  0.00  0.00    +0.152 A 
ATOM      6  N   UNL     1       1.140   6.269  -8.282  0.00  0.00    -0.301 N 
BRANCH   6   7
ATOM      7  C   UNL     1       1.677   7.456  -7.612  0.00  0.00    +0.152 C 
BRANCH   7   8
ATOM      8  C   UNL     1       3.168   7.311  -7.452  0.00  0.00    -0.013 C 
ATOM      9  C   UNL     1       3.970   8.237  -7.916  0.00  0.00    +0.005 C 
ENDBRANCH   7   8
ENDBRANCH   6   7
BRANCH   5  10
ATOM     10  C   UNL     1       1.353   7.054 -10.715  0.00  0.00    +0.178 C 
BRANCH  10  11
ATOM     11  N   UNL     1       0.202   7.915 -11.000  0.00  0.00    -0.337 N 
ATOM     12  H   UNL     1      -0.625   7.796 -10.508  0.00  0.00    +0.147 HD
BRANCH  11  13
ATOM     13  C   UNL     1       0.297   8.908 -11.979  0.00  0.00    +0.028 A 
ATOM     14  C   UNL     1       1.480   9.075 -12.687  0.00  0.00    +0.024 A 
ATOM     15  C   UNL     1       1.571  10.057 -13.654  0.00  0.00    +0.022 A 
ATOM     16  C   UNL     1       0.485  10.873 -13.918  0.00  0.00    +0.041 A 
ATOM     17  C   UNL     1      -0.694  10.709 -13.213  0.00  0.00    +0.022 A 
ATOM     18  C   UNL     1      -0.793   9.725 -12.249  0.00  0.00    +0.024 A 
ATOM     19 CL   UNL     1       0.604  12.107 -15.133  0.00  0.00    -0.084 Cl
ENDBRANCH  11  13
ENDBRANCH  10  11
ENDBRANCH   5  10
ENDBRANCH   1   2
BRANCH   1  20
ATOM     20  C   UNL     1      -0.066   3.115  -5.864  0.00  0.00    +0.139 C 
ATOM     21  C   UNL     1      -1.506   3.134  -6.381  0.00  0.00    +0.029 C 
BRANCH  20  23
ATOM     22  N   UNL     1      -0.034   1.331  -4.151  0.00  0.00    -0.206 N 
ATOM     23  C   UNL     1      -0.053   2.649  -4.431  0.00  0.00    +0.245 C 
ATOM     24  O   UNL     1      -0.059   3.461  -3.529  0.00  0.00    -0.273 OA
ATOM     25  H   UNL     1      -0.029   0.682  -4.872  0.00  0.00    +0.177 HD
BRANCH  22  27
ATOM     26  C   UNL     1      -0.004  -0.370  -2.549  0.00  0.00    +0.141 C 
ATOM     27  N   UNL     1      -0.022   0.898  -2.818  0.00  0.00    -0.188 NA
BRANCH  26  30
ATOM     28  C   UNL     1      -0.018   1.503   0.010  0.00  0.00    +0.068 C 
ATOM     29  C   UNL     1       0.002  -0.004   0.002  0.00  0.00    +0.069 A 
ATOM     30  C   UNL     1       0.008  -0.826  -1.145  0.00  0.00    +0.038 A 
ATOM     31  C   UNL     1       0.028  -2.134  -0.711  0.00  0.00    +0.045 A 
ATOM     32  N   UNL     1       0.034  -2.111   0.636  0.00  0.00    -0.264 N 
ATOM     33  N   UNL     1       0.023  -0.776   1.055  0.00  0.00    -0.175 NA
ATOM     34  C   UNL     1       0.040  -3.364  -1.583  0.00  0.00    +0.066 C 
BRANCH  32  35
ATOM     35  C   UNL     1       0.053  -3.285   1.513  0.00  0.00    +0.170 C 
BRANCH  35  36
ATOM     36  C   UNL     1       1.481  -3.668   1.808  0.00  0.00    -0.012 C 
ATOM     37  C   UNL     1       1.889  -3.772   3.048  0.00  0.00    +0.006 C 
ENDBRANCH  35  36
ENDBRANCH  32  35
ENDBRANCH  26  30
ENDBRANCH  22  27
ENDBRANCH  20  23
ENDBRANCH   1  20
TORSDOF 12
