REMARK  Name = ZINC11424720
REMARK  10 active torsions:
REMARK  status: ('A' for Active; 'I' for Inactive)
REMARK    1  A    between atoms: C_1  and  C_2
REMARK    2  A    between atoms: C_2  and  O_3
REMARK    3  A    between atoms: O_3  and  C_4
REMARK    4  A    between atoms: C_4  and  C_6
REMARK    5  A    between atoms: C_7  and  C_20
REMARK    6  A    between atoms: C_12  and  C_14
REMARK    7  A    between atoms: C_20  and  S_21
REMARK    8  A    between atoms: S_21  and  C_22
REMARK    9  A    between atoms: N_26  and  C_27
REMARK   10  A    between atoms: C_33  and  C_36
REMARK                            x       y       z     vdW  Elec       q    Type
REMARK                         _______ _______ _______ _____ _____    ______ ____
ROOT
ATOM      1  C   UNL     1       9.493   6.052   1.991  0.00  0.00    +0.079 C 
ATOM      2  C   UNL     1       8.729   5.665   0.947  0.00  0.00    +0.034 C 
ATOM      3  N   UNL     1       8.857   6.256  -0.277  0.00  0.00    -0.272 N 
ATOM      4  C   UNL     1       9.729   7.238  -0.540  0.00  0.00    +0.304 C 
ATOM      5  O   UNL     1       9.769   7.703  -1.663  0.00  0.00    -0.252 OA
ATOM      6  N   UNL     1      10.562   7.728   0.399  0.00  0.00    -0.288 N 
ATOM      7  C   UNL     1      10.503   7.156   1.755  0.00  0.00    +0.144 C 
ATOM      8  H   UNL     1       8.284   5.948  -0.997  0.00  0.00    +0.156 HD
ATOM      9  H   UNL     1      11.186   8.439   0.186  0.00  0.00    +0.151 HD
ENDROOT
BRANCH   7  10
ATOM     10  C   UNL     1      11.870   6.620   2.093  0.00  0.00    -0.023 A 
ATOM     11  C   UNL     1      12.609   5.954   1.132  0.00  0.00    +0.006 A 
ATOM     12  C   UNL     1      13.864   5.466   1.441  0.00  0.00    +0.000 A 
ATOM     13  C   UNL     1      14.379   5.636   2.713  0.00  0.00    +0.000 A 
ATOM     14  C   UNL     1      13.638   6.297   3.675  0.00  0.00    +0.000 A 
ATOM     15  C   UNL     1      12.384   6.789   3.365  0.00  0.00    +0.006 A 
ENDBRANCH   7  10
BRANCH   1  16
ATOM     16  C   UNL     1       9.357   5.445   3.261  0.00  0.00    +0.339 C 
ATOM     17  O   UNL     1       8.729   6.005   4.140  0.00  0.00    -0.245 OA
BRANCH  16  18
ATOM     18  O   UNL     1       9.925   4.244   3.499  0.00  0.00    -0.462 OA
BRANCH  18  20
ATOM     19  C   UNL     1      10.457   2.336   4.883  0.00  0.00    +0.048 C 
ATOM     20  C   UNL     1       9.748   3.689   4.804  0.00  0.00    +0.229 C 
ENDBRANCH  18  20
ENDBRANCH  16  18
ENDBRANCH   1  16
BRANCH   2  21
ATOM     21  C   UNL     1       7.715   4.567   1.137  0.00  0.00    +0.128 C 
BRANCH  21  22
ATOM     22  S   UNL     1       6.051   5.286   1.210  0.00  0.00    -0.080 S 
BRANCH  22  23
ATOM     23  C   UNL     1       4.995   3.893   1.432  0.00  0.00    +0.193 A 
ATOM     24  N   UNL     1       5.376   2.642   1.519  0.00  0.00    -0.121 NA
ATOM     25  N   UNL     1       4.232   1.852   1.696  0.00  0.00    -0.112 NA
ATOM     26  C   UNL     1       3.190   2.646   1.704  0.00  0.00    +0.221 A 
ATOM     27  N   UNL     1       3.633   3.928   1.544  0.00  0.00    -0.287 N 
ATOM     28  N   UNL     1       1.866   2.252   1.854  0.00  0.00    -0.300 N 
ATOM     29  C   UNL     1       1.116   2.442   0.606  0.00  0.00    +0.108 C 
ATOM     30  C   UNL     1      -0.364   2.138   0.848  0.00  0.00    +0.022 C 
ATOM     31  C   UNL     1      -0.510   0.695   1.338  0.00  0.00    -0.011 C 
ATOM     32  C   UNL     1       0.320   0.510   2.611  0.00  0.00    +0.022 C 
ATOM     33  C   UNL     1       1.780   0.862   2.319  0.00  0.00    +0.108 C 
ATOM     34  C   UNL     1      -1.982   0.403   1.639  0.00  0.00    +0.007 C 
BRANCH  27  35
ATOM     35  C   UNL     1       2.795   5.129   1.501  0.00  0.00    +0.093 C 
ATOM     36  C   UNL     1       3.228   6.323   2.354  0.00  0.00    +0.027 C 
ATOM     37  C   UNL     1       2.010   5.489   2.764  0.00  0.00    +0.027 C 
ENDBRANCH  27  35
ENDBRANCH  22  23
ENDBRANCH  21  22
ENDBRANCH   2  21
TORSDOF 8
