REMARK  Name = ZINC08414138
REMARK  6 active torsions:
REMARK  status: ('A' for Active; 'I' for Inactive)
REMARK    1  A    between atoms: C_3  and  N_22
REMARK    2  A    between atoms: C_6  and  N_7
REMARK    3  A    between atoms: C_11  and  N_71
REMARK    4  A    between atoms: C_15  and  N_71
REMARK    5  A    between atoms: C_26  and  N_74
REMARK    6  A    between atoms: C_30  and  N_74
REMARK                            x       y       z     vdW  Elec       q    Type
REMARK                         _______ _______ _______ _____ _____    ______ ____
ROOT
ATOM      1  C   UNL     1      -2.649   2.567  -4.117  0.00  0.00    +0.026 A 
ATOM      2  C   UNL     1      -2.929   3.414  -5.170  0.00  0.00    +0.026 A 
ATOM      3  C   UNL     1      -1.893   4.019  -5.869  0.00  0.00    +0.044 A 
ATOM      4  C   UNL     1      -0.575   3.775  -5.506  0.00  0.00    +0.026 A 
ATOM      5  C   UNL     1      -0.295   2.932  -4.449  0.00  0.00    +0.026 A 
ATOM      6  C   UNL     1      -1.331   2.328  -3.750  0.00  0.00    +0.044 A 
ENDROOT
BRANCH   6   7
ATOM      7  N   UNL     1      -1.047   1.470  -2.677  0.00  0.00    -0.212 N 
ATOM      8  C   UNL     1      -1.348   1.774  -1.408  0.00  0.00    +0.225 C 
ATOM      9  O   UNL     1      -1.887   2.795  -1.039  0.00  0.00    -0.275 OA
ATOM     10  C   UNL     1      -0.909   0.640  -0.507  0.00  0.00    +0.090 C 
ATOM     11  C   UNL     1      -0.296  -0.382  -1.486  0.00  0.00    +0.026 C 
ATOM     12  C   UNL     1      -0.452   0.282  -2.837  0.00  0.00    +0.213 C 
ATOM     13  O   UNL     1      -0.095  -0.188  -3.896  0.00  0.00    -0.277 OA
BRANCH  11  14
ATOM     14  N   UNL     1      -1.044  -1.653  -1.447  0.00  0.00    +0.389 N 
ATOM     15  H   UNL     1      -0.916  -2.148  -2.338  0.00  0.00    -0.084 HD
ATOM     16  H   UNL     1      -2.041  -1.455  -1.306  0.00  0.00    -0.084 HD
BRANCH  14  17
ATOM     17  C   UNL     1      -0.555  -2.501  -0.344  0.00  0.00    -0.071 C 
ATOM     18  C   UNL     1       0.683  -3.285  -0.825  0.00  0.00    -0.016 C 
ATOM     19  C   UNL     1       1.461  -3.736   0.382  0.00  0.00    -0.002 C 
ATOM     20  C   UNL     1       1.086  -5.164   0.823  0.00  0.00    -0.000 C 
ATOM     21  C   UNL     1      -0.431  -5.429   0.763  0.00  0.00    -0.000 C 
ATOM     22  C   UNL     1      -1.238  -4.267   1.276  0.00  0.00    -0.002 C 
ATOM     23  C   UNL     1      -1.636  -3.380   0.079  0.00  0.00    -0.016 C 
ENDBRANCH  14  17
ENDBRANCH  11  14
ENDBRANCH   6   7
BRANCH   3  24
ATOM     24  N   UNL     1      -2.177   4.876  -6.943  0.00  0.00    -0.212 N 
ATOM     25  C   UNL     1      -2.710   4.445  -8.093  0.00  0.00    +0.225 C 
ATOM     26  O   UNL     1      -3.005   3.296  -8.342  0.00  0.00    -0.275 OA
ATOM     27  C   UNL     1      -2.887   5.619  -9.031  0.00  0.00    +0.090 C 
ATOM     28  C   UNL     1      -2.357   6.816  -8.215  0.00  0.00    +0.026 C 
ATOM     29  C   UNL     1      -1.943   6.193  -6.900  0.00  0.00    +0.213 C 
ATOM     30  O   UNL     1      -1.470   6.792  -5.957  0.00  0.00    -0.277 OA
BRANCH  28  31
ATOM     31  N   UNL     1      -3.430   7.805  -8.004  0.00  0.00    +0.389 N 
ATOM     32  H   UNL     1      -3.966   7.550  -7.166  0.00  0.00    -0.084 HD
ATOM     33  H   UNL     1      -4.053   7.810  -8.820  0.00  0.00    -0.084 HD
BRANCH  31  34
ATOM     34  C   UNL     1      -2.857   9.152  -7.822  0.00  0.00    -0.071 C 
ATOM     35  C   UNL     1      -3.810   9.977  -6.933  0.00  0.00    -0.016 C 
ATOM     36  C   UNL     1      -3.034  11.120  -6.333  0.00  0.00    -0.002 C 
ATOM     37  C   UNL     1      -3.154  12.412  -7.164  0.00  0.00    -0.000 C 
ATOM     38  C   UNL     1      -3.066  12.157  -8.681  0.00  0.00    -0.000 C 
ATOM     39  C   UNL     1      -2.002  11.154  -9.036  0.00  0.00    -0.002 C 
ATOM     40  C   UNL     1      -2.655   9.759  -9.129  0.00  0.00    -0.016 C 
ENDBRANCH  31  34
ENDBRANCH  28  31
ENDBRANCH   3  24
TORSDOF 6
