REMARK  Name = ZINC14654124
REMARK  10 active torsions:
REMARK  status: ('A' for Active; 'I' for Inactive)
REMARK    1  A    between atoms: C_1  and  C_2
REMARK    2  A    between atoms: C_2  and  C_3
REMARK    3  A    between atoms: C_3  and  O_4
REMARK    4  A    between atoms: O_4  and  C_5
REMARK    5  A    between atoms: C_10  and  C_11
REMARK    6  A    between atoms: N_13  and  C_14
REMARK    7  A    between atoms: C_14  and  N_16
REMARK    8  A    between atoms: N_16  and  N_17
REMARK    9  A    between atoms: C_18  and  C_20
REMARK   10  A    between atoms: C_23  and  N_26
REMARK                            x       y       z     vdW  Elec       q    Type
REMARK                         _______ _______ _______ _____ _____    ______ ____
ROOT
ATOM      1  C   UNL     1      -0.353  -6.860  -0.032  0.00  0.00    +0.153 C 
ATOM      2  S   UNL     1       1.166  -6.071  -0.043  0.00  0.00    -0.017 S 
ENDROOT
BRANCH   1   5
ATOM      3  C   UNL     1      -1.429  -4.789  -0.011  0.00  0.00    +0.253 C 
ATOM      4  O   UNL     1      -0.350  -4.228  -0.018  0.00  0.00    -0.270 OA
ATOM      5  N   UNL     1      -1.489  -6.135  -0.017  0.00  0.00    -0.263 N 
ATOM      6  H   UNL     1      -2.350  -6.582  -0.011  0.00  0.00    +0.157 HD
BRANCH   3  12
ATOM      7  C   UNL     1      -2.614  -2.595   0.013  0.00  0.00    +0.133 A 
ATOM      8  C   UNL     1      -3.789  -1.858   0.022  0.00  0.00    +0.047 A 
ATOM      9  C   UNL     1      -5.010  -2.502   0.031  0.00  0.00    +0.019 A 
ATOM     10  C   UNL     1      -5.072  -3.888   0.031  0.00  0.00    +0.019 A 
ATOM     11  C   UNL     1      -3.914  -4.635   0.021  0.00  0.00    +0.032 A 
ATOM     12  C   UNL     1      -2.672  -3.995   0.006  0.00  0.00    +0.080 A 
ATOM     13 BR   UNL     1      -6.753  -4.755   0.043  0.00  0.00    -0.050 Br
BRANCH   7  14
ATOM     14  O   UNL     1      -1.414  -1.962   0.005  0.00  0.00    -0.491 OA
BRANCH  14  15
ATOM     15  C   UNL     1      -1.433  -0.534   0.013  0.00  0.00    +0.229 C 
BRANCH  15  17
ATOM     16  C   UNL     1      -0.019   1.526   0.010  0.00  0.00    +0.007 C 
ATOM     17  C   UNL     1       0.002  -0.004   0.002  0.00  0.00    +0.038 C 
ENDBRANCH  15  17
ENDBRANCH  14  15
ENDBRANCH   7  14
ENDBRANCH   3  12
ENDBRANCH   1   5
BRANCH   1  18
ATOM     18  N   UNL     1      -0.413  -8.207  -0.039  0.00  0.00    -0.245 N 
ATOM     19  H   UNL     1       0.404  -8.729  -0.050  0.00  0.00    +0.172 HD
BRANCH  18  20
ATOM     20  N   UNL     1      -1.657  -8.852  -0.030  0.00  0.00    -0.231 N 
ATOM     21  C   UNL     1      -1.717 -10.199  -0.037  0.00  0.00    +0.260 C 
ATOM     22  O   UNL     1      -0.693 -10.853  -0.051  0.00  0.00    -0.269 OA
ATOM     23  H   UNL     1      -2.474  -8.331  -0.019  0.00  0.00    +0.173 HD
BRANCH  21  24
ATOM     24  C   UNL     1      -3.029 -10.880  -0.027  0.00  0.00    +0.038 A 
ATOM     25  C   UNL     1      -4.207 -10.132  -0.017  0.00  0.00    +0.015 A 
ATOM     26  C   UNL     1      -5.428 -10.774  -0.009  0.00  0.00    +0.033 A 
ATOM     27  C   UNL     1      -5.486 -12.157  -0.010  0.00  0.00    +0.126 A 
ATOM     28  C   UNL     1      -4.322 -12.904  -0.020  0.00  0.00    +0.033 A 
ATOM     29  C   UNL     1      -3.095 -12.274  -0.034  0.00  0.00    +0.015 A 
BRANCH  27  30
ATOM     30  N   UNL     1      -6.800 -12.839   0.000  0.00  0.00    +0.056 N 
ATOM     31  O   UNL     1      -7.819 -12.188   0.009  0.00  0.00    -0.126 OA
ATOM     32  O   UNL     1      -6.854 -14.047  -0.001  0.00  0.00    -0.126 OA
ENDBRANCH  27  30
ENDBRANCH  21  24
ENDBRANCH  18  20
ENDBRANCH   1  18
TORSDOF 9
