REMARK  Name = ZINC07516951
REMARK  6 active torsions:
REMARK  status: ('A' for Active; 'I' for Inactive)
REMARK    1  A    between atoms: C_1  and  C_2
REMARK    2  A    between atoms: C_2  and  O_3
REMARK    3  A    between atoms: O_3  and  C_4
REMARK    4  A    between atoms: C_4  and  C_6
REMARK    5  A    between atoms: C_7  and  N_28
REMARK    6  A    between atoms: C_18  and  C_20
REMARK                            x       y       z     vdW  Elec       q    Type
REMARK                         _______ _______ _______ _____ _____    ______ ____
ROOT
ATOM      1  C   UNL     1       1.425  -2.323  -2.465  0.00  0.00    +0.106 C 
ATOM      2  C   UNL     1       1.605  -3.663  -2.571  0.00  0.00    +0.197 C 
ATOM      3  O   UNL     1       2.211  -4.218  -3.634  0.00  0.00    -0.423 OA
ATOM      4  C   UNL     1       2.989  -3.462  -4.438  0.00  0.00    +0.236 A 
ATOM      5  C   UNL     1       2.884  -2.086  -4.437  0.00  0.00    +0.091 A 
ATOM      6  C   UNL     1       3.712  -1.341  -5.288  0.00  0.00    +0.262 A 
ATOM      7  O   UNL     1       3.643  -0.122  -5.311  0.00  0.00    -0.267 OA
ATOM      8  N   UNL     1       4.585  -1.996  -6.081  0.00  0.00    -0.273 N 
ATOM      9  H   UNL     1       5.167  -1.498  -6.677  0.00  0.00    +0.173 HD
ATOM     10  C   UNL     1       4.650  -3.352  -6.045  0.00  0.00    +0.352 A 
ATOM     11  O   UNL     1       5.528  -3.992  -6.844  0.00  0.00    -0.245 OA
ATOM     12  N   UNL     1       3.876  -4.055  -5.249  0.00  0.00    -0.157 NA
ATOM     13  C   UNL     1       1.895  -1.387  -3.544  0.00  0.00    +0.103 C 
ENDROOT
BRANCH  13  14
ATOM     14  C   UNL     1       0.712  -0.933  -4.361  0.00  0.00    -0.015 A 
ATOM     15  C   UNL     1      -0.064  -1.861  -5.029  0.00  0.00    +0.006 A 
ATOM     16  C   UNL     1      -1.149  -1.445  -5.777  0.00  0.00    +0.002 A 
ATOM     17  C   UNL     1      -1.458  -0.101  -5.860  0.00  0.00    +0.021 A 
ATOM     18  C   UNL     1      -0.683   0.830  -5.192  0.00  0.00    +0.060 A 
ATOM     19  C   UNL     1       0.401   0.412  -4.437  0.00  0.00    +0.063 A 
ATOM     20 CL   UNL     1       1.371   1.578  -3.592  0.00  0.00    -0.082 Cl
ATOM     21 CL   UNL     1      -1.071   2.519  -5.295  0.00  0.00    -0.082 Cl
ENDBRANCH  13  14
BRANCH   2  22
ATOM     22  N   UNL     1       1.157  -4.476  -1.565  0.00  0.00    -0.329 N 
ATOM     23  H   UNL     1       0.651  -4.100  -0.827  0.00  0.00    +0.145 HD
ATOM     24  H   UNL     1       1.345  -5.427  -1.589  0.00  0.00    +0.145 HD
ENDBRANCH   2  22
BRANCH   1  25
ATOM     25  C   UNL     1       0.785  -1.801  -1.330  0.00  0.00    +0.341 C 
ATOM     26  O   UNL     1       1.444  -1.299  -0.436  0.00  0.00    -0.245 OA
BRANCH  25  27
ATOM     27  O   UNL     1      -0.560  -1.855  -1.229  0.00  0.00    -0.462 OA
BRANCH  27  29
ATOM     28  C   UNL     1      -2.666  -1.456  -0.113  0.00  0.00    +0.048 C 
ATOM     29  C   UNL     1      -1.145  -1.305  -0.047  0.00  0.00    +0.229 C 
ENDBRANCH  27  29
ENDBRANCH  25  27
ENDBRANCH   1  25
TORSDOF 5
