REMARK  Name = ZINC20882248
REMARK  7 active torsions:
REMARK  status: ('A' for Active; 'I' for Inactive)
REMARK    1  A    between atoms: C_1  and  C_2
REMARK    2  A    between atoms: C_2  and  C_3
REMARK    3  A    between atoms: C_2  and  C_4
REMARK    4  A    between atoms: C_4  and  O_5
REMARK    5  A    between atoms: O_5  and  C_6
REMARK    6  A    between atoms: C_9  and  C_12
REMARK    7  A    between atoms: C_17  and  C_27
REMARK                            x       y       z     vdW  Elec       q    Type
REMARK                         _______ _______ _______ _____ _____    ______ ____
ROOT
ATOM      1  C   UNL     1      -1.170   3.290  -0.633  0.00  0.00    +0.032 C 
ATOM      2  C   UNL     1      -0.066   4.033   0.117  0.00  0.00    +0.059 C 
ATOM      3  C   UNL     1       1.235   3.251   0.027  0.00  0.00    +0.017 C 
ATOM      4  C   UNL     1       1.216   1.909   0.001  0.00  0.00    +0.039 C 
ATOM      5  C   UNL     1       2.428   1.006  -0.039  0.00  0.00    +0.172 C 
ATOM      6  N   UNL     1       3.673   1.694  -0.312  0.00  0.00    -0.329 N 
ATOM      7  C   UNL     1       4.184   2.636   0.576  0.00  0.00    +0.049 A 
ATOM      8  C   UNL     1       5.357   2.401   1.279  0.00  0.00    +0.025 A 
ATOM      9  C   UNL     1       5.791   3.329   2.209  0.00  0.00    +0.002 A 
ATOM     10  C   UNL     1       5.065   4.484   2.438  0.00  0.00    +0.002 A 
ATOM     11  C   UNL     1       3.906   4.733   1.722  0.00  0.00    +0.025 A 
ATOM     12  C   UNL     1       3.481   3.813   0.780  0.00  0.00    +0.052 A 
ATOM     13  N   UNL     1       2.353   4.021  -0.007  0.00  0.00    -0.316 N 
ATOM     14  C   UNL     1      -0.014   1.211   0.009  0.00  0.00    +0.163 C 
ATOM     15  O   UNL     1       0.002  -0.004   0.002  0.00  0.00    -0.292 OA
ATOM     16  C   UNL     1      -1.338   1.915   0.019  0.00  0.00    +0.088 C 
ATOM     17  H   UNL     1       4.231   1.475  -1.235  0.00  0.00    +0.147 HD
ATOM     18  H   UNL     1       2.408   4.879  -0.693  0.00  0.00    +0.152 HD
ENDROOT
BRANCH   1  22
ATOM     19  C   UNL     1      -4.831   5.479  -0.365  0.00  0.00    +0.121 A 
ATOM     20  C   UNL     1      -4.267   5.216  -1.605  0.00  0.00    +0.046 A 
ATOM     21  C   UNL     1      -3.084   4.509  -1.689  0.00  0.00    +0.007 A 
ATOM     22  C   UNL     1      -2.461   4.062  -0.538  0.00  0.00    -0.043 A 
ATOM     23  C   UNL     1      -3.024   4.317   0.699  0.00  0.00    +0.007 A 
ATOM     24  C   UNL     1      -4.204   5.029   0.788  0.00  0.00    +0.046 A 
BRANCH  19  25
ATOM     25  O   UNL     1      -5.994   6.176  -0.280  0.00  0.00    -0.492 OA
BRANCH  25  26
ATOM     26  C   UNL     1      -6.516   6.409   1.030  0.00  0.00    +0.232 C 
BRANCH  26  28
ATOM     27  C   UNL     1      -8.877   6.355   0.213  0.00  0.00    +0.010 C 
ATOM     28  C   UNL     1      -7.821   7.202   0.925  0.00  0.00    +0.020 C 
ATOM     29  C   UNL     1      -8.314   7.559   2.329  0.00  0.00    +0.010 C 
ENDBRANCH  26  28
ENDBRANCH  25  26
ENDBRANCH  19  25
ENDBRANCH   1  22
BRANCH   5  30
ATOM     30  C   UNL     1       2.549   0.309   1.292  0.00  0.00    +0.130 A 
ATOM     31  C   UNL     1       2.151  -0.947   1.560  0.00  0.00    +0.047 A 
ATOM     32  C   UNL     1       2.455  -1.191   2.920  0.00  0.00    +0.041 A 
ATOM     33  C   UNL     1       3.013  -0.067   3.402  0.00  0.00    +0.195 A 
ATOM     34  O   UNL     1       3.067   0.839   2.412  0.00  0.00    -0.466 OA
ENDBRANCH   5  30
TORSDOF 5
