REMARK  Name = ZINC00960114
REMARK  9 active torsions:
REMARK  status: ('A' for Active; 'I' for Inactive)
REMARK    1  A    between atoms: C_1  and  C_2
REMARK    2  A    between atoms: C_5  and  C_8
REMARK    3  A    between atoms: C_8  and  O_9
REMARK    4  A    between atoms: O_9  and  C_10
REMARK    5  A    between atoms: C_11  and  O_31
REMARK    6  A    between atoms: C_13  and  C_17
REMARK    7  A    between atoms: C_19  and  C_28
REMARK    8  A    between atoms: C_20  and  C_27
REMARK    9  A    between atoms: O_31  and  C_32
REMARK                            x       y       z     vdW  Elec       q    Type
REMARK                         _______ _______ _______ _____ _____    ______ ____
ROOT
ATOM      1  C   UNL     1       0.519  -6.085  -0.804  0.00  0.00    +0.176 A 
ATOM      2  C   UNL     1       0.841  -6.550   0.467  0.00  0.00    +0.163 A 
ATOM      3  C   UNL     1       1.317  -7.841   0.629  0.00  0.00    +0.055 A 
ATOM      4  C   UNL     1       1.471  -8.665  -0.471  0.00  0.00    -0.016 A 
ATOM      5  C   UNL     1       1.152  -8.203  -1.734  0.00  0.00    +0.025 A 
ATOM      6  C   UNL     1       0.670  -6.916  -1.902  0.00  0.00    +0.063 A 
ATOM      7 BR   UNL     1       0.227  -6.291  -3.631  0.00  0.00    -0.046 Br
ENDROOT
BRANCH   4   8
ATOM      8  C   UNL     1       1.988 -10.069  -0.293  0.00  0.00    +0.164 C 
ATOM      9  C   UNL     1       0.796 -11.008  -0.226  0.00  0.00    +0.061 C 
ATOM     10  C   UNL     1       0.737 -12.008  -1.155  0.00  0.00    +0.052 C 
ATOM     11  N   UNL     1       1.674 -12.163  -2.080  0.00  0.00    -0.218 NA
ATOM     12  C   UNL     1       2.740 -11.393  -2.209  0.00  0.00    +0.237 C 
ATOM     13  N   UNL     1       2.957 -10.338  -1.361  0.00  0.00    -0.208 N 
ATOM     14  N   UNL     1       4.152  -9.739  -1.768  0.00  0.00    -0.251 N 
ATOM     15  C   UNL     1       4.595 -10.449  -2.831  0.00  0.00    +0.203 C 
ATOM     16  N   UNL     1       3.767 -11.417  -3.081  0.00  0.00    -0.205 NA
ATOM     17  C   UNL     1      -0.427 -12.964  -1.126  0.00  0.00    +0.066 C 
ATOM     18  H   UNL     1       4.579  -8.966  -1.367  0.00  0.00    +0.171 HD
BRANCH   9  19
ATOM     19  C   UNL     1      -0.204 -10.855   0.752  0.00  0.00    +0.241 C 
ATOM     20  O   UNL     1      -0.015 -11.261   1.886  0.00  0.00    -0.271 OA
ATOM     21  N   UNL     1      -1.370 -10.258   0.435  0.00  0.00    -0.325 N 
ATOM     22  H   UNL     1      -1.494  -9.872  -0.446  0.00  0.00    +0.145 HD
ATOM     23  H   UNL     1      -2.086 -10.215   1.089  0.00  0.00    +0.145 HD
ENDBRANCH   9  19
ENDBRANCH   4   8
BRANCH   2  24
ATOM     24  O   UNL     1       0.689  -5.740   1.548  0.00  0.00    -0.491 OA
ATOM     25  C   UNL     1       1.039  -6.285   2.822  0.00  0.00    +0.277 C 
ENDBRANCH   2  24
BRANCH   1  26
ATOM     26  O   UNL     1       0.052  -4.818  -0.968  0.00  0.00    -0.483 OA
BRANCH  26  27
ATOM     27  C   UNL     1      -1.363  -4.633  -0.892  0.00  0.00    +0.264 C 
BRANCH  27  32
ATOM     28  C   UNL     1      -2.626   0.951  -1.673  0.00  0.00    +0.044 C 
ATOM     29  C   UNL     1      -2.297  -0.505  -1.469  0.00  0.00    -0.050 A 
ATOM     30  C   UNL     1      -2.232  -1.357  -2.555  0.00  0.00    +0.004 A 
ATOM     31  C   UNL     1      -1.930  -2.693  -2.369  0.00  0.00    +0.007 A 
ATOM     32  C   UNL     1      -1.692  -3.177  -1.096  0.00  0.00    -0.010 A 
ATOM     33  C   UNL     1      -1.756  -2.324  -0.009  0.00  0.00    +0.007 A 
ATOM     34  C   UNL     1      -2.054  -0.988  -0.197  0.00  0.00    +0.004 A 
ENDBRANCH  27  32
ENDBRANCH  26  27
ENDBRANCH   1  26
TORSDOF 6
