REMARK  Name = ZINC06772851
REMARK  13 active torsions:
REMARK  status: ('A' for Active; 'I' for Inactive)
REMARK    1  A    between atoms: C_1  and  C_2
REMARK    2  A    between atoms: C_3  and  C_17
REMARK    3  A    between atoms: C_4  and  C_16
REMARK    4  A    between atoms: N_10  and  C_15
REMARK    5  A    between atoms: N_13  and  C_14
REMARK    6  A    between atoms: C_17  and  C_18
REMARK    7  A    between atoms: C_18  and  C_19
REMARK    8  A    between atoms: N_21  and  C_22
REMARK    9  A    between atoms: C_22  and  C_23
REMARK   10  A    between atoms: C_28  and  C_29
REMARK   11  A    between atoms: C_28  and  N_66
REMARK   12  A    between atoms: C_29  and  C_30
REMARK   13  A    between atoms: C_29  and  C_31
REMARK                            x       y       z     vdW  Elec       q    Type
REMARK                         _______ _______ _______ _____ _____    ______ ____
ROOT
ATOM      1  C   UNL     1      -2.897   1.558   0.004  0.00  0.00    +0.046 C 
ENDROOT
BRANCH   1   4
ATOM      2  C   UNL     1      -0.013   1.086   0.008  0.00  0.00    +0.045 C 
ATOM      3  C   UNL     1      -0.718   1.572   1.248  0.00  0.00    -0.030 A 
ATOM      4  C   UNL     1      -2.085   1.797   1.251  0.00  0.00    -0.022 A 
ATOM      5  C   UNL     1      -2.700   2.239   2.410  0.00  0.00    +0.044 A 
ATOM      6  N   UNL     1      -2.013   2.462   3.514  0.00  0.00    -0.234 NA
ATOM      7  C   UNL     1      -0.706   2.268   3.566  0.00  0.00    +0.150 A 
ATOM      8  C   UNL     1      -0.015   1.815   2.427  0.00  0.00    +0.085 A 
ATOM      9  C   UNL     1       1.440   1.610   2.522  0.00  0.00    +0.266 A 
ATOM     10  O   UNL     1       2.080   1.219   1.566  0.00  0.00    -0.267 OA
ATOM     11  N   UNL     1       2.044   1.869   3.703  0.00  0.00    -0.263 N 
ATOM     12  C   UNL     1       1.341   2.300   4.762  0.00  0.00    +0.333 A 
ATOM     13  O   UNL     1       1.933   2.519   5.801  0.00  0.00    -0.246 OA
ATOM     14  N   UNL     1       0.013   2.502   4.724  0.00  0.00    -0.281 N 
ATOM     15  C   UNL     1      -0.681   2.974   5.925  0.00  0.00    +0.155 C 
ATOM     16  C   UNL     1       3.491   1.676   3.829  0.00  0.00    +0.157 C 
ATOM     17  C   UNL     1      -4.188   2.476   2.409  0.00  0.00    +0.066 C 
ENDBRANCH   1   4
BRANCH   1  18
ATOM     18  C   UNL     1      -3.396   0.111  -0.010  0.00  0.00    +0.100 C 
BRANCH  18  19
ATOM     19  C   UNL     1      -4.208  -0.128  -1.256  0.00  0.00    +0.213 C 
ATOM     20  O   UNL     1      -4.372   0.770  -2.055  0.00  0.00    -0.276 OA
ATOM     21  N   UNL     1      -4.753  -1.340  -1.484  0.00  0.00    -0.315 N 
ATOM     22  H   UNL     1      -4.622  -2.058  -0.845  0.00  0.00    +0.149 HD
BRANCH  21  23
ATOM     23  C   UNL     1      -5.542  -1.573  -2.695  0.00  0.00    +0.105 C 
BRANCH  23  24
ATOM     24  C   UNL     1      -6.041  -3.019  -2.709  0.00  0.00    -0.012 C 
ATOM     25  C   UNL     1      -7.148  -3.228  -1.642  0.00  0.00    -0.016 C 
ATOM     26  C   UNL     1      -7.941  -4.415  -2.242  0.00  0.00    -0.079 C 
ATOM     27  C   UNL     1      -6.771  -3.332  -4.032  0.00  0.00    -0.074 C 
ATOM     28  N   UNL     1      -7.943  -4.159  -3.694  0.00  0.00    +0.380 N 
ATOM     29  H   UNL     1      -8.800  -3.655  -3.949  0.00  0.00    -0.082 HD
BRANCH  28  30
ATOM     30  C   UNL     1      -7.895  -5.442  -4.443  0.00  0.00    -0.076 C 
BRANCH  30  31
ATOM     31  C   UNL     1      -9.226  -6.176  -4.269  0.00  0.00    -0.034 C 
ATOM     32  C   UNL     1     -10.346  -5.362  -4.919  0.00  0.00    +0.005 C 
ATOM     33  C   UNL     1      -9.141  -7.550  -4.937  0.00  0.00    +0.005 C 
ENDBRANCH  30  31
ENDBRANCH  28  30
ENDBRANCH  23  24
ENDBRANCH  21  23
ENDBRANCH  18  19
ENDBRANCH   1  18
TORSDOF 7
