REMARK  Name = ZINC35194571
REMARK  10 active torsions:
REMARK  status: ('A' for Active; 'I' for Inactive)
REMARK    1  A    between atoms: C_1  and  C_2
REMARK    2  A    between atoms: C_7  and  C_8
REMARK    3  A    between atoms: C_11  and  C_20
REMARK    4  A    between atoms: C_15  and  C_17
REMARK    5  A    between atoms: C_17  and  C_18
REMARK    6  A    between atoms: C_17  and  C_19
REMARK    7  A    between atoms: N_22  and  C_23
REMARK    8  A    between atoms: C_23  and  C_24
REMARK    9  A    between atoms: C_23  and  C_25
REMARK   10  A    between atoms: C_23  and  C_26
REMARK                            x       y       z     vdW  Elec       q    Type
REMARK                         _______ _______ _______ _____ _____    ______ ____
ROOT
ATOM      1  C   UNL     1       0.348  -0.065   2.670  0.00  0.00    +0.248 C 
ATOM      2  O   UNL     1       0.130   1.128   2.741  0.00  0.00    -0.270 OA
ATOM      3  N   UNL     1       0.534  -0.784   3.794  0.00  0.00    -0.273 N 
ATOM      4  C   UNL     1       0.930  -2.189   3.757  0.00  0.00    +0.173 C 
ATOM      5  C   UNL     1       1.804  -2.551   4.994  0.00  0.00    +0.103 C 
ATOM      6  S   UNL     1       0.909  -1.546   6.261  0.00  0.00    -0.136 S 
ATOM      7  C   UNL     1       0.356  -0.197   5.136  0.00  0.00    +0.138 C 
ENDROOT
BRANCH   1  14
ATOM      8  C   UNL     1       2.234   0.868   0.684  0.00  0.00    +0.044 C 
ATOM      9  C   UNL     1       1.314  -0.287   0.384  0.00  0.00    -0.038 A 
ATOM     10  C   UNL     1       1.369  -0.915  -0.843  0.00  0.00    +0.004 A 
ATOM     11  C   UNL     1       0.525  -1.975  -1.120  0.00  0.00    +0.000 A 
ATOM     12  C   UNL     1      -0.380  -2.414  -0.169  0.00  0.00    +0.001 A 
ATOM     13  C   UNL     1      -0.445  -1.796   1.062  0.00  0.00    +0.013 A 
ATOM     14  C   UNL     1       0.408  -0.729   1.350  0.00  0.00    +0.040 A 
ENDBRANCH   1  14
BRANCH   4  15
ATOM     15  C   UNL     1      -0.305  -3.053   3.756  0.00  0.00    +0.235 C 
ATOM     16  O   UNL     1      -1.404  -2.540   3.784  0.00  0.00    -0.274 OA
ATOM     17  N   UNL     1      -0.189  -4.395   3.724  0.00  0.00    -0.309 N 
ATOM     18  H   UNL     1       0.689  -4.806   3.702  0.00  0.00    +0.149 HD
BRANCH  17  19
ATOM     19  C   UNL     1      -1.390  -5.234   3.724  0.00  0.00    +0.026 C 
ATOM     20  C   UNL     1      -2.240  -4.908   2.494  0.00  0.00    +0.031 C 
ATOM     21  C   UNL     1      -0.982  -6.708   3.685  0.00  0.00    +0.031 C 
ATOM     22  C   UNL     1      -2.203  -4.964   4.991  0.00  0.00    +0.031 C 
ENDBRANCH  17  19
ENDBRANCH   4  15
BRANCH   7  23
ATOM     23  C   UNL     1      -1.115   0.144   5.386  0.00  0.00    +0.014 C 
ATOM     24  C   UNL     1      -1.278   0.685   6.808  0.00  0.00    +0.010 C 
ATOM     25  C   UNL     1      -1.571   1.204   4.381  0.00  0.00    +0.010 C 
ENDBRANCH   7  23
TORSDOF 4
