REMARK  Name = ZINC35641600
REMARK  13 active torsions:
REMARK  status: ('A' for Active; 'I' for Inactive)
REMARK    1  A    between atoms: C_1  and  C_2
REMARK    2  A    between atoms: C_2  and  C_3
REMARK    3  A    between atoms: C_3  and  N_4
REMARK    4  A    between atoms: N_4  and  C_5
REMARK    5  A    between atoms: N_4  and  C_6
REMARK    6  A    between atoms: C_6  and  C_7
REMARK    7  A    between atoms: C_8  and  C_26
REMARK    8  A    between atoms: C_9  and  C_16
REMARK    9  A    between atoms: N_14  and  C_15
REMARK   10  A    between atoms: C_19  and  C_22
REMARK   11  A    between atoms: C_26  and  O_28
REMARK   12  A    between atoms: O_28  and  C_29
REMARK   13  A    between atoms: C_29  and  C_30
REMARK                            x       y       z     vdW  Elec       q    Type
REMARK                         _______ _______ _______ _____ _____    ______ ____
ROOT
ATOM      1  C   UNL     1       1.009  -3.944  -2.585  0.00  0.00    +0.010 C 
ATOM      2  C   UNL     1       0.221  -4.202  -3.651  0.00  0.00    +0.076 C 
ATOM      3  C   UNL     1       0.062  -5.647  -4.077  0.00  0.00    +0.143 C 
ATOM      4  N   UNL     1       0.784  -6.659  -3.287  0.00  0.00    -0.288 N 
ATOM      5  C   UNL     1       1.533  -6.245  -2.246  0.00  0.00    +0.307 C 
ATOM      6  O   UNL     1       2.133  -7.073  -1.587  0.00  0.00    -0.252 OA
ATOM      7  N   UNL     1       1.643  -4.952  -1.917  0.00  0.00    -0.264 N 
ATOM      8  C   UNL     1       2.487  -4.599  -0.772  0.00  0.00    +0.139 C 
ATOM      9  H   UNL     1       0.721  -7.601  -3.510  0.00  0.00    +0.151 HD
ENDROOT
BRANCH   3  10
ATOM     10  C   UNL     1      -1.406  -5.985  -4.033  0.00  0.00    -0.022 A 
ATOM     11  C   UNL     1      -2.011  -6.284  -2.826  0.00  0.00    +0.006 A 
ATOM     12  C   UNL     1      -3.357  -6.594  -2.785  0.00  0.00    +0.013 A 
ATOM     13  C   UNL     1      -4.099  -6.605  -3.952  0.00  0.00    +0.055 A 
ATOM     14  C   UNL     1      -3.495  -6.305  -5.158  0.00  0.00    +0.013 A 
ATOM     15  C   UNL     1      -2.150  -5.991  -5.198  0.00  0.00    +0.006 A 
BRANCH  13  16
ATOM     16  C   UNL     1      -5.567  -6.944  -3.908  0.00  0.00    +0.417 C 
ATOM     17  F   UNL     1      -6.311  -5.773  -3.722  0.00  0.00    -0.166 F 
ATOM     18  F   UNL     1      -5.942  -7.548  -5.112  0.00  0.00    -0.166 F 
ATOM     19  F   UNL     1      -5.811  -7.824  -2.849  0.00  0.00    -0.166 F 
ENDBRANCH  13  16
ENDBRANCH   3  10
BRANCH   2  20
ATOM     20  C   UNL     1      -0.432  -3.158  -4.347  0.00  0.00    +0.339 C 
ATOM     21  O   UNL     1      -0.390  -2.021  -3.917  0.00  0.00    -0.245 OA
BRANCH  20  22
ATOM     22  O   UNL     1      -1.103  -3.424  -5.487  0.00  0.00    -0.462 OA
BRANCH  22  23
ATOM     23  C   UNL     1      -1.740  -2.323  -6.138  0.00  0.00    +0.229 C 
ATOM     24  C   UNL     1      -2.444  -2.815  -7.403  0.00  0.00    +0.048 C 
ENDBRANCH  22  23
ENDBRANCH  20  22
ENDBRANCH   2  20
BRANCH   1  25
ATOM     25  C   UNL     1       1.195  -2.520  -2.128  0.00  0.00    -0.027 C 
BRANCH  25  26
ATOM     26  N   UNL     1       0.066  -2.128  -1.274  0.00  0.00    +0.381 N 
ATOM     27  C   UNL     1       0.070  -2.943  -0.052  0.00  0.00    -0.096 C 
ATOM     28  H   UNL     1      -0.799  -2.274  -1.773  0.00  0.00    -0.082 HD
BRANCH  26  29
ATOM     29  C   UNL     1       0.191  -0.709  -0.916  0.00  0.00    -0.079 C 
BRANCH  29  31
ATOM     30  C   UNL     1      -0.915   1.209   0.240  0.00  0.00    +0.002 C 
ATOM     31  C   UNL     1      -1.046  -0.269  -0.132  0.00  0.00    -0.022 C 
ENDBRANCH  29  31
ENDBRANCH  26  29
ENDBRANCH  25  26
ENDBRANCH   1  25
TORSDOF 9
