REMARK  Name = ZINC47383662
REMARK  8 active torsions:
REMARK  status: ('A' for Active; 'I' for Inactive)
REMARK    1  A    between atoms: C_1  and  C_2
REMARK    2  A    between atoms: C_5  and  N_10
REMARK    3  A    between atoms: C_6  and  C_9
REMARK    4  A    between atoms: C_7  and  O_8
REMARK    5  A    between atoms: N_10  and  S_11
REMARK    6  A    between atoms: S_11  and  C_14
REMARK    7  A    between atoms: C_21  and  C_27
REMARK    8  A    between atoms: C_24  and  C_26
REMARK                            x       y       z     vdW  Elec       q    Type
REMARK                         _______ _______ _______ _____ _____    ______ ____
ROOT
ATOM      1  S   UNL     1       0.921  -5.420  -1.813  0.00  0.00    +0.072 S 
ATOM      2  O   UNL     1       0.747  -6.791  -1.484  0.00  0.00    -0.150 OA
ATOM      3  O   UNL     1       0.615  -4.900  -3.099  0.00  0.00    -0.150 OA
ENDROOT
BRANCH   1   4
ATOM      4  C   UNL     1       2.613  -5.038  -1.504  0.00  0.00    +0.109 A 
ATOM      5  C   UNL     1       3.214  -3.976  -2.155  0.00  0.00    +0.030 A 
ATOM      6  C   UNL     1       4.538  -3.676  -1.917  0.00  0.00    +0.026 A 
ATOM      7  C   UNL     1       5.283  -4.441  -1.016  0.00  0.00    +0.040 A 
ATOM      8  C   UNL     1       4.671  -5.503  -0.369  0.00  0.00    -0.022 A 
ATOM      9  C   UNL     1       3.342  -5.796  -0.607  0.00  0.00    +0.034 A 
ATOM     10  C   UNL     1       5.684  -6.159   0.541  0.00  0.00    +0.059 C 
ATOM     11  C   UNL     1       6.971  -5.342   0.342  0.00  0.00    +0.083 C 
ATOM     12  N   UNL     1       6.622  -4.308  -0.635  0.00  0.00    -0.268 N 
ATOM     13  C   UNL     1       7.467  -3.366  -1.099  0.00  0.00    +0.217 C 
ATOM     14  O   UNL     1       7.070  -2.525  -1.878  0.00  0.00    -0.276 OA
ATOM     15  C   UNL     1       8.905  -3.357  -0.650  0.00  0.00    +0.109 C 
ATOM     16  C   UNL     1       7.404  -4.703   1.663  0.00  0.00    +0.029 C 
ENDBRANCH   1   4
BRANCH   1  17
ATOM     17  N   UNL     1       0.018  -4.554  -0.727  0.00  0.00    -0.216 N 
ATOM     18  H   UNL     1      -0.561  -5.016  -0.101  0.00  0.00    +0.174 HD
BRANCH  17  23
ATOM     19  C   UNL     1       0.317   1.112  -0.677  0.00  0.00    +0.047 C 
ATOM     20  C   UNL     1       0.238  -0.393  -0.689  0.00  0.00    -0.009 A 
ATOM     21  C   UNL     1       0.330  -1.080  -1.885  0.00  0.00    +0.009 A 
ATOM     22  C   UNL     1       0.257  -2.459  -1.900  0.00  0.00    +0.025 A 
ATOM     23  C   UNL     1       0.092  -3.160  -0.712  0.00  0.00    +0.054 A 
ATOM     24  C   UNL     1      -0.001  -2.472   0.490  0.00  0.00    +0.014 A 
ATOM     25  C   UNL     1       0.078  -1.088   0.501  0.00  0.00    +0.124 A 
ATOM     26  C   UNL     1      -0.180  -3.228   1.781  0.00  0.00    +0.049 C 
BRANCH  25  27
ATOM     27  O   UNL     1      -0.007  -0.411   1.677  0.00  0.00    -0.506 OA
ATOM     28  H   UNL     1      -0.910  -0.169   1.927  0.00  0.00    +0.292 HD
ENDBRANCH  25  27
ENDBRANCH  17  23
ENDBRANCH   1  17
TORSDOF 4
