REMARK  Name = ZINC58110344
REMARK  6 active torsions:
REMARK  status: ('A' for Active; 'I' for Inactive)
REMARK    1  A    between atoms: C_1  and  C_2
REMARK    2  A    between atoms: C_2  and  C_3
REMARK    3  A    between atoms: C_3  and  C_5
REMARK    4  A    between atoms: C_3  and  O_18
REMARK    5  A    between atoms: C_15  and  C_16
REMARK    6  A    between atoms: C_15  and  C_17
REMARK                            x       y       z     vdW  Elec       q    Type
REMARK                         _______ _______ _______ _____ _____    ______ ____
ROOT
ATOM      1  C   UNL     1       0.847  -1.998  -1.206  0.00  0.00    -0.017 A 
ATOM      2  C   UNL     1       2.004  -2.579  -0.714  0.00  0.00    +0.012 A 
ATOM      3  C   UNL     1       2.118  -3.950  -0.668  0.00  0.00    -0.010 A 
ATOM      4  C   UNL     1       1.085  -4.765  -1.111  0.00  0.00    +0.056 A 
ATOM      5  C   UNL     1      -0.077  -4.174  -1.605  0.00  0.00    +0.063 A 
ATOM      6  C   UNL     1      -0.191  -2.798  -1.644  0.00  0.00    +0.028 A 
ATOM      7 CL   UNL     1      -1.385  -5.168  -2.165  0.00  0.00    -0.082 Cl
ATOM      8  N   UNL     1       1.433  -6.109  -0.964  0.00  0.00    -0.283 N 
ATOM      9  C   UNL     1       2.662  -6.261  -0.441  0.00  0.00    +0.227 C 
ATOM     10  O   UNL     1       3.219  -7.312  -0.205  0.00  0.00    -0.275 OA
ATOM     11  C   UNL     1       3.219  -4.874  -0.201  0.00  0.00    +0.068 C 
ATOM     12  C   UNL     1       4.489  -4.656  -1.026  0.00  0.00    +0.025 C 
ATOM     13  C   UNL     1       3.502  -4.660   1.287  0.00  0.00    +0.025 C 
ATOM     14  H   UNL     1       0.856  -6.848  -1.212  0.00  0.00    +0.155 HD
ENDROOT
BRANCH   1  15
ATOM     15  C   UNL     1       0.718  -0.497  -1.257  0.00  0.00    +0.144 C 
BRANCH  15  17
ATOM     16  C   UNL     1      -0.019   1.526   0.010  0.00  0.00    +0.007 C 
ATOM     17  C   UNL     1       0.002  -0.004   0.002  0.00  0.00    +0.033 C 
ENDBRANCH  15  17
BRANCH  15  18
ATOM     18  O   UNL     1      -0.036  -0.123  -2.412  0.00  0.00    -0.387 OA
ATOM     19  H   UNL     1      -0.931  -0.487  -2.431  0.00  0.00    +0.210 HD
ENDBRANCH  15  18
ENDBRANCH   1  15
TORSDOF 3
