REMARK  Name = ZINC41083049
REMARK  9 active torsions:
REMARK  status: ('A' for Active; 'I' for Inactive)
REMARK    1  A    between atoms: C_1  and  C_2
REMARK    2  A    between atoms: C_2  and  C_3
REMARK    3  A    between atoms: C_3  and  C_4
REMARK    4  A    between atoms: C_4  and  C_5
REMARK    5  A    between atoms: C_5  and  C_6
REMARK    6  A    between atoms: C_12  and  C_13
REMARK    7  A    between atoms: C_15  and  C_27
REMARK    8  A    between atoms: N_16  and  C_19
REMARK    9  A    between atoms: C_17  and  C_18
REMARK                            x       y       z     vdW  Elec       q    Type
REMARK                         _______ _______ _______ _____ _____    ______ ____
ROOT
ATOM      1  C   UNL     1       2.124  -4.138  -2.630  0.00  0.00    +0.100 C 
ATOM      2  N   UNL     1       1.601  -4.868  -1.687  0.00  0.00    -0.169 NA
ATOM      3  N   UNL     1       1.437  -6.227  -1.843  0.00  0.00    -0.152 N 
ATOM      4  C   UNL     1       0.803  -7.093  -0.926  0.00  0.00    +0.152 C 
ATOM      5  N   UNL     1      -0.061  -6.685  -0.034  0.00  0.00    -0.283 NA
ATOM      6  C   UNL     1       1.215  -8.516  -1.075  0.00  0.00    +0.081 C 
ATOM      7  C   UNL     1       1.293  -9.368   0.008  0.00  0.00    +0.026 C 
ATOM      8  C   UNL     1       1.537  -8.969  -2.449  0.00  0.00    +0.273 C 
ATOM      9  O   UNL     1       1.439 -10.145  -2.762  0.00  0.00    -0.268 OA
ATOM     10  N   UNL     1       1.941  -8.046  -3.344  0.00  0.00    -0.152 NA
ATOM     11  C   UNL     1       1.911  -6.779  -3.014  0.00  0.00    +0.181 C 
ATOM     12  S   UNL     1       2.460  -5.346  -3.903  0.00  0.00    -0.038 S 
ATOM     13  H   UNL     1      -0.295  -5.746   0.021  0.00  0.00    +0.188 HD
ENDROOT
BRANCH   7  14
ATOM     14  C   UNL     1       1.851 -10.662  -0.146  0.00  0.00    -0.003 A 
ATOM     15  C   UNL     1       2.949 -11.052  -1.042  0.00  0.00    +0.031 A 
ATOM     16  C   UNL     1       3.143 -12.368  -0.856  0.00  0.00    +0.022 A 
ATOM     17  N   UNL     1       2.257 -12.825   0.080  0.00  0.00    -0.316 N 
ATOM     18  C   UNL     1       1.478 -11.817   0.521  0.00  0.00    +0.028 A 
ATOM     19  C   UNL     1       0.389 -11.928   1.557  0.00  0.00    +0.064 C 
ATOM     20  C   UNL     1       4.173 -13.208  -1.567  0.00  0.00    +0.064 C 
BRANCH  17  21
ATOM     21  C   UNL     1       2.174 -14.153   0.522  0.00  0.00    +0.066 A 
ATOM     22  C   UNL     1       2.922 -14.570   1.614  0.00  0.00    +0.028 A 
ATOM     23  C   UNL     1       2.839 -15.879   2.048  0.00  0.00    +0.004 A 
ATOM     24  C   UNL     1       2.011 -16.774   1.397  0.00  0.00    +0.021 A 
ATOM     25  C   UNL     1       1.264 -16.363   0.308  0.00  0.00    +0.061 A 
ATOM     26  C   UNL     1       1.338 -15.052  -0.128  0.00  0.00    +0.083 A 
ATOM     27 CL   UNL     1       0.394 -14.533  -1.490  0.00  0.00    -0.080 Cl
ATOM     28 CL   UNL     1       0.226 -17.491  -0.508  0.00  0.00    -0.082 Cl
ENDBRANCH  17  21
ENDBRANCH   7  14
BRANCH   1  29
ATOM     29  C   UNL     1       2.377  -2.652  -2.646  0.00  0.00    +0.064 C 
BRANCH  29  30
ATOM     30  C   UNL     1       1.919  -2.043  -1.319  0.00  0.00    +0.007 C 
BRANCH  30  31
ATOM     31  C   UNL     1       2.176  -0.534  -1.335  0.00  0.00    +0.000 C 
BRANCH  31  33
ATOM     32  C   UNL     1       1.974   1.583  -0.024  0.00  0.00    +0.004 C 
ATOM     33  C   UNL     1       1.718   0.075  -0.008  0.00  0.00    -0.003 C 
ENDBRANCH  31  33
ENDBRANCH  30  31
ENDBRANCH  29  30
ENDBRANCH   1  29
TORSDOF 6
