REMARK  Name = ZINC66845011
REMARK  5 active torsions:
REMARK  status: ('A' for Active; 'I' for Inactive)
REMARK    1  A    between atoms: C_1  and  C_2
REMARK    2  A    between atoms: C_2  and  C_4
REMARK    3  A    between atoms: C_2  and  N_16
REMARK    4  A    between atoms: C_10  and  C_13
REMARK    5  A    between atoms: C_20  and  C_23
REMARK                            x       y       z     vdW  Elec       q    Type
REMARK                         _______ _______ _______ _____ _____    ______ ____
ROOT
ATOM      1  C   UNL     1       0.073   1.487  -0.031  0.00  0.00    +0.034 C 
ATOM      2  C   UNL     1      -0.065  -0.036  -0.032  0.00  0.00    +0.140 C 
ENDROOT
BRANCH   2   3
ATOM      3  C   UNL     1      -1.517  -0.410  -0.179  0.00  0.00    +0.233 C 
ATOM      4  O   UNL     1      -1.966  -0.683  -1.272  0.00  0.00    -0.274 OA
ATOM      5  N   UNL     1      -2.318  -0.440   0.905  0.00  0.00    -0.299 N 
ATOM      6  C   UNL     1      -1.769  -0.210   2.248  0.00  0.00    +0.108 C 
ATOM      7  C   UNL     1      -2.568   0.909   2.922  0.00  0.00    +0.020 C 
ATOM      8  C   UNL     1      -4.056   0.550   2.905  0.00  0.00    +0.016 C 
ATOM      9  C   UNL     1      -4.534   0.420   1.456  0.00  0.00    +0.092 C 
ATOM     10  C   UNL     1      -3.758  -0.699   0.765  0.00  0.00    +0.120 C 
BRANCH   9  11
ATOM     11  C   UNL     1      -6.006   0.100   1.439  0.00  0.00    +0.215 C 
ATOM     12  O   UNL     1      -6.397  -0.926   0.923  0.00  0.00    -0.276 OA
ATOM     13  N   UNL     1      -6.888   0.952   1.998  0.00  0.00    -0.329 N 
ATOM     14  H   UNL     1      -6.575   1.772   2.410  0.00  0.00    +0.145 HD
ATOM     15  H   UNL     1      -7.836   0.746   1.987  0.00  0.00    +0.145 HD
ENDBRANCH   9  11
ENDBRANCH   2   3
BRANCH   2  16
ATOM     16  N   UNL     1       0.701  -0.597  -1.154  0.00  0.00    -0.287 NA
ATOM     17  C   UNL     1       0.656  -2.066  -1.141  0.00  0.00    +0.113 C 
ATOM     18  C   UNL     1       1.414  -2.605  -2.357  0.00  0.00    +0.176 C 
ATOM     19  O   UNL     1       2.753  -2.104  -2.338  0.00  0.00    -0.369 OA
ATOM     20  C   UNL     1       2.834  -0.676  -2.351  0.00  0.00    +0.162 C 
ATOM     21  C   UNL     1       2.090  -0.117  -1.135  0.00  0.00    +0.121 C 
BRANCH  20  22
ATOM     22  C   UNL     1       4.279  -0.253  -2.296  0.00  0.00    -0.016 A 
ATOM     23  C   UNL     1       5.189  -0.996  -1.568  0.00  0.00    +0.009 A 
ATOM     24  C   UNL     1       6.515  -0.610  -1.517  0.00  0.00    +0.040 A 
ATOM     25  C   UNL     1       6.933   0.521  -2.196  0.00  0.00    +0.142 A 
ATOM     26  C   UNL     1       6.021   1.266  -2.926  0.00  0.00    +0.076 A 
ATOM     27  C   UNL     1       4.695   0.874  -2.979  0.00  0.00    +0.029 A 
ATOM     28 CL   UNL     1       6.542   2.686  -3.778  0.00  0.00    -0.081 Cl
ATOM     29  F   UNL     1       8.229   0.900  -2.146  0.00  0.00    -0.204 F 
ENDBRANCH  20  22
ENDBRANCH   2  16
TORSDOF 4
