REMARK  Name = ZINC08939224
REMARK  7 active torsions:
REMARK  status: ('A' for Active; 'I' for Inactive)
REMARK    1  A    between atoms: C_1  and  C_2
REMARK    2  A    between atoms: N_11  and  C_15
REMARK    3  A    between atoms: C_15  and  C_16
REMARK    4  A    between atoms: C_16  and  O_18
REMARK    5  A    between atoms: O_18  and  C_19
REMARK    6  A    between atoms: C_19  and  C_20
REMARK    7  A    between atoms: C_19  and  C_21
REMARK                            x       y       z     vdW  Elec       q    Type
REMARK                         _______ _______ _______ _____ _____    ______ ____
ROOT
ATOM      1  C   UNL     1      -4.407  -0.841   3.289  0.00  0.00    +0.010 C 
ATOM      2  C   UNL     1      -4.426  -2.240   3.907  0.00  0.00    +0.018 C 
ATOM      3  C   UNL     1      -5.875  -2.674   4.146  0.00  0.00    +0.006 C 
ATOM      4  C   UNL     1      -5.892  -4.082   4.744  0.00  0.00    +0.000 C 
ATOM      5  C   UNL     1      -5.230  -5.060   3.771  0.00  0.00    +0.003 C 
ATOM      6  C   UNL     1      -3.779  -4.635   3.531  0.00  0.00    +0.035 C 
ATOM      7  C   UNL     1      -3.750  -3.223   2.957  0.00  0.00    +0.115 C 
ATOM      8  C   UNL     1      -2.326  -2.800   2.679  0.00  0.00    +0.247 C 
ATOM      9  O   UNL     1      -1.424  -2.688   3.480  0.00  0.00    -0.273 OA
ATOM     10  N   UNL     1      -2.271  -2.572   1.350  0.00  0.00    -0.213 N 
ATOM     11  C   UNL     1      -3.452  -2.799   0.762  0.00  0.00    +0.310 C 
ATOM     12  O   UNL     1      -3.650  -2.665  -0.430  0.00  0.00    -0.252 OA
ATOM     13  N   UNL     1      -4.396  -3.191   1.639  0.00  0.00    -0.285 N 
ATOM     14  H   UNL     1      -5.320  -3.409   1.439  0.00  0.00    +0.151 HD
ENDROOT
BRANCH  10  15
ATOM     15  C   UNL     1      -1.067  -2.137   0.638  0.00  0.00    +0.238 C 
BRANCH  15  16
ATOM     16  C   UNL     1      -1.020  -0.631   0.606  0.00  0.00    +0.325 C 
ATOM     17  O   UNL     1      -1.901   0.013   1.125  0.00  0.00    -0.249 OA
BRANCH  16  18
ATOM     18  O   UNL     1       0.002  -0.004   0.002  0.00  0.00    -0.461 OA
BRANCH  18  19
ATOM     19  C   UNL     1      -0.018   1.448   0.010  0.00  0.00    +0.170 C 
ATOM     20  C   UNL     1       1.418   1.977  -0.001  0.00  0.00    +0.052 C 
ATOM     21  C   UNL     1      -0.758   1.955  -1.230  0.00  0.00    +0.052 C 
ENDBRANCH  18  19
ENDBRANCH  16  18
ENDBRANCH  15  16
ENDBRANCH  10  15
TORSDOF 4
