REMARK  Name = ZINC35228461
REMARK  8 active torsions:
REMARK  status: ('A' for Active; 'I' for Inactive)
REMARK    1  A    between atoms: C_1  and  C_2
REMARK    2  A    between atoms: C_2  and  C_3
REMARK    3  A    between atoms: N_5  and  C_6
REMARK    4  A    between atoms: N_5  and  C_28
REMARK    5  A    between atoms: C_6  and  C_7
REMARK    6  A    between atoms: C_21  and  C_23
REMARK    7  A    between atoms: C_28  and  C_29
REMARK    8  A    between atoms: C_28  and  C_30
REMARK                            x       y       z     vdW  Elec       q    Type
REMARK                         _______ _______ _______ _____ _____    ______ ____
ROOT
ATOM      1  C   UNL     1       3.004  -2.434  -2.380  0.00  0.00    +0.238 C 
ATOM      2  O   UNL     1       1.810  -2.392  -2.587  0.00  0.00    -0.273 OA
ATOM      3  N   UNL     1       3.850  -2.761  -3.376  0.00  0.00    -0.252 N 
ATOM      4  C   UNL     1       3.360  -2.957  -4.675  0.00  0.00    +0.061 A 
ATOM      5  C   UNL     1       2.067  -3.412  -4.878  0.00  0.00    +0.025 A 
ATOM      6  C   UNL     1       1.592  -3.590  -6.164  0.00  0.00    +0.002 A 
ATOM      7  C   UNL     1       2.400  -3.316  -7.253  0.00  0.00    +0.002 A 
ATOM      8  C   UNL     1       3.694  -2.865  -7.061  0.00  0.00    +0.028 A 
ATOM      9  C   UNL     1       4.176  -2.690  -5.779  0.00  0.00    +0.068 A 
ATOM     10  N   UNL     1       5.489  -2.260  -5.534  0.00  0.00    -0.316 N 
ATOM     11  C   UNL     1       6.403  -1.723  -6.376  0.00  0.00    +0.092 A 
ATOM     12  C   UNL     1       7.527  -1.465  -5.669  0.00  0.00    +0.020 A 
ATOM     13  C   UNL     1       7.291  -1.864  -4.335  0.00  0.00    +0.025 A 
ATOM     14  C   UNL     1       6.045  -2.347  -4.276  0.00  0.00    +0.052 A 
ATOM     15  C   UNL     1       5.289  -2.908  -3.101  0.00  0.00    +0.194 C 
ENDROOT
BRANCH  15  16
ATOM     16  C   UNL     1       5.630  -4.366  -2.929  0.00  0.00    +0.131 A 
ATOM     17  C   UNL     1       6.478  -4.873  -2.016  0.00  0.00    +0.047 A 
ATOM     18  C   UNL     1       6.499  -6.273  -2.210  0.00  0.00    +0.041 A 
ATOM     19  C   UNL     1       5.663  -6.538  -3.230  0.00  0.00    +0.195 A 
ATOM     20  O   UNL     1       5.135  -5.380  -3.658  0.00  0.00    -0.466 OA
ENDBRANCH  15  16
BRANCH   1  21
ATOM     21  C   UNL     1       3.542  -2.119  -1.007  0.00  0.00    +0.204 C 
BRANCH  21  24
ATOM     22  C   UNL     1       1.754  -2.579   0.582  0.00  0.00    +0.216 C 
ATOM     23  O   UNL     1       2.039  -3.756   0.518  0.00  0.00    -0.276 OA
ATOM     24  N   UNL     1       2.446  -1.677  -0.142  0.00  0.00    -0.290 N 
BRANCH  24  25
ATOM     25  C   UNL     1       2.101  -0.256  -0.065  0.00  0.00    +0.070 C 
ATOM     26  C   UNL     1       3.310   0.536   0.438  0.00  0.00    +0.028 C 
ATOM     27  C   UNL     1       1.703   0.249  -1.453  0.00  0.00    +0.028 C 
ENDBRANCH  24  25
BRANCH  22  29
ATOM     28  C   UNL     1       0.013  -3.336   2.177  0.00  0.00    +0.013 C 
ATOM     29  C   UNL     1       0.626  -2.124   1.472  0.00  0.00    +0.092 C 
ENDBRANCH  22  29
ENDBRANCH  21  24
ENDBRANCH   1  21
TORSDOF 5
