REMARK  Name = ZINC66191896
REMARK  10 active torsions:
REMARK  status: ('A' for Active; 'I' for Inactive)
REMARK    1  A    between atoms: C_1  and  C_2
REMARK    2  A    between atoms: C_5  and  N_8
REMARK    3  A    between atoms: C_11  and  N_14
REMARK    4  A    between atoms: N_14  and  C_15
REMARK    5  A    between atoms: N_18  and  C_19
REMARK    6  A    between atoms: C_19  and  C_20
REMARK    7  A    between atoms: N_22  and  C_23
REMARK    8  A    between atoms: C_23  and  C_24
REMARK    9  A    between atoms: C_24  and  C_25
REMARK   10  A    between atoms: C_24  and  C_26
REMARK                            x       y       z     vdW  Elec       q    Type
REMARK                         _______ _______ _______ _____ _____    ______ ____
ROOT
ATOM      1  N   UNL     1      -4.166   0.124   7.387  0.00  0.00    -0.286 N 
ATOM      2  C   UNL     1      -4.262   1.581   7.513  0.00  0.00    +0.134 C 
ATOM      3  C   UNL     1      -4.688  -0.671   8.341  0.00  0.00    +0.303 C 
ATOM      4  O   UNL     1      -4.608  -1.880   8.236  0.00  0.00    -0.253 OA
ATOM      5  N   UNL     1      -5.299  -0.127   9.412  0.00  0.00    -0.291 N 
ATOM      6  H   UNL     1      -5.363   0.838   9.496  0.00  0.00    +0.151 HD
ENDROOT
BRANCH   1  10
ATOM      7  N   UNL     1      -2.097  -0.073   3.720  0.00  0.00    +0.382 N 
ATOM      8  C   UNL     1      -1.381  -0.553   4.908  0.00  0.00    -0.077 C 
ATOM      9  C   UNL     1      -2.046   0.005   6.168  0.00  0.00    +0.004 C 
ATOM     10  C   UNL     1      -3.502  -0.468   6.223  0.00  0.00    +0.074 C 
ATOM     11  C   UNL     1      -4.219  -0.026   4.944  0.00  0.00    +0.004 C 
ATOM     12  C   UNL     1      -3.474  -0.582   3.729  0.00  0.00    -0.077 C 
ATOM     13  H   UNL     1      -2.112   0.936   3.723  0.00  0.00    -0.081 HD
BRANCH   7  18
ATOM     14  C   UNL     1      -0.019   1.526   0.010  0.00  0.00    +0.007 C 
ATOM     15  C   UNL     1       0.002  -0.004   0.002  0.00  0.00    -0.014 C 
ATOM     16  C   UNL     1      -1.433  -0.534   0.013  0.00  0.00    +0.002 C 
ATOM     17  C   UNL     1      -2.149  -0.040   1.272  0.00  0.00    -0.015 C 
ATOM     18  C   UNL     1      -1.409  -0.547   2.511  0.00  0.00    -0.069 C 
ATOM     19  C   UNL     1       0.026  -0.018   2.500  0.00  0.00    -0.015 C 
ATOM     20  C   UNL     1       0.742  -0.511   1.242  0.00  0.00    +0.002 C 
ENDBRANCH   7  18
ENDBRANCH   1  10
BRANCH   5  21
ATOM     21  C   UNL     1      -5.866  -0.991  10.450  0.00  0.00    +0.201 C 
BRANCH  21  22
ATOM     22  C   UNL     1      -6.487  -0.141  11.528  0.00  0.00    +0.230 C 
ATOM     23  O   UNL     1      -6.458   1.068  11.439  0.00  0.00    -0.274 OA
ATOM     24  N   UNL     1      -7.074  -0.724  12.592  0.00  0.00    -0.314 N 
ATOM     25  H   UNL     1      -7.097  -1.691  12.663  0.00  0.00    +0.149 HD
BRANCH  24  26
ATOM     26  C   UNL     1      -7.677   0.103  13.640  0.00  0.00    +0.107 C 
BRANCH  26  27
ATOM     27  C   UNL     1      -8.270  -0.800  14.724  0.00  0.00    -0.000 C 
ATOM     28  C   UNL     1      -8.789   0.061  15.877  0.00  0.00    +0.009 C 
ATOM     29  C   UNL     1      -9.425  -1.613  14.135  0.00  0.00    +0.009 C 
ENDBRANCH  26  27
ENDBRANCH  24  26
ENDBRANCH  21  22
ENDBRANCH   5  21
TORSDOF 6
