REMARK  Name = ZINC34732718
REMARK  7 active torsions:
REMARK  status: ('A' for Active; 'I' for Inactive)
REMARK    1  A    between atoms: C_1  and  N_2
REMARK    2  A    between atoms: N_2  and  C_3
REMARK    3  A    between atoms: C_3  and  C_4
REMARK    4  A    between atoms: C_9  and  C_11
REMARK    5  A    between atoms: C_14  and  C_29
REMARK    6  A    between atoms: N_21  and  C_22
REMARK    7  A    between atoms: C_22  and  C_23
REMARK                            x       y       z     vdW  Elec       q    Type
REMARK                         _______ _______ _______ _____ _____    ______ ____
ROOT
ATOM      1  C   UNL     1      -0.023   0.086  -2.466  0.00  0.00    +0.093 C 
ATOM      2  C   UNL     1      -0.020  -0.901  -3.635  0.00  0.00    +0.024 C 
ATOM      3  C   UNL     1       1.226  -1.787  -3.553  0.00  0.00    +0.037 C 
ATOM      4  C   UNL     1       2.478  -0.911  -3.657  0.00  0.00    +0.117 C 
ATOM      5  N   UNL     1       2.411   0.133  -2.625  0.00  0.00    -0.284 N 
ATOM      6  C   UNL     1       1.215   0.984  -2.557  0.00  0.00    +0.122 C 
ATOM      7  C   UNL     1       3.428   0.308  -1.758  0.00  0.00    +0.302 C 
ATOM      8  O   UNL     1       3.402   1.233  -0.969  0.00  0.00    -0.253 OA
ATOM      9  N   UNL     1       4.473  -0.543  -1.764  0.00  0.00    -0.295 N 
ATOM     10  H   UNL     1       4.530  -1.236  -2.441  0.00  0.00    +0.151 HD
ENDROOT
BRANCH   3  11
ATOM     11  C   UNL     1       1.211  -2.781  -4.685  0.00  0.00    -0.043 A 
ATOM     12  C   UNL     1       1.209  -2.338  -5.995  0.00  0.00    +0.004 A 
ATOM     13  C   UNL     1       1.196  -3.250  -7.033  0.00  0.00    +0.000 A 
ATOM     14  C   UNL     1       1.186  -4.606  -6.763  0.00  0.00    +0.000 A 
ATOM     15  C   UNL     1       1.189  -5.049  -5.454  0.00  0.00    +0.000 A 
ATOM     16  C   UNL     1       1.206  -4.137  -4.415  0.00  0.00    +0.004 A 
ENDBRANCH   3  11
BRANCH   1  19
ATOM     17  C   UNL     1      -0.017   1.459   0.013  0.00  0.00    +0.132 C 
ATOM     18  N   UNL     1       0.004  -0.006   0.005  0.00  0.00    -0.297 N 
ATOM     19  C   UNL     1       0.001  -0.673  -1.165  0.00  0.00    +0.220 C 
ATOM     20  O   UNL     1       0.018  -1.886  -1.172  0.00  0.00    -0.275 OA
BRANCH  18  21
ATOM     21  C   UNL     1       0.028  -0.744   1.270  0.00  0.00    +0.181 C 
BRANCH  21  22
ATOM     22  C   UNL     1      -1.385  -1.018   1.719  0.00  0.00    +0.122 A 
ATOM     23  C   UNL     1      -2.113  -2.105   1.407  0.00  0.00    +0.046 A 
ATOM     24  C   UNL     1      -3.370  -1.951   2.034  0.00  0.00    +0.041 A 
ATOM     25  C   UNL     1      -3.335  -0.778   2.692  0.00  0.00    +0.195 A 
ATOM     26  O   UNL     1      -2.129  -0.220   2.502  0.00  0.00    -0.466 OA
ENDBRANCH  21  22
ENDBRANCH  18  21
ENDBRANCH   1  19
BRANCH   9  27
ATOM     27  C   UNL     1       5.523  -0.421  -0.750  0.00  0.00    +0.141 C 
BRANCH  27  28
ATOM     28  C   UNL     1       6.567  -1.484  -0.978  0.00  0.00    -0.030 A 
ATOM     29  C   UNL     1       6.440  -2.720  -0.373  0.00  0.00    +0.005 A 
ATOM     30  C   UNL     1       7.398  -3.694  -0.582  0.00  0.00    +0.000 A 
ATOM     31  C   UNL     1       8.483  -3.433  -1.397  0.00  0.00    +0.000 A 
ATOM     32  C   UNL     1       8.610  -2.197  -2.004  0.00  0.00    +0.000 A 
ATOM     33  C   UNL     1       7.650  -1.224  -1.798  0.00  0.00    +0.005 A 
ENDBRANCH  27  28
ENDBRANCH   9  27
TORSDOF 6
