REMARK  Name = ZINC66178989
REMARK  8 active torsions:
REMARK  status: ('A' for Active; 'I' for Inactive)
REMARK    1  A    between atoms: C_1  and  C_2
REMARK    2  A    between atoms: N_5  and  C_8
REMARK    3  A    between atoms: C_8  and  C_9
REMARK    4  A    between atoms: C_9  and  C_10
REMARK    5  A    between atoms: C_10  and  C_11
REMARK    6  A    between atoms: C_11  and  N_12
REMARK    7  A    between atoms: C_18  and  N_21
REMARK    8  A    between atoms: C_22  and  C_24
REMARK                            x       y       z     vdW  Elec       q    Type
REMARK                         _______ _______ _______ _____ _____    ______ ____
ROOT
ATOM      1  N   UNL     1       3.761  -7.752   2.306  0.00  0.00    -0.299 N 
ATOM      2  C   UNL     1       4.499  -8.360   3.256  0.00  0.00    +0.302 C 
ATOM      3  O   UNL     1       5.115  -7.695   4.066  0.00  0.00    -0.253 OA
ATOM      4  N   UNL     1       4.553  -9.706   3.309  0.00  0.00    -0.286 N 
ATOM      5  C   UNL     1       3.910 -10.522   2.270  0.00  0.00    +0.111 C 
ATOM      6  C   UNL     1       2.970 -11.527   2.944  0.00  0.00    +0.041 C 
ATOM      7  C   UNL     1       3.753 -12.334   3.982  0.00  0.00    +0.076 C 
ATOM      8  C   UNL     1       4.302 -11.391   5.055  0.00  0.00    +0.041 C 
ATOM      9  C   UNL     1       5.261 -10.384   4.402  0.00  0.00    +0.111 C 
ATOM     10  H   UNL     1       3.329  -8.279   1.616  0.00  0.00    +0.150 HD
ENDROOT
BRANCH   7  11
ATOM     11  N   UNL     1       2.866 -13.319   4.605  0.00  0.00    -0.312 N 
ATOM     12  C   UNL     1       3.379 -14.441   5.146  0.00  0.00    +0.216 C 
ATOM     13  O   UNL     1       4.576 -14.636   5.118  0.00  0.00    -0.276 OA
ATOM     14  H   UNL     1       1.908 -13.163   4.628  0.00  0.00    +0.149 HD
BRANCH  12  15
ATOM     15  C   UNL     1       2.466 -15.454   5.787  0.00  0.00    +0.075 C 
ATOM     16  C   UNL     1       2.083 -15.109   7.236  0.00  0.00    +0.013 C 
ATOM     17  C   UNL     1       2.239 -16.606   7.551  0.00  0.00    +0.001 C 
ATOM     18  C   UNL     1       3.205 -16.677   6.357  0.00  0.00    +0.013 C 
ENDBRANCH  12  15
ENDBRANCH   7  11
BRANCH   1  19
ATOM     19  C   UNL     1       3.612  -6.294   2.316  0.00  0.00    +0.105 C 
BRANCH  19  20
ATOM     20  C   UNL     1       2.733  -5.864   1.140  0.00  0.00    +0.017 C 
BRANCH  20  21
ATOM     21  C   UNL     1       2.578  -4.341   1.150  0.00  0.00    -0.017 C 
BRANCH  21  22
ATOM     22  C   UNL     1       1.699  -3.911  -0.026  0.00  0.00    -0.079 C 
BRANCH  22  27
ATOM     23  C   UNL     1      -0.028   1.524   0.018  0.00  0.00    +0.007 C 
ATOM     24  C   UNL     1      -0.006  -0.006   0.009  0.00  0.00    -0.018 C 
ATOM     25  C   UNL     1       0.720  -0.500  -1.246  0.00  0.00    -0.016 C 
ATOM     26  C   UNL     1       0.808  -2.027  -1.210  0.00  0.00    -0.079 C 
ATOM     27  N   UNL     1       1.550  -2.450  -0.016  0.00  0.00    +0.380 N 
ATOM     28  C   UNL     1       0.823  -2.042   1.192  0.00  0.00    -0.079 C 
ATOM     29  C   UNL     1       0.736  -0.515   1.248  0.00  0.00    -0.016 C 
ATOM     30  H   UNL     1       2.463  -2.020  -0.019  0.00  0.00    -0.082 HD
ENDBRANCH  22  27
ENDBRANCH  21  22
ENDBRANCH  20  21
ENDBRANCH  19  20
ENDBRANCH   1  19
TORSDOF 7
