REMARK  Name = ZINC03002297
REMARK  13 active torsions:
REMARK  status: ('A' for Active; 'I' for Inactive)
REMARK    1  A    between atoms: C_1  and  C_2
REMARK    2  A    between atoms: C_2  and  O_3
REMARK    3  A    between atoms: O_3  and  C_4
REMARK    4  A    between atoms: C_4  and  C_6
REMARK    5  A    between atoms: C_7  and  C_36
REMARK    6  A    between atoms: C_14  and  C_15
REMARK    7  A    between atoms: C_18  and  S_21
REMARK    8  A    between atoms: S_21  and  C_22
REMARK    9  A    between atoms: C_24  and  C_26
REMARK   10  A    between atoms: C_29  and  O_34
REMARK   11  A    between atoms: C_30  and  O_32
REMARK   12  A    between atoms: O_32  and  C_33
REMARK   13  A    between atoms: O_34  and  C_35
REMARK                            x       y       z     vdW  Elec       q    Type
REMARK                         _______ _______ _______ _____ _____    ______ ____
ROOT
ATOM      1  C   UNL     1       6.552  -0.386  -0.950  0.00  0.00    +0.085 C 
ATOM      2  C   UNL     1       7.893  -0.140  -0.854  0.00  0.00    +0.053 C 
ATOM      3  N   UNL     1       8.380   0.555   0.166  0.00  0.00    -0.228 NA
ATOM      4  C   UNL     1       7.663   1.053   1.141  0.00  0.00    +0.178 A 
ATOM      5  N   UNL     1       6.297   0.920   1.238  0.00  0.00    -0.275 N 
ATOM      6  C   UNL     1       5.670   1.473   2.285  0.00  0.00    +0.268 A 
ATOM      7  O   UNL     1       4.463   1.382   2.413  0.00  0.00    -0.266 OA
ATOM      8  C   UNL     1       6.483   2.195   3.273  0.00  0.00    +0.081 A 
ATOM      9  C   UNL     1       6.095   2.836   4.407  0.00  0.00    +0.028 C 
ATOM     10  S   UNL     1       8.117   2.001   2.581  0.00  0.00    -0.046 S 
ATOM     11  C   UNL     1       5.650   0.153   0.137  0.00  0.00    +0.162 C 
ATOM     12  C   UNL     1       8.826  -0.661  -1.917  0.00  0.00    +0.066 C 
ENDROOT
BRANCH   9  13
ATOM     13  C   UNL     1       7.103   3.323   5.355  0.00  0.00    -0.024 A 
ATOM     14  C   UNL     1       8.451   2.976   5.188  0.00  0.00    +0.009 A 
ATOM     15  C   UNL     1       9.387   3.436   6.069  0.00  0.00    +0.015 A 
ATOM     16  C   UNL     1       9.002   4.239   7.141  0.00  0.00    +0.008 A 
ATOM     17  C   UNL     1       7.662   4.582   7.315  0.00  0.00    +0.015 A 
ATOM     18  C   UNL     1       6.721   4.131   6.434  0.00  0.00    +0.009 A 
BRANCH  16  19
ATOM     19  S   UNL     1      10.213   4.824   8.280  0.00  0.00    -0.129 S 
ATOM     20  C   UNL     1      11.770   4.134   7.657  0.00  0.00    +0.090 C 
ENDBRANCH  16  19
ENDBRANCH   9  13
BRANCH  11  21
ATOM     21  C   UNL     1       4.626   1.048  -0.512  0.00  0.00    -0.016 A 
ATOM     22  C   UNL     1       3.373   0.553  -0.819  0.00  0.00    +0.010 A 
ATOM     23  C   UNL     1       2.430   1.370  -1.415  0.00  0.00    +0.050 A 
ATOM     24  C   UNL     1       2.739   2.690  -1.701  0.00  0.00    +0.162 A 
ATOM     25  C   UNL     1       4.003   3.187  -1.398  0.00  0.00    +0.162 A 
ATOM     26  C   UNL     1       4.943   2.362  -0.801  0.00  0.00    +0.055 A 
BRANCH  25  27
ATOM     27  O   UNL     1       4.313   4.480  -1.683  0.00  0.00    -0.491 OA
ATOM     28  C   UNL     1       5.644   4.909  -1.385  0.00  0.00    +0.277 C 
ENDBRANCH  25  27
BRANCH  24  29
ATOM     29  O   UNL     1       1.811   3.497  -2.283  0.00  0.00    -0.491 OA
ATOM     30  C   UNL     1       0.535   2.919  -2.565  0.00  0.00    +0.277 C 
ENDBRANCH  24  29
ENDBRANCH  11  21
BRANCH   1  31
ATOM     31  C   UNL     1       6.028  -1.120  -2.026  0.00  0.00    +0.339 C 
ATOM     32  O   UNL     1       6.766  -1.513  -2.912  0.00  0.00    -0.245 OA
BRANCH  31  33
ATOM     33  O   UNL     1       4.706  -1.391  -2.079  0.00  0.00    -0.462 OA
BRANCH  33  35
ATOM     34  C   UNL     1       2.730  -2.330  -3.105  0.00  0.00    +0.048 C 
ATOM     35  C   UNL     1       4.255  -2.213  -3.156  0.00  0.00    +0.229 C 
ENDBRANCH  33  35
ENDBRANCH  31  33
ENDBRANCH   1  31
TORSDOF 8
