REMARK  Name = ZINC39371259
REMARK  9 active torsions:
REMARK  status: ('A' for Active; 'I' for Inactive)
REMARK    1  A    between atoms: C_1  and  C_2
REMARK    2  A    between atoms: C_2  and  C_3
REMARK    3  A    between atoms: C_3  and  C_4
REMARK    4  A    between atoms: C_4  and  O_5
REMARK    5  A    between atoms: O_5  and  C_6
REMARK    6  A    between atoms: C_9  and  C_12
REMARK    7  A    between atoms: C_14  and  C_25
REMARK    8  A    between atoms: C_15  and  N_24
REMARK    9  A    between atoms: C_20  and  C_23
REMARK                            x       y       z     vdW  Elec       q    Type
REMARK                         _______ _______ _______ _____ _____    ______ ____
ROOT
ATOM      1  C   UNL     1       1.846  -8.063  -3.114  0.00  0.00    +0.098 C 
ATOM      2  C   UNL     1       3.305  -8.465  -3.225  0.00  0.00    +0.097 C 
ATOM      3  C   UNL     1       3.756  -9.225  -4.246  0.00  0.00    +0.195 C 
ATOM      4  O   UNL     1       3.033  -9.696  -5.278  0.00  0.00    -0.448 OA
ATOM      5  C   UNL     1       1.617  -9.789  -5.099  0.00  0.00    +0.343 C 
ATOM      6  C   UNL     1       1.212  -8.482  -4.412  0.00  0.00    +0.030 C 
ATOM      7  C   UNL     1       0.311  -7.949  -5.200  0.00  0.00    +0.066 C 
ATOM      8  N   UNL     1       0.173  -8.691  -6.329  0.00  0.00    -0.155 NA
ATOM      9  N   UNL     1       0.885  -9.722  -6.367  0.00  0.00    -0.138 NA
ATOM     10  C   UNL     1      -0.463  -6.691  -4.896  0.00  0.00    +0.067 C 
ENDROOT
BRANCH   1  14
ATOM     11  C   UNL     1       1.514  -3.833  -2.603  0.00  0.00    +0.121 A 
ATOM     12  C   UNL     1       0.980  -4.692  -1.654  0.00  0.00    +0.046 A 
ATOM     13  C   UNL     1       1.088  -6.059  -1.821  0.00  0.00    +0.008 A 
ATOM     14  C   UNL     1       1.729  -6.571  -2.934  0.00  0.00    -0.035 A 
ATOM     15  C   UNL     1       2.262  -5.718  -3.882  0.00  0.00    +0.008 A 
ATOM     16  C   UNL     1       2.151  -4.350  -3.722  0.00  0.00    +0.046 A 
BRANCH  11  17
ATOM     17  O   UNL     1       1.408  -2.488  -2.441  0.00  0.00    -0.492 OA
BRANCH  17  18
ATOM     18  C   UNL     1       0.739  -2.027  -1.265  0.00  0.00    +0.229 C 
BRANCH  18  19
ATOM     19  C   UNL     1       0.718  -0.497  -1.257  0.00  0.00    +0.041 C 
BRANCH  19  21
ATOM     20  C   UNL     1      -0.019   1.526   0.010  0.00  0.00    +0.004 C 
ATOM     21  C   UNL     1       0.002  -0.004   0.002  0.00  0.00    -0.000 C 
ENDBRANCH  19  21
ENDBRANCH  18  19
ENDBRANCH  17  18
ENDBRANCH  11  17
ENDBRANCH   1  14
BRANCH   3  22
ATOM     22  N   UNL     1       5.090  -9.549  -4.229  0.00  0.00    -0.329 N 
ATOM     23  H   UNL     1       5.657  -9.234  -3.508  0.00  0.00    +0.145 HD
ATOM     24  H   UNL     1       5.465 -10.093  -4.939  0.00  0.00    +0.145 HD
ENDBRANCH   3  22
BRANCH   2  25
ATOM     25  C   UNL     1       4.228  -8.027  -2.221  0.00  0.00    +0.101 C 
ATOM     26  N   UNL     1       4.959  -7.680  -1.425  0.00  0.00    -0.191 NA
ENDBRANCH   2  25
TORSDOF 7
