REMARK  Name = ZINC59946747
REMARK  6 active torsions:
REMARK  status: ('A' for Active; 'I' for Inactive)
REMARK    1  A    between atoms: C_1  and  C_2
REMARK    2  A    between atoms: C_2  and  C_3
REMARK    3  A    between atoms: C_3  and  N_4
REMARK    4  A    between atoms: C_12  and  N_13
REMARK    5  A    between atoms: C_14  and  C_15
REMARK    6  A    between atoms: C_20  and  O_21
REMARK                            x       y       z     vdW  Elec       q    Type
REMARK                         _______ _______ _______ _____ _____    ______ ____
ROOT
ATOM      1  N   UNL     1       0.738  -1.962  -1.265  0.00  0.00    -0.310 N 
ATOM      2  C   UNL     1       1.715  -2.773  -0.717  0.00  0.00    +0.068 A 
ATOM      3  C   UNL     1       2.900  -2.527  -0.038  0.00  0.00    +0.028 A 
ATOM      4  C   UNL     1       3.675  -3.585   0.391  0.00  0.00    +0.002 A 
ATOM      5  C   UNL     1       3.277  -4.892   0.147  0.00  0.00    +0.002 A 
ATOM      6  C   UNL     1       2.115  -5.154  -0.520  0.00  0.00    +0.028 A 
ATOM      7  C   UNL     1       1.312  -4.098  -0.964  0.00  0.00    +0.066 A 
ATOM      8  N   UNL     1       0.136  -4.041  -1.635  0.00  0.00    -0.324 N 
ATOM      9  C   UNL     1      -0.212  -2.786  -1.812  0.00  0.00    +0.209 A 
ATOM     10  H   UNL     1      -0.373  -4.810  -1.935  0.00  0.00    +0.169 HD
ENDROOT
BRANCH   9  11
ATOM     11  N   UNL     1      -1.340  -2.369  -2.443  0.00  0.00    -0.221 NA
ATOM     12  C   UNL     1      -2.180  -3.245  -2.929  0.00  0.00    +0.126 C 
BRANCH  12  13
ATOM     13  C   UNL     1      -3.399  -2.794  -3.611  0.00  0.00    +0.037 A 
ATOM     14  C   UNL     1      -4.304  -3.728  -4.127  0.00  0.00    +0.028 A 
ATOM     15  C   UNL     1      -5.447  -3.297  -4.766  0.00  0.00    +0.020 A 
ATOM     16  C   UNL     1      -5.704  -1.942  -4.901  0.00  0.00    +0.034 A 
ATOM     17  C   UNL     1      -4.819  -1.008  -4.397  0.00  0.00    +0.061 A 
ATOM     18  C   UNL     1      -3.667  -1.422  -3.745  0.00  0.00    +0.139 A 
ATOM     19 BR   UNL     1      -5.183   0.838  -4.588  0.00  0.00    -0.046 Br
ATOM     20 BR   UNL     1      -6.668  -4.561  -5.464  0.00  0.00    -0.050 Br
BRANCH  18  21
ATOM     21  O   UNL     1      -2.800  -0.506  -3.244  0.00  0.00    -0.505 OA
ATOM     22  H   UNL     1      -2.114  -0.231  -3.868  0.00  0.00    +0.292 HD
ENDBRANCH  18  21
ENDBRANCH  12  13
ENDBRANCH   9  11
BRANCH   1  23
ATOM     23  C   UNL     1       0.718  -0.497  -1.257  0.00  0.00    +0.125 C 
BRANCH  23  25
ATOM     24  C   UNL     1      -0.019   1.526   0.010  0.00  0.00    +0.005 C 
ATOM     25  C   UNL     1       0.002  -0.004   0.002  0.00  0.00    +0.018 C 
ENDBRANCH  23  25
ENDBRANCH   1  23
TORSDOF 5
