REMARK  Name = ZINC39597689
REMARK  5 active torsions:
REMARK  status: ('A' for Active; 'I' for Inactive)
REMARK    1  A    between atoms: C_7  and  C_10
REMARK    2  A    between atoms: C_10  and  C_11
REMARK    3  A    between atoms: C_11  and  N_12
REMARK    4  A    between atoms: C_13  and  C_15
REMARK    5  A    between atoms: C_26  and  C_28
REMARK                            x       y       z     vdW  Elec       q    Type
REMARK                         _______ _______ _______ _____ _____    ______ ____
ROOT
ATOM      1  C   UNL     1      -5.660   7.126  -2.507  0.00  0.00    +0.100 C 
ATOM      2  C   UNL     1      -7.142   7.129  -2.069  0.00  0.00    +0.121 C 
ATOM      3  N   UNL     1      -7.777   8.176  -2.903  0.00  0.00    -0.300 N 
ATOM      4  C   UNL     1      -7.147   8.018  -4.236  0.00  0.00    +0.115 C 
ATOM      5  C   UNL     1      -5.668   7.709  -3.930  0.00  0.00    -0.004 C 
ATOM      6  C   UNL     1      -5.127   6.686  -4.924  0.00  0.00    -0.010 C 
ATOM      7  C   UNL     1      -5.089   7.309  -6.322  0.00  0.00    -0.082 C 
ATOM      8  N   UNL     1      -4.235   8.503  -6.305  0.00  0.00    +0.379 N 
ATOM      9  C   UNL     1      -4.814   9.519  -5.417  0.00  0.00    -0.082 C 
ATOM     10  C   UNL     1      -4.840   8.989  -3.981  0.00  0.00    -0.010 C 
ATOM     11  C   UNL     1      -8.715   9.071  -2.534  0.00  0.00    +0.219 C 
ATOM     12  O   UNL     1      -9.140   9.872  -3.340  0.00  0.00    -0.275 OA
ATOM     13  H   UNL     1      -3.316   8.253  -5.973  0.00  0.00    -0.086 HD
ATOM     14  H   UNL     1      -4.163   8.877  -7.239  0.00  0.00    -0.086 HD
ENDROOT
BRANCH   1  16
ATOM     15  N   UNL     1      -3.808   5.499  -2.300  0.00  0.00    -0.315 N 
ATOM     16  C   UNL     1      -5.120   5.719  -2.519  0.00  0.00    +0.218 C 
ATOM     17  O   UNL     1      -5.865   4.785  -2.727  0.00  0.00    -0.275 OA
ATOM     18  H   UNL     1      -3.212   6.246  -2.135  0.00  0.00    +0.149 HD
BRANCH  15  19
ATOM     19  C   UNL     1      -3.283   4.132  -2.313  0.00  0.00    +0.109 C 
BRANCH  19  20
ATOM     20  C   UNL     1      -1.778   4.161  -2.039  0.00  0.00    +0.056 C 
BRANCH  20  27
ATOM     21  C   UNL     1      -0.299   1.323  -5.465  0.00  0.00    +0.001 A 
ATOM     22  C   UNL     1       0.121   0.086  -4.998  0.00  0.00    +0.002 A 
ATOM     23  C   UNL     1       0.081  -0.209  -3.653  0.00  0.00    +0.026 A 
ATOM     24  C   UNL     1      -0.386   0.742  -2.752  0.00  0.00    +0.047 A 
ATOM     25  N   UNL     1      -0.547   0.753  -1.384  0.00  0.00    -0.360 N 
ATOM     26  C   UNL     1      -1.055   1.960  -0.985  0.00  0.00    +0.087 A 
ATOM     27  C   UNL     1      -1.237   2.755  -2.052  0.00  0.00    -0.021 A 
ATOM     28  C   UNL     1      -0.811   1.995  -3.230  0.00  0.00    +0.003 A 
ATOM     29  C   UNL     1      -0.757   2.274  -4.596  0.00  0.00    +0.010 A 
ATOM     30  H   UNL     1      -0.333   0.016  -0.792  0.00  0.00    +0.165 HD
ENDBRANCH  20  27
ENDBRANCH  19  20
ENDBRANCH  15  19
ENDBRANCH   1  16
BRANCH  11  31
ATOM     31  C   UNL     1      -9.236   9.076  -1.120  0.00  0.00    +0.075 C 
ATOM     32  C   UNL     1     -10.341   8.037  -0.867  0.00  0.00    +0.013 C 
ATOM     33  C   UNL     1     -11.043   9.107  -0.014  0.00  0.00    +0.001 C 
ATOM     34  C   UNL     1     -10.300  10.155  -0.859  0.00  0.00    +0.013 C 
ENDBRANCH  11  31
TORSDOF 5
