REMARK  Name = ZINC08388785
REMARK  9 active torsions:
REMARK  status: ('A' for Active; 'I' for Inactive)
REMARK    1  A    between atoms: C_1  and  C_2
REMARK    2  A    between atoms: C_2  and  O_3
REMARK    3  A    between atoms: O_3  and  C_4
REMARK    4  A    between atoms: C_4  and  C_6
REMARK    5  A    between atoms: C_7  and  C_15
REMARK    6  A    between atoms: C_12  and  C_14
REMARK    7  A    between atoms: C_15  and  S_16
REMARK    8  A    between atoms: S_16  and  C_17
REMARK    9  A    between atoms: C_28  and  C_30
REMARK                            x       y       z     vdW  Elec       q    Type
REMARK                         _______ _______ _______ _____ _____    ______ ____
ROOT
ATOM      1  C   UNL     1      -3.286   8.219   0.139  0.00  0.00    +0.128 C 
ENDROOT
BRANCH   1   3
ATOM      2  C   UNL     1      -1.941   9.887  -1.089  0.00  0.00    +0.074 C 
ATOM      3  C   UNL     1      -2.295   9.354   0.101  0.00  0.00    +0.034 C 
ATOM      4  N   UNL     1      -1.774   9.831   1.270  0.00  0.00    -0.272 N 
ATOM      5  C   UNL     1      -0.886  10.830   1.333  0.00  0.00    +0.304 C 
ATOM      6  O   UNL     1      -0.474  11.182   2.422  0.00  0.00    -0.253 OA
ATOM      7  N   UNL     1      -0.437  11.462   0.231  0.00  0.00    -0.292 N 
ATOM      8  C   UNL     1      -0.943  11.027  -1.081  0.00  0.00    +0.110 C 
ATOM      9  C   UNL     1       0.257  10.608  -1.933  0.00  0.00    +0.033 C 
ATOM     10  H   UNL     1      -2.061   9.419   2.100  0.00  0.00    +0.156 HD
ATOM     11  H   UNL     1       0.205  12.187   0.301  0.00  0.00    +0.151 HD
BRANCH   2  12
ATOM     12  C   UNL     1      -2.484   9.399  -2.300  0.00  0.00    +0.338 C 
ATOM     13  O   UNL     1      -3.172   8.394  -2.297  0.00  0.00    -0.245 OA
BRANCH  12  14
ATOM     14  O   UNL     1      -2.241  10.046  -3.458  0.00  0.00    -0.462 OA
BRANCH  14  16
ATOM     15  C   UNL     1      -2.437  10.360  -5.847  0.00  0.00    +0.048 C 
ATOM     16  C   UNL     1      -2.821   9.497  -4.643  0.00  0.00    +0.229 C 
ENDBRANCH  14  16
ENDBRANCH  12  14
ENDBRANCH   2  12
ENDBRANCH   1   3
BRANCH   1  17
ATOM     17  S   UNL     1      -2.400   6.651   0.313  0.00  0.00    -0.080 S 
BRANCH  17  18
ATOM     18  C   UNL     1      -3.760   5.531   0.330  0.00  0.00    +0.197 A 
ATOM     19  N   UNL     1      -5.033   5.848   0.236  0.00  0.00    -0.122 NA
ATOM     20  N   UNL     1      -5.760   4.789   0.282  0.00  0.00    -0.129 NA
ATOM     21  C   UNL     1      -4.991   3.723   0.410  0.00  0.00    +0.162 A 
ATOM     22  N   UNL     1      -3.690   4.173   0.444  0.00  0.00    -0.270 N 
ATOM     23  C   UNL     1      -2.635   3.286   0.572  0.00  0.00    +0.058 A 
ATOM     24  C   UNL     1      -1.323   3.738   0.606  0.00  0.00    +0.027 A 
ATOM     25  C   UNL     1      -0.287   2.837   0.734  0.00  0.00    +0.002 A 
ATOM     26  C   UNL     1      -0.542   1.476   0.829  0.00  0.00    +0.001 A 
ATOM     27  C   UNL     1      -1.836   1.007   0.798  0.00  0.00    +0.010 A 
ATOM     28  C   UNL     1      -2.897   1.908   0.663  0.00  0.00    +0.002 A 
ATOM     29  C   UNL     1      -4.285   1.439   0.632  0.00  0.00    -0.038 A 
ATOM     30  C   UNL     1      -5.283   2.342   0.506  0.00  0.00    +0.052 A 
ATOM     31  C   UNL     1      -4.596  -0.033   0.733  0.00  0.00    +0.044 C 
ENDBRANCH  17  18
ENDBRANCH   1  17
TORSDOF 6
