REMARK  Name = ZINC35990864
REMARK  8 active torsions:
REMARK  status: ('A' for Active; 'I' for Inactive)
REMARK    1  A    between atoms: C_1  and  C_2
REMARK    2  A    between atoms: C_2  and  O_3
REMARK    3  A    between atoms: O_3  and  C_4
REMARK    4  A    between atoms: C_4  and  C_6
REMARK    5  A    between atoms: C_7  and  C_23
REMARK    6  A    between atoms: N_8  and  C_22
REMARK    7  A    between atoms: C_12  and  C_14
REMARK    8  A    between atoms: C_23  and  N_24
REMARK                            x       y       z     vdW  Elec       q    Type
REMARK                         _______ _______ _______ _____ _____    ______ ____
ROOT
ATOM      1  C   UNL     1      -3.073  -2.377  -0.079  0.00  0.00    +0.080 C 
ATOM      2  C   UNL     1      -3.526  -3.648  -0.126  0.00  0.00    +0.041 C 
ATOM      3  N   UNL     1      -4.861  -3.924  -0.035  0.00  0.00    -0.260 N 
ATOM      4  C   UNL     1      -5.806  -2.986   0.103  0.00  0.00    +0.307 C 
ATOM      5  O   UNL     1      -6.969  -3.329   0.175  0.00  0.00    -0.252 OA
ATOM      6  N   UNL     1      -5.508  -1.672   0.165  0.00  0.00    -0.288 N 
ATOM      7  C   UNL     1      -4.095  -1.269   0.083  0.00  0.00    +0.145 C 
ATOM      8  C   UNL     1      -5.282  -5.326  -0.093  0.00  0.00    +0.139 C 
ATOM      9  H   UNL     1      -6.209  -1.009   0.265  0.00  0.00    +0.151 HD
ENDROOT
BRANCH   7  10
ATOM     10  C   UNL     1      -3.951  -0.330  -1.087  0.00  0.00    -0.003 A 
ATOM     11  C   UNL     1      -4.713  -0.523  -2.225  0.00  0.00    +0.007 A 
ATOM     12  C   UNL     1      -4.582   0.337  -3.299  0.00  0.00    +0.002 A 
ATOM     13  C   UNL     1      -3.689   1.391  -3.236  0.00  0.00    +0.021 A 
ATOM     14  C   UNL     1      -2.927   1.585  -2.099  0.00  0.00    +0.060 A 
ATOM     15  C   UNL     1      -3.062   0.727  -1.021  0.00  0.00    +0.064 A 
ATOM     16 CL   UNL     1      -2.112   0.974   0.411  0.00  0.00    -0.082 Cl
ATOM     17 CL   UNL     1      -1.806   2.909  -2.020  0.00  0.00    -0.082 Cl
ENDBRANCH   7  10
BRANCH   1  18
ATOM     18  C   UNL     1      -1.691  -2.089  -0.172  0.00  0.00    +0.339 C 
ATOM     19  O   UNL     1      -1.058  -1.813   0.830  0.00  0.00    -0.245 OA
BRANCH  18  20
ATOM     20  O   UNL     1      -1.075  -2.120  -1.372  0.00  0.00    -0.462 OA
BRANCH  20  22
ATOM     21  C   UNL     1       0.842  -1.876  -2.823  0.00  0.00    +0.048 C 
ATOM     22  C   UNL     1       0.342  -1.930  -1.379  0.00  0.00    +0.229 C 
ENDBRANCH  20  22
ENDBRANCH  18  20
ENDBRANCH   1  18
BRANCH   2  23
ATOM     23  C   UNL     1      -2.544  -4.780  -0.280  0.00  0.00    +0.136 C 
BRANCH  23  24
ATOM     24  N   UNL     1      -2.569  -5.619   0.925  0.00  0.00    -0.299 NA
ATOM     25  C   UNL     1      -2.137  -4.849   2.117  0.00  0.00    +0.083 C 
ATOM     26  C   UNL     1      -2.723  -5.500   3.344  0.00  0.00    -0.004 C 
ATOM     27  C   UNL     1      -1.776  -6.534   3.974  0.00  0.00    -0.081 C 
ATOM     28  N   UNL     1      -1.101  -7.379   2.964  0.00  0.00    +0.380 N 
ATOM     29  C   UNL     1      -1.995  -7.785   1.903  0.00  0.00    -0.067 C 
ATOM     30  C   UNL     1      -1.843  -6.798   0.731  0.00  0.00    +0.066 C 
ATOM     31  H   UNL     1      -0.333  -6.861   2.564  0.00  0.00    -0.086 HD
ATOM     32  H   UNL     1      -0.736  -8.203   3.417  0.00  0.00    -0.086 HD
ENDBRANCH  23  24
ENDBRANCH   2  23
TORSDOF 6
