REMARK  Name = ZINC67556923
REMARK  7 active torsions:
REMARK  status: ('A' for Active; 'I' for Inactive)
REMARK    1  A    between atoms: C_1  and  C_2
REMARK    2  A    between atoms: C_4  and  C_28
REMARK    3  A    between atoms: C_12  and  C_14
REMARK    4  A    between atoms: N_16  and  C_17
REMARK    5  A    between atoms: C_17  and  C_18
REMARK    6  A    between atoms: C_18  and  C_20
REMARK    7  A    between atoms: C_18  and  O_27
REMARK                            x       y       z     vdW  Elec       q    Type
REMARK                         _______ _______ _______ _____ _____    ______ ____
ROOT
ATOM      1  C   UNL     1       0.244  -2.852   4.857  0.00  0.00    +0.300 C 
ATOM      2  O   UNL     1       0.017  -4.044   4.878  0.00  0.00    -0.265 OA
ATOM      3  N   UNL     1       0.418  -2.179   6.012  0.00  0.00    -0.305 N 
ATOM      4  H   UNL     1       0.600  -1.227   5.996  0.00  0.00    +0.149 HD
ENDROOT
BRANCH   1  16
ATOM      5  C   UNL     1      -0.524   1.349  -0.057  0.00  0.00    +0.044 C 
ATOM      6  C   UNL     1      -0.181  -0.118  -0.043  0.00  0.00    -0.048 A 
ATOM      7  C   UNL     1       0.058  -0.786  -1.230  0.00  0.00    +0.007 A 
ATOM      8  C   UNL     1       0.371  -2.131  -1.220  0.00  0.00    -0.045 A 
ATOM      9  C   UNL     1       0.448  -2.821  -0.022  0.00  0.00    -0.023 A 
ATOM     10  C   UNL     1       0.211  -2.153   1.169  0.00  0.00    +0.040 A 
ATOM     11  C   UNL     1      -0.100  -0.797   1.157  0.00  0.00    +0.027 A 
ATOM     12  N   UNL     1       0.291  -2.822   2.396  0.00  0.00    -0.263 N 
ATOM     13  C   UNL     1       0.328  -4.291   2.402  0.00  0.00    +0.114 C 
ATOM     14  C   UNL     1       1.313  -4.740   1.315  0.00  0.00    +0.024 C 
ATOM     15  C   UNL     1       0.785  -4.289  -0.046  0.00  0.00    +0.039 C 
ATOM     16  C   UNL     1       0.332  -2.131   3.552  0.00  0.00    +0.306 C 
ATOM     17  O   UNL     1       0.441  -0.922   3.533  0.00  0.00    -0.265 OA
ATOM     18  C   UNL     1       0.629  -2.851  -2.518  0.00  0.00    +0.044 C 
ENDBRANCH   1  16
BRANCH   3  19
ATOM     19  C   UNL     1       0.331  -2.887   7.292  0.00  0.00    +0.140 C 
BRANCH  19  20
ATOM     20  C   UNL     1       0.565  -1.899   8.437  0.00  0.00    +0.162 C 
BRANCH  20  21
ATOM     21  C   UNL     1       0.598  -2.646   9.746  0.00  0.00    -0.015 A 
ATOM     22  C   UNL     1      -0.584  -3.028  10.354  0.00  0.00    +0.006 A 
ATOM     23  C   UNL     1      -0.554  -3.713  11.554  0.00  0.00    +0.003 A 
ATOM     24  C   UNL     1       0.656  -4.017  12.148  0.00  0.00    +0.038 A 
ATOM     25  C   UNL     1       1.840  -3.636  11.539  0.00  0.00    +0.124 A 
ATOM     26  C   UNL     1       1.810  -2.955  10.334  0.00  0.00    +0.044 A 
ATOM     27  F   UNL     1       3.024  -3.932  12.119  0.00  0.00    -0.205 F 
ENDBRANCH  20  21
BRANCH  20  28
ATOM     28  O   UNL     1      -0.495  -0.941   8.463  0.00  0.00    -0.386 OA
ATOM     29  H   UNL     1      -1.372  -1.327   8.593  0.00  0.00    +0.210 HD
ENDBRANCH  20  28
ENDBRANCH  19  20
ENDBRANCH   3  19
TORSDOF 5
