REMARK  Name = ZINC36525517
REMARK  13 active torsions:
REMARK  status: ('A' for Active; 'I' for Inactive)
REMARK    1  A    between atoms: C_1  and  C_2
REMARK    2  A    between atoms: C_5  and  S_8
REMARK    3  A    between atoms: S_8  and  C_11
REMARK    4  A    between atoms: C_11  and  N_12
REMARK    5  A    between atoms: C_13  and  C_15
REMARK    6  A    between atoms: C_15  and  C_17
REMARK    7  A    between atoms: C_15  and  N_24
REMARK    8  A    between atoms: C_21  and  O_23
REMARK    9  A    between atoms: N_24  and  C_25
REMARK   10  A    between atoms: C_26  and  C_28
REMARK   11  A    between atoms: C_36  and  C_38
REMARK   12  A    between atoms: C_39  and  C_40
REMARK   13  A    between atoms: C_39  and  C_41
REMARK                            x       y       z     vdW  Elec       q    Type
REMARK                         _______ _______ _______ _____ _____    ______ ____
ROOT
ATOM      1  C   UNL     1       2.957  -5.819   3.138  0.00  0.00    +0.192 C 
ENDROOT
BRANCH   1   2
ATOM      2  C   UNL     1       1.766  -5.043   2.640  0.00  0.00    -0.015 A 
ATOM      3  C   UNL     1       0.510  -5.621   2.652  0.00  0.00    +0.006 A 
ATOM      4  C   UNL     1      -0.585  -4.911   2.196  0.00  0.00    +0.004 A 
ATOM      5  C   UNL     1      -0.427  -3.621   1.726  0.00  0.00    +0.045 A 
ATOM      6  C   UNL     1       0.832  -3.039   1.712  0.00  0.00    +0.117 A 
ATOM      7  C   UNL     1       1.928  -3.752   2.176  0.00  0.00    +0.051 A 
BRANCH   6   8
ATOM      8  O   UNL     1       0.990  -1.771   1.250  0.00  0.00    -0.507 OA
ATOM      9  H   UNL     1       0.900  -1.090   1.931  0.00  0.00    +0.292 HD
ENDBRANCH   6   8
ENDBRANCH   1   2
BRANCH   1  11
ATOM     10  N   UNL     1       3.399  -6.887   0.950  0.00  0.00    -0.294 N 
ATOM     11  C   UNL     1       3.164  -7.033   2.269  0.00  0.00    +0.239 C 
ATOM     12  O   UNL     1       3.119  -8.143   2.757  0.00  0.00    -0.273 OA
ATOM     13  H   UNL     1       3.435  -5.999   0.560  0.00  0.00    +0.150 HD
BRANCH  10  14
ATOM     14  C   UNL     1       3.600  -8.067   0.106  0.00  0.00    +0.278 C 
BRANCH  14  15
ATOM     15  S   UNL     1       2.026  -8.532  -0.667  0.00  0.00    +0.013 S 
ATOM     16  O   UNL     1       0.989  -8.546   0.304  0.00  0.00    -0.168 OA
ATOM     17  O   UNL     1       2.218  -9.638  -1.539  0.00  0.00    -0.168 OA
BRANCH  15  22
ATOM     18  C   UNL     1       0.661  -3.920  -4.309  0.00  0.00    +0.044 C 
ATOM     19  C   UNL     1       1.002  -5.072  -3.400  0.00  0.00    -0.050 A 
ATOM     20  C   UNL     1       1.755  -6.129  -3.876  0.00  0.00    +0.005 A 
ATOM     21  C   UNL     1       2.068  -7.186  -3.041  0.00  0.00    +0.027 A 
ATOM     22  C   UNL     1       1.629  -7.185  -1.730  0.00  0.00    +0.090 A 
ATOM     23  C   UNL     1       0.876  -6.127  -1.254  0.00  0.00    +0.027 A 
ATOM     24  C   UNL     1       0.567  -5.069  -2.087  0.00  0.00    +0.005 A 
ENDBRANCH  15  22
ENDBRANCH  14  15
ENDBRANCH  10  14
ENDBRANCH   1  11
BRANCH   1  25
ATOM     25  N   UNL     1       2.721  -6.242   4.520  0.00  0.00    -0.289 N 
ATOM     26  C   UNL     1       1.660  -7.206   4.820  0.00  0.00    +0.133 C 
ATOM     27  C   UNL     1       3.481  -5.744   5.516  0.00  0.00    +0.220 C 
ATOM     28  O   UNL     1       4.411  -5.009   5.260  0.00  0.00    -0.275 OA
BRANCH  27  29
ATOM     29  C   UNL     1       3.173  -6.104   6.958  0.00  0.00    +0.079 C 
ATOM     30  C   UNL     1       2.007  -5.247   7.438  0.00  0.00    +0.017 C 
ATOM     31  C   UNL     1       2.151  -4.821   8.899  0.00  0.00    -0.004 C 
ATOM     32  C   UNL     1       3.449  -4.016   9.124  0.00  0.00    +0.008 C 
ATOM     33  C   UNL     1       4.115  -5.413   9.206  0.00  0.00    -0.001 C 
ATOM     34  C   UNL     1       4.431  -5.903   7.794  0.00  0.00    +0.001 C 
ATOM     35  C   UNL     1       5.261  -7.189   7.838  0.00  0.00    +0.008 C 
ATOM     36  C   UNL     1       2.787  -5.888   9.800  0.00  0.00    -0.029 C 
ATOM     37  C   UNL     1       2.645  -5.569  11.301  0.00  0.00    +0.011 C 
ATOM     38  C   UNL     1       2.371  -7.326   9.510  0.00  0.00    +0.011 C 
ENDBRANCH  27  29
ENDBRANCH   1  25
TORSDOF 8
