REMARK  Name = ZINC04617917
REMARK  6 active torsions:
REMARK  status: ('A' for Active; 'I' for Inactive)
REMARK    1  A    between atoms: C_3  and  C_13
REMARK    2  A    between atoms: C_6  and  C_7
REMARK    3  A    between atoms: C_7  and  C_8
REMARK    4  A    between atoms: N_10  and  C_11
REMARK    5  A    between atoms: C_16  and  C_25
REMARK    6  A    between atoms: C_17  and  C_19
REMARK                            x       y       z     vdW  Elec       q    Type
REMARK                         _______ _______ _______ _____ _____    ______ ____
ROOT
ATOM      1  C   UNL     1       3.664   2.163   0.097  0.00  0.00    +0.139 A 
ATOM      2  N   UNL     1       4.913   1.612   0.066  0.00  0.00    -0.337 N 
ATOM      3  H   UNL     1       5.130   0.670   0.146  0.00  0.00    +0.167 HD
ATOM      4  C   UNL     1       5.807   2.643  -0.101  0.00  0.00    +0.074 A 
ATOM      5  C   UNL     1       5.056   3.805  -0.166  0.00  0.00    +0.097 A 
ATOM      6  N   UNL     1       3.763   3.464  -0.047  0.00  0.00    -0.227 NA
ENDROOT
BRANCH   4   7
ATOM      7  C   UNL     1       7.276   2.533  -0.193  0.00  0.00    +0.001 A 
ATOM      8  C   UNL     1       8.091   3.379   0.564  0.00  0.00    +0.013 A 
ATOM      9  C   UNL     1       9.463   3.271   0.475  0.00  0.00    +0.039 A 
ATOM     10  C   UNL     1      10.034   2.326  -0.364  0.00  0.00    +0.123 A 
ATOM     11  C   UNL     1       9.230   1.484  -1.117  0.00  0.00    +0.039 A 
ATOM     12  C   UNL     1       7.857   1.579  -1.031  0.00  0.00    +0.013 A 
ATOM     13  F   UNL     1      11.378   2.225  -0.447  0.00  0.00    -0.205 F 
ENDBRANCH   4   7
BRANCH   1  16
ATOM     14  C   UNL     1       0.005   1.382   0.426  0.00  0.00    +0.005 A 
ATOM     15  C   UNL     1       1.180   2.088   0.273  0.00  0.00    +0.012 A 
ATOM     16  C   UNL     1       2.401   1.412   0.262  0.00  0.00    +0.017 A 
ATOM     17  C   UNL     1       2.424   0.024   0.406  0.00  0.00    +0.012 A 
ATOM     18  C   UNL     1       1.241  -0.670   0.559  0.00  0.00    +0.005 A 
ATOM     19  C   UNL     1       0.035   0.006   0.569  0.00  0.00    -0.040 A 
BRANCH  19  20
ATOM     20  C   UNL     1      -1.253  -0.759   0.736  0.00  0.00    +0.104 C 
BRANCH  20  21
ATOM     21  C   UNL     1      -1.777  -1.162  -0.618  0.00  0.00    +0.082 C 
ATOM     22  N   UNL     1      -2.579  -0.378  -1.260  0.00  0.00    -0.389 N 
ATOM     23  N   UNL     1      -1.403  -2.364  -1.170  0.00  0.00    -0.242 N 
ATOM     24  H   UNL     1      -2.916  -0.637  -2.132  0.00  0.00    +0.157 HD
ATOM     25  H   UNL     1      -0.801  -2.953  -0.688  0.00  0.00    +0.165 HD
ATOM     26  H   UNL     1      -2.843   0.470  -0.871  0.00  0.00    +0.157 HD
BRANCH  23  27
ATOM     27  C   UNL     1      -1.874  -2.727  -2.387  0.00  0.00    +0.172 C 
ATOM     28  N   UNL     1      -2.269  -3.031  -3.408  0.00  0.00    -0.174 NA
ENDBRANCH  23  27
ENDBRANCH  20  21
ENDBRANCH  19  20
ENDBRANCH   1  16
BRANCH   5  29
ATOM     29  C   UNL     1       5.584   5.177  -0.342  0.00  0.00    +0.005 A 
ATOM     30  C   UNL     1       6.614   5.440  -1.253  0.00  0.00    +0.030 A 
ATOM     31  C   UNL     1       7.076   6.732  -1.385  0.00  0.00    +0.111 A 
ATOM     32  N   UNL     1       6.561   7.713  -0.667  0.00  0.00    -0.263 NA
ATOM     33  C   UNL     1       5.590   7.508   0.203  0.00  0.00    +0.111 A 
ATOM     34  C   UNL     1       5.064   6.248   0.394  0.00  0.00    +0.030 A 
ENDBRANCH   5  29
TORSDOF 6
