REMARK  Name = ZINC12070774
REMARK  14 active torsions:
REMARK  status: ('A' for Active; 'I' for Inactive)
REMARK    1  A    between atoms: C_1  and  C_2
REMARK    2  A    between atoms: C_2  and  O_3
REMARK    3  A    between atoms: O_3  and  C_4
REMARK    4  A    between atoms: N_13  and  C_14
REMARK    5  A    between atoms: C_14  and  C_15
REMARK    6  A    between atoms: C_15  and  N_64
REMARK    7  A    between atoms: C_16  and  N_64
REMARK    8  A    between atoms: C_17  and  N_64
REMARK    9  A    between atoms: C_18  and  C_20
REMARK   10  A    between atoms: C_20  and  C_21
REMARK   11  A    between atoms: C_24  and  S_27
REMARK   12  A    between atoms: S_27  and  C_30
REMARK   13  A    between atoms: C_30  and  C_31
REMARK   14  A    between atoms: C_30  and  C_32
REMARK                            x       y       z     vdW  Elec       q    Type
REMARK                         _______ _______ _______ _____ _____    ______ ____
ROOT
ATOM      1  C   UNL     1       2.404  -0.002  -0.021  0.00  0.00    +0.147 A 
ATOM      2  C   UNL     1       2.374   1.373  -0.012  0.00  0.00    +0.048 A 
ATOM      3  C   UNL     1       1.175   2.070   0.002  0.00  0.00    +0.005 A 
ATOM      4  C   UNL     1      -0.017   1.369   0.010  0.00  0.00    +0.017 A 
ATOM      5  C   UNL     1       0.002  -0.004   0.002  0.00  0.00    +0.044 A 
ATOM      6  C   UNL     1       1.201  -0.751  -0.013  0.00  0.00    +0.122 A 
ATOM      7  N   UNL     1       1.054  -2.094  -0.019  0.00  0.00    -0.221 NA
ATOM      8  C   UNL     1      -0.123  -2.675  -0.011  0.00  0.00    +0.168 A 
ATOM      9  S   UNL     1      -1.237  -1.278   0.007  0.00  0.00    -0.052 S 
ATOM     10  N   UNL     1      -0.425  -4.028  -0.015  0.00  0.00    -0.252 N 
ATOM     11  C   UNL     1       0.568  -4.940  -0.030  0.00  0.00    +0.225 C 
ATOM     12  O   UNL     1       1.725  -4.577  -0.039  0.00  0.00    -0.275 OA
ENDROOT
BRANCH   1  13
ATOM     13  O   UNL     1       3.600  -0.649  -0.035  0.00  0.00    -0.490 OA
BRANCH  13  15
ATOM     14  C   UNL     1       6.015  -0.736  -0.059  0.00  0.00    +0.048 C 
ATOM     15  C   UNL     1       4.776   0.162  -0.042  0.00  0.00    +0.226 C 
ENDBRANCH  13  15
ENDBRANCH   1  13
BRANCH  10  16
ATOM     16  C   UNL     1      -1.822  -4.466  -0.004  0.00  0.00    +0.097 C 
BRANCH  16  17
ATOM     17  C   UNL     1      -2.323  -4.611  -1.443  0.00  0.00    -0.060 C 
BRANCH  17  20
ATOM     18  C   UNL     1      -4.311  -4.974  -2.777  0.00  0.00    -0.097 C 
ATOM     19  C   UNL     1      -3.846  -6.407  -0.881  0.00  0.00    -0.097 C 
ATOM     20  N   UNL     1      -3.739  -5.033  -1.415  0.00  0.00    +0.377 N 
ATOM     21  H   UNL     1      -4.265  -4.397  -0.805  0.00  0.00    -0.083 HD
ENDBRANCH  17  20
ENDBRANCH  16  17
ENDBRANCH  10  16
BRANCH  11  22
ATOM     22  C   UNL     1       0.239  -6.410  -0.035  0.00  0.00    +0.131 C 
BRANCH  22  23
ATOM     23  C   UNL     1       1.517  -7.210  -0.051  0.00  0.00    -0.038 A 
ATOM     24  C   UNL     1       2.088  -7.575  -1.256  0.00  0.00    +0.006 A 
ATOM     25  C   UNL     1       3.262  -8.305  -1.271  0.00  0.00    +0.027 A 
ATOM     26  C   UNL     1       3.860  -8.678  -0.081  0.00  0.00    +0.088 A 
ATOM     27  C   UNL     1       3.285  -8.317   1.123  0.00  0.00    +0.027 A 
ATOM     28  C   UNL     1       2.114  -7.583   1.138  0.00  0.00    +0.006 A 
BRANCH  26  29
ATOM     29  S   UNL     1       5.354  -9.612  -0.101  0.00  0.00    -0.001 S 
ATOM     30  O   UNL     1       5.968  -9.287  -1.340  0.00  0.00    -0.169 OA
ATOM     31  O   UNL     1       5.993  -9.298   1.129  0.00  0.00    -0.169 OA
BRANCH  29  32
ATOM     32  C   UNL     1       4.820 -11.345  -0.103  0.00  0.00    +0.130 C 
ATOM     33  C   UNL     1       3.968 -11.614  -1.346  0.00  0.00    +0.032 C 
ATOM     34  C   UNL     1       6.048 -12.257  -0.120  0.00  0.00    +0.032 C 
ENDBRANCH  29  32
ENDBRANCH  26  29
ENDBRANCH  22  23
ENDBRANCH  11  22
TORSDOF 9
