REMARK  Name = ZINC35099340
REMARK  6 active torsions:
REMARK  status: ('A' for Active; 'I' for Inactive)
REMARK    1  A    between atoms: C_1  and  C_2
REMARK    2  A    between atoms: C_5  and  C_8
REMARK    3  A    between atoms: C_8  and  O_32
REMARK    4  A    between atoms: C_9  and  C_26
REMARK    5  A    between atoms: C_11  and  C_17
REMARK    6  A    between atoms: C_26  and  C_28
REMARK                            x       y       z     vdW  Elec       q    Type
REMARK                         _______ _______ _______ _____ _____    ______ ____
ROOT
ATOM      1  C   UNL     1      -0.046  -3.986   0.008  0.00  0.00    +0.172 C 
ATOM      2  C   UNL     1      -1.459  -4.571   0.092  0.00  0.00    +0.144 C 
ATOM      3  C   UNL     1      -2.130  -4.428  -1.278  0.00  0.00    +0.120 C 
ATOM      4  N   UNL     1      -1.288  -5.062  -2.293  0.00  0.00    -0.292 N 
ATOM      5  C   UNL     1       0.044  -5.133  -2.151  0.00  0.00    +0.302 C 
ATOM      6  O   UNL     1       0.698  -5.661  -3.030  0.00  0.00    -0.253 OA
ATOM      7  N   UNL     1       0.683  -4.644  -1.077  0.00  0.00    -0.267 N 
ATOM      8  H   UNL     1      -1.702  -5.439  -3.086  0.00  0.00    +0.151 HD
ATOM      9  H   UNL     1       1.647  -4.729  -1.019  0.00  0.00    +0.153 HD
ENDROOT
BRANCH   3  10
ATOM     10  C   UNL     1      -3.480  -5.097  -1.251  0.00  0.00    -0.023 A 
ATOM     11  C   UNL     1      -3.583  -6.452  -1.504  0.00  0.00    +0.009 A 
ATOM     12  C   UNL     1      -4.819  -7.071  -1.480  0.00  0.00    +0.050 A 
ATOM     13  C   UNL     1      -5.958  -6.333  -1.202  0.00  0.00    +0.166 A 
ATOM     14  C   UNL     1      -5.854  -4.968  -0.947  0.00  0.00    +0.167 A 
ATOM     15  C   UNL     1      -4.612  -4.356  -0.968  0.00  0.00    +0.055 A 
ATOM     16  O   UNL     1      -7.103  -4.473  -0.704  0.00  0.00    -0.453 OA
ATOM     17  C   UNL     1      -8.015  -5.464  -1.214  0.00  0.00    +0.466 C 
ATOM     18  O   UNL     1      -7.272  -6.694  -1.119  0.00  0.00    -0.453 OA
ENDBRANCH   3  10
BRANCH   1  23
ATOM     19  C   UNL     1      -0.370   1.687  -1.045  0.00  0.00    +0.044 C 
ATOM     20  C   UNL     1      -0.285   0.208  -0.771  0.00  0.00    -0.050 A 
ATOM     21  C   UNL     1      -0.233  -0.688  -1.822  0.00  0.00    +0.004 A 
ATOM     22  C   UNL     1      -0.155  -2.045  -1.570  0.00  0.00    +0.008 A 
ATOM     23  C   UNL     1      -0.130  -2.506  -0.267  0.00  0.00    +0.003 A 
ATOM     24  C   UNL     1      -0.181  -1.610   0.784  0.00  0.00    +0.008 A 
ATOM     25  C   UNL     1      -0.254  -0.253   0.532  0.00  0.00    +0.004 A 
ENDBRANCH   1  23
BRANCH   2  26
ATOM     26  C   UNL     1      -1.382  -6.028   0.472  0.00  0.00    +0.245 C 
ATOM     27  O   UNL     1      -0.814  -6.811  -0.251  0.00  0.00    -0.287 OA
BRANCH  26  28
ATOM     28  C   UNL     1      -2.013  -6.507   1.753  0.00  0.00    +0.451 C 
ATOM     29  F   UNL     1      -1.736  -7.867   1.929  0.00  0.00    -0.163 F 
ATOM     30  F   UNL     1      -1.492  -5.782   2.830  0.00  0.00    -0.163 F 
ATOM     31  F   UNL     1      -3.398  -6.318   1.690  0.00  0.00    -0.163 F 
ENDBRANCH  26  28
ENDBRANCH   2  26
BRANCH   1  32
ATOM     32  O   UNL     1       0.638  -4.204   1.244  0.00  0.00    -0.367 OA
ATOM     33  H   UNL     1       1.541  -3.860   1.259  0.00  0.00    +0.212 HD
ENDBRANCH   1  32
TORSDOF 5
