REMARK  Name = ZINC13045666
REMARK  10 active torsions:
REMARK  status: ('A' for Active; 'I' for Inactive)
REMARK    1  A    between atoms: C_1  and  C_2
REMARK    2  A    between atoms: C_2  and  C_4
REMARK    3  A    between atoms: C_2  and  S_19
REMARK    4  A    between atoms: N_6  and  C_7
REMARK    5  A    between atoms: C_12  and  C_13
REMARK    6  A    between atoms: S_19  and  C_20
REMARK    7  A    between atoms: C_24  and  C_34
REMARK    8  A    between atoms: N_30  and  C_31
REMARK    9  A    between atoms: C_31  and  C_32
REMARK   10  A    between atoms: C_32  and  O_33
REMARK                            x       y       z     vdW  Elec       q    Type
REMARK                         _______ _______ _______ _____ _____    ______ ____
ROOT
ATOM      1  S   UNL     1       4.925  -3.048  -5.091  0.00  0.00    -0.075 S 
ENDROOT
BRANCH   1   2
ATOM      2  C   UNL     1       5.831  -1.882  -6.053  0.00  0.00    +0.173 A 
ATOM      3  N   UNL     1       5.987  -0.670  -5.580  0.00  0.00    -0.223 NA
ATOM      4  C   UNL     1       6.676   0.274  -6.264  0.00  0.00    +0.080 A 
ATOM      5  C   UNL     1       6.846   1.565  -5.755  0.00  0.00    +0.043 A 
ATOM      6  C   UNL     1       7.556   2.502  -6.496  0.00  0.00    +0.065 A 
ATOM      7  C   UNL     1       8.099   2.161  -7.741  0.00  0.00    +0.016 A 
ATOM      8  C   UNL     1       7.939   0.903  -8.248  0.00  0.00    +0.016 A 
ATOM      9  C   UNL     1       7.230  -0.053  -7.522  0.00  0.00    +0.065 A 
ATOM     10  C   UNL     1       7.034  -1.420  -8.031  0.00  0.00    +0.262 A 
ATOM     11  O   UNL     1       7.486  -1.763  -9.107  0.00  0.00    -0.267 OA
ATOM     12  N   UNL     1       6.333  -2.282  -7.258  0.00  0.00    -0.285 N 
BRANCH   6  13
ATOM     13  C   UNL     1       7.740   3.871  -5.964  0.00  0.00    +0.387 C 
ATOM     14  O   UNL     1       7.272   4.171  -4.885  0.00  0.00    -0.241 OA
ATOM     15  O   UNL     1       8.427   4.783  -6.678  0.00  0.00    -0.241 OA
ENDBRANCH   6  13
BRANCH  12  16
ATOM     16  C   UNL     1       6.109  -3.654  -7.719  0.00  0.00    +0.155 C 
BRANCH  16  17
ATOM     17  C   UNL     1       4.811  -3.716  -8.526  0.00  0.00    +0.177 C 
BRANCH  17  18
ATOM     18  O   UNL     1       4.951  -2.937  -9.715  0.00  0.00    -0.393 OA
ATOM     19  H   UNL     1       4.163  -2.931 -10.276  0.00  0.00    +0.209 HD
ENDBRANCH  17  18
ENDBRANCH  16  17
ENDBRANCH  12  16
ENDBRANCH   1   2
BRANCH   1  21
ATOM     20  C   UNL     1       5.800  -1.639  -2.921  0.00  0.00    +0.029 C 
ATOM     21  C   UNL     1       4.515  -2.022  -3.658  0.00  0.00    +0.137 C 
BRANCH  21  22
ATOM     22  C   UNL     1       3.615  -2.795  -2.728  0.00  0.00    +0.230 C 
ATOM     23  O   UNL     1       3.635  -4.007  -2.733  0.00  0.00    -0.274 OA
ATOM     24  N   UNL     1       2.786  -2.138  -1.893  0.00  0.00    -0.284 N 
ATOM     25  H   UNL     1       2.722  -1.171  -1.934  0.00  0.00    +0.155 HD
BRANCH  24  26
ATOM     26  C   UNL     1       2.020  -2.850  -0.966  0.00  0.00    +0.041 A 
ATOM     27  C   UNL     1       1.521  -4.103  -1.291  0.00  0.00    +0.024 A 
ATOM     28  C   UNL     1       0.764  -4.805  -0.374  0.00  0.00    +0.002 A 
ATOM     29  C   UNL     1       0.499  -4.266   0.873  0.00  0.00    +0.001 A 
ATOM     30  C   UNL     1       0.993  -3.022   1.212  0.00  0.00    +0.010 A 
ATOM     31  C   UNL     1       1.753  -2.302   0.293  0.00  0.00    +0.003 A 
BRANCH  31  32
ATOM     32  C   UNL     1       2.282  -0.963   0.651  0.00  0.00    -0.016 A 
ATOM     33  C   UNL     1       1.433   0.005   1.185  0.00  0.00    +0.008 A 
ATOM     34  C   UNL     1       1.930   1.249   1.516  0.00  0.00    +0.001 A 
ATOM     35  C   UNL     1       3.269   1.536   1.319  0.00  0.00    +0.000 A 
ATOM     36  C   UNL     1       4.116   0.579   0.790  0.00  0.00    +0.001 A 
ATOM     37  C   UNL     1       3.630  -0.668   0.455  0.00  0.00    +0.008 A 
ENDBRANCH  31  32
ENDBRANCH  24  26
ENDBRANCH  21  22
ENDBRANCH   1  21
TORSDOF 9
