REMARK  Name = ZINC06203004
REMARK  6 active torsions:
REMARK  status: ('A' for Active; 'I' for Inactive)
REMARK    1  A    between atoms: C_1  and  C_2
REMARK    2  A    between atoms: C_7  and  O_8
REMARK    3  A    between atoms: O_8  and  C_9
REMARK    4  A    between atoms: C_9  and  C_10
REMARK    5  A    between atoms: N_12  and  C_13
REMARK    6  A    between atoms: C_14  and  C_23
REMARK                            x       y       z     vdW  Elec       q    Type
REMARK                         _______ _______ _______ _____ _____    ______ ____
ROOT
ATOM      1  C   UNL     1       5.198  -2.704  -0.062  0.00  0.00    +0.084 A 
ATOM      2  C   UNL     1       5.599  -4.030  -0.067  0.00  0.00    +0.068 A 
ATOM      3  C   UNL     1       7.029  -4.306  -0.092  0.00  0.00    -0.023 A 
ATOM      4  C   UNL     1       7.820  -3.212  -0.089  0.00  0.00    -0.004 A 
ATOM      5  S   UNL     1       6.699  -1.840  -0.071  0.00  0.00    -0.077 S 
ATOM      6  C   UNL     1       9.316  -3.164  -0.085  0.00  0.00    +0.043 C 
ATOM      7  C   UNL     1       9.856  -4.101  -1.174  0.00  0.00    +0.005 C 
ATOM      8  C   UNL     1      10.044  -5.488  -0.567  0.00  0.00    +0.001 C 
ATOM      9  C   UNL     1       8.982  -5.744   0.500  0.00  0.00    +0.005 C 
ATOM     10  C   UNL     1       7.589  -5.723  -0.119  0.00  0.00    +0.037 C 
ENDROOT
BRANCH   2  11
ATOM     11  C   UNL     1       4.617  -5.119  -0.052  0.00  0.00    +0.244 C 
ATOM     12  O   UNL     1       4.194  -5.572  -1.100  0.00  0.00    -0.270 OA
ATOM     13  N   UNL     1       4.182  -5.619   1.121  0.00  0.00    -0.325 N 
ATOM     14  H   UNL     1       4.519  -5.258   1.956  0.00  0.00    +0.145 HD
ATOM     15  H   UNL     1       3.532  -6.339   1.131  0.00  0.00    +0.145 HD
ENDBRANCH   2  11
BRANCH   1  18
ATOM     16  C   UNL     1       3.713  -0.859  -0.038  0.00  0.00    +0.255 C 
ATOM     17  O   UNL     1       4.664  -0.106  -0.043  0.00  0.00    -0.272 OA
ATOM     18  N   UNL     1       3.909  -2.193  -0.047  0.00  0.00    -0.277 N 
ATOM     19  H   UNL     1       3.149  -2.795  -0.043  0.00  0.00    +0.155 HD
BRANCH  16  20
ATOM     20  C   UNL     1       2.312  -0.304  -0.022  0.00  0.00    +0.324 C 
BRANCH  20  21
ATOM     21  O   UNL     1       2.366   1.124  -0.015  0.00  0.00    -0.482 OA
BRANCH  21  28
ATOM     22  C   UNL     1       2.451   3.947  -0.000  0.00  0.00    +0.047 C 
ATOM     23  C   UNL     1       1.158   3.173   0.008  0.00  0.00    -0.007 A 
ATOM     24  C   UNL     1      -0.050   3.844   0.022  0.00  0.00    +0.027 A 
ATOM     25  C   UNL     1      -1.237   3.134   0.030  0.00  0.00    +0.041 A 
ATOM     26  C   UNL     1      -1.218   1.751   0.017  0.00  0.00    +0.023 A 
ATOM     27  C   UNL     1      -0.013   1.076   0.008  0.00  0.00    +0.047 A 
ATOM     28  C   UNL     1       1.179   1.786   0.000  0.00  0.00    +0.124 A 
ATOM     29 CL   UNL     1      -2.753   3.980   0.048  0.00  0.00    -0.084 Cl
ENDBRANCH  21  28
ENDBRANCH  20  21
ENDBRANCH  16  20
ENDBRANCH   1  18
TORSDOF 5
