REMARK  Name = ZINC12533280
REMARK  8 active torsions:
REMARK  status: ('A' for Active; 'I' for Inactive)
REMARK    1  A    between atoms: C_1  and  N_2
REMARK    2  A    between atoms: N_2  and  C_3
REMARK    3  A    between atoms: C_11  and  C_13
REMARK    4  A    between atoms: C_13  and  O_14
REMARK    5  A    between atoms: O_14  and  C_15
REMARK    6  A    between atoms: C_15  and  C_17
REMARK    7  A    between atoms: C_30  and  C_31
REMARK    8  A    between atoms: C_34  and  O_37
REMARK                            x       y       z     vdW  Elec       q    Type
REMARK                         _______ _______ _______ _____ _____    ______ ____
ROOT
ATOM      1  C   UNL     1      -2.971  -3.864   0.429  0.00  0.00    +0.073 A 
ATOM      2  C   UNL     1      -1.887  -4.847   0.441  0.00  0.00    +0.015 A 
ATOM      3  C   UNL     1      -2.139  -6.217   0.551  0.00  0.00    +0.011 A 
ATOM      4  C   UNL     1      -1.097  -7.096   0.557  0.00  0.00    +0.001 A 
ATOM      5  C   UNL     1       0.217  -6.645   0.458  0.00  0.00    +0.002 A 
ATOM      6  C   UNL     1       0.498  -5.318   0.350  0.00  0.00    +0.028 A 
ATOM      7  C   UNL     1      -0.552  -4.380   0.339  0.00  0.00    +0.072 A 
ATOM      8  N   UNL     1      -0.308  -3.076   0.235  0.00  0.00    -0.247 NA
ATOM      9  C   UNL     1      -1.270  -2.160   0.215  0.00  0.00    +0.072 A 
ATOM     10  C   UNL     1      -2.623  -2.526   0.317  0.00  0.00    -0.007 A 
ATOM     11  C   UNL     1      -3.490  -1.292   0.275  0.00  0.00    +0.043 C 
ATOM     12  C   UNL     1      -2.534  -0.099   0.141  0.00  0.00    +0.042 C 
ATOM     13  C   UNL     1      -1.148  -0.693   0.111  0.00  0.00    -0.021 C 
ATOM     14  C   UNL     1       0.002  -0.004   0.002  0.00  0.00    +0.013 C 
ENDROOT
BRANCH  14  15
ATOM     15  C   UNL     1      -0.015   1.468   0.040  0.00  0.00    -0.024 A 
ATOM     16  C   UNL     1       1.186   2.182   0.102  0.00  0.00    +0.011 A 
ATOM     17  C   UNL     1       1.165   3.559   0.134  0.00  0.00    +0.046 A 
ATOM     18  C   UNL     1      -0.047   4.238   0.113  0.00  0.00    +0.117 A 
ATOM     19  C   UNL     1      -1.243   3.533   0.056  0.00  0.00    +0.046 A 
ATOM     20  C   UNL     1      -1.232   2.156   0.019  0.00  0.00    +0.011 A 
BRANCH  18  21
ATOM     21  O   UNL     1      -0.062   5.596   0.148  0.00  0.00    -0.507 OA
ATOM     22  H   UNL     1      -0.095   5.965   1.042  0.00  0.00    +0.292 HD
ENDBRANCH  18  21
ENDBRANCH  14  15
BRANCH   1  23
ATOM     23  C   UNL     1      -4.385  -4.282   0.531  0.00  0.00    +0.341 C 
ATOM     24  O   UNL     1      -5.020  -4.527  -0.475  0.00  0.00    -0.245 OA
BRANCH  23  25
ATOM     25  O   UNL     1      -4.969  -4.391   1.740  0.00  0.00    -0.452 OA
BRANCH  25  26
ATOM     26  C   UNL     1      -6.360  -4.807   1.765  0.00  0.00    +0.328 C 
BRANCH  26  29
ATOM     27  C   UNL     1      -9.022  -5.571   2.365  0.00  0.00    +0.132 C 
ATOM     28  N   UNL     1      -8.109  -5.238   3.461  0.00  0.00    -0.297 N 
ATOM     29  C   UNL     1      -6.840  -4.872   3.192  0.00  0.00    +0.253 C 
ATOM     30  O   UNL     1      -6.083  -4.596   4.099  0.00  0.00    -0.272 OA
BRANCH  28  31
ATOM     31  C   UNL     1      -8.575  -5.302   4.848  0.00  0.00    +0.098 C 
ATOM     32  C   UNL     1      -9.065  -6.724   5.167  0.00  0.00    +0.046 C 
ATOM     33  C   UNL     1      -9.846  -6.726   6.503  0.00  0.00    +0.168 C 
ATOM     34  S   UNL     1     -10.521  -5.017   6.579  0.00  0.00    -0.029 S 
ATOM     35  O   UNL     1      -9.970  -4.352   7.708  0.00  0.00    -0.174 OA
ATOM     36  O   UNL     1     -11.931  -5.069   6.417  0.00  0.00    -0.174 OA
ATOM     37  C   UNL     1      -9.767  -4.322   5.048  0.00  0.00    +0.188 C 
ENDBRANCH  28  31
ENDBRANCH  26  29
ENDBRANCH  25  26
ENDBRANCH  23  25
ENDBRANCH   1  23
TORSDOF 7
