REMARK  Name = ZINC39669767
REMARK  7 active torsions:
REMARK  status: ('A' for Active; 'I' for Inactive)
REMARK    1  A    between atoms: C_1  and  C_2
REMARK    2  A    between atoms: C_2  and  C_3
REMARK    3  A    between atoms: C_2  and  C_4
REMARK    4  A    between atoms: C_2  and  N_28
REMARK    5  A    between atoms: C_4  and  N_5
REMARK    6  A    between atoms: C_6  and  C_8
REMARK    7  A    between atoms: C_19  and  C_21
REMARK                            x       y       z     vdW  Elec       q    Type
REMARK                         _______ _______ _______ _____ _____    ______ ____
ROOT
ATOM      1  C   UNL     1      -3.773  -2.120  -0.602  0.00  0.00    +0.100 C 
ATOM      2  C   UNL     1      -3.657  -3.205   0.492  0.00  0.00    +0.121 C 
ATOM      3  N   UNL     1      -5.005  -3.264   1.105  0.00  0.00    -0.300 N 
ATOM      4  C   UNL     1      -5.936  -3.119  -0.039  0.00  0.00    +0.115 C 
ATOM      5  C   UNL     1      -5.270  -2.070  -0.951  0.00  0.00    -0.004 C 
ATOM      6  C   UNL     1      -5.483  -2.432  -2.417  0.00  0.00    -0.010 C 
ATOM      7  C   UNL     1      -6.972  -2.319  -2.756  0.00  0.00    -0.082 C 
ATOM      8  N   UNL     1      -7.431  -0.948  -2.498  0.00  0.00    +0.379 N 
ATOM      9  C   UNL     1      -7.309  -0.640  -1.068  0.00  0.00    -0.082 C 
ATOM     10  C   UNL     1      -5.834  -0.683  -0.658  0.00  0.00    -0.010 C 
ATOM     11  C   UNL     1      -5.314  -3.417   2.408  0.00  0.00    +0.219 C 
ATOM     12  O   UNL     1      -4.433  -3.448   3.241  0.00  0.00    -0.275 OA
ATOM     13  H   UNL     1      -6.869  -0.301  -3.029  0.00  0.00    -0.086 HD
ATOM     14  H   UNL     1      -8.396  -0.860  -2.778  0.00  0.00    -0.086 HD
ENDROOT
BRANCH  11  15
ATOM     15  C   UNL     1      -6.755  -3.548   2.830  0.00  0.00    +0.079 C 
ATOM     16  C   UNL     1      -6.923  -3.022   4.261  0.00  0.00    +0.017 C 
ATOM     17  C   UNL     1      -8.416  -3.002   4.596  0.00  0.00    +0.027 C 
ATOM     18  C   UNL     1      -9.042  -4.322   4.252  0.00  0.00    -0.031 C 
ATOM     19  C   UNL     1      -8.500  -5.198   3.469  0.00  0.00    -0.030 C 
ATOM     20  C   UNL     1      -7.167  -5.022   2.799  0.00  0.00    +0.039 C 
ENDBRANCH  11  15
BRANCH   1  22
ATOM     21  N   UNL     1      -2.769   0.120  -0.906  0.00  0.00    -0.313 N 
ATOM     22  C   UNL     1      -3.313  -0.787  -0.071  0.00  0.00    +0.218 C 
ATOM     23  O   UNL     1      -3.432  -0.531   1.109  0.00  0.00    -0.275 OA
ATOM     24  H   UNL     1      -2.674  -0.085  -1.849  0.00  0.00    +0.149 HD
BRANCH  21  25
ATOM     25  C   UNL     1      -2.322   1.416  -0.390  0.00  0.00    +0.126 C 
BRANCH  25  27
ATOM     26  C   UNL     1      -1.397   3.649  -1.021  0.00  0.00    +0.029 C 
ATOM     27  C   UNL     1      -1.754   2.254  -1.537  0.00  0.00    +0.032 C 
ATOM     28  C   UNL     1      -0.498   1.577  -2.089  0.00  0.00    +0.029 C 
BRANCH  27  29
ATOM     29  N   UNL     1      -2.758   2.368  -2.603  0.00  0.00    -0.291 NA
ATOM     30  C   UNL     1      -2.261   3.202  -3.707  0.00  0.00    +0.113 C 
ATOM     31  C   UNL     1      -3.312   3.245  -4.820  0.00  0.00    +0.175 C 
ATOM     32  O   UNL     1      -4.545   3.734  -4.285  0.00  0.00    -0.377 OA
ATOM     33  C   UNL     1      -5.059   2.945  -3.208  0.00  0.00    +0.175 C 
ATOM     34  C   UNL     1      -4.025   2.898  -2.079  0.00  0.00    +0.113 C 
ENDBRANCH  27  29
ENDBRANCH  25  27
ENDBRANCH  21  25
ENDBRANCH   1  22
TORSDOF 5
