REMARK  Name = ZINC20283838
REMARK  12 active torsions:
REMARK  status: ('A' for Active; 'I' for Inactive)
REMARK    1  A    between atoms: C_1  and  C_2
REMARK    2  A    between atoms: C_2  and  O_3
REMARK    3  A    between atoms: O_3  and  C_4
REMARK    4  A    between atoms: C_4  and  C_6
REMARK    5  A    between atoms: C_7  and  C_24
REMARK    6  A    between atoms: C_12  and  C_14
REMARK    7  A    between atoms: C_18  and  O_22
REMARK    8  A    between atoms: C_19  and  O_20
REMARK    9  A    between atoms: O_20  and  C_21
REMARK   10  A    between atoms: O_22  and  C_23
REMARK   11  A    between atoms: C_24  and  N_25
REMARK   12  A    between atoms: N_28  and  C_31
REMARK                            x       y       z     vdW  Elec       q    Type
REMARK                         _______ _______ _______ _____ _____    ______ ____
ROOT
ATOM      1  C   UNL     1       4.041  -1.186   1.296  0.00  0.00    +0.079 C 
ATOM      2  C   UNL     1       5.069  -0.622   1.966  0.00  0.00    +0.038 C 
ATOM      3  N   UNL     1       5.922   0.245   1.346  0.00  0.00    -0.271 N 
ATOM      4  C   UNL     1       5.816   0.599   0.059  0.00  0.00    +0.304 C 
ATOM      5  O   UNL     1       6.625   1.379  -0.405  0.00  0.00    -0.252 OA
ATOM      6  N   UNL     1       4.842   0.118  -0.739  0.00  0.00    -0.288 N 
ATOM      7  C   UNL     1       3.868  -0.826  -0.165  0.00  0.00    +0.147 C 
ATOM      8  H   UNL     1       6.754   0.695   1.909  0.00  0.00    +0.156 HD
ATOM      9  H   UNL     1       4.764   0.415  -1.795  0.00  0.00    +0.151 HD
ENDROOT
BRANCH   7  10
ATOM     10  C   UNL     1       2.492  -0.236  -0.339  0.00  0.00    +0.023 A 
ATOM     11  C   UNL     1       2.330   1.136  -0.395  0.00  0.00    +0.009 A 
ATOM     12  C   UNL     1       1.069   1.679  -0.553  0.00  0.00    +0.004 A 
ATOM     13  C   UNL     1      -0.035   0.854  -0.656  0.00  0.00    +0.049 A 
ATOM     14  C   UNL     1       0.120  -0.521  -0.601  0.00  0.00    +0.162 A 
ATOM     15  C   UNL     1       1.390  -1.069  -0.442  0.00  0.00    +0.167 A 
BRANCH  15  16
ATOM     16  O   UNL     1       1.548  -2.419  -0.387  0.00  0.00    -0.491 OA
ATOM     17  C   UNL     1       1.768  -3.097  -1.626  0.00  0.00    +0.277 C 
ENDBRANCH  15  16
BRANCH  14  18
ATOM     18  O   UNL     1      -0.965  -1.335  -0.703  0.00  0.00    -0.491 OA
ATOM     19  C   UNL     1      -2.236  -0.703  -0.866  0.00  0.00    +0.277 C 
ENDBRANCH  14  18
ENDBRANCH   7  10
BRANCH   1  20
ATOM     20  C   UNL     1       3.156  -2.083   1.938  0.00  0.00    +0.339 C 
ATOM     21  O   UNL     1       3.286  -3.283   1.781  0.00  0.00    -0.245 OA
BRANCH  20  22
ATOM     22  O   UNL     1       2.167  -1.609   2.724  0.00  0.00    -0.462 OA
BRANCH  22  24
ATOM     23  C   UNL     1       0.259  -1.851   4.187  0.00  0.00    +0.048 C 
ATOM     24  C   UNL     1       1.310  -2.572   3.341  0.00  0.00    +0.229 C 
ENDBRANCH  22  24
ENDBRANCH  20  22
ENDBRANCH   1  20
BRANCH   2  25
ATOM     25  C   UNL     1       5.277  -0.955   3.421  0.00  0.00    +0.136 C 
BRANCH  25  26
ATOM     26  N   UNL     1       6.556  -1.658   3.584  0.00  0.00    -0.294 NA
ATOM     27  C   UNL     1       6.521  -2.974   2.930  0.00  0.00    +0.103 C 
ATOM     28  C   UNL     1       7.894  -3.639   3.054  0.00  0.00    +0.120 C 
ATOM     29  N   UNL     1       8.245  -3.769   4.475  0.00  0.00    -0.327 N 
ATOM     30  C   UNL     1       8.281  -2.454   5.129  0.00  0.00    +0.120 C 
ATOM     31  C   UNL     1       6.908  -1.789   5.005  0.00  0.00    +0.103 C 
BRANCH  29  32
ATOM     32  C   UNL     1       9.463  -4.439   4.631  0.00  0.00    +0.030 A 
ATOM     33  C   UNL     1      10.503  -3.838   5.328  0.00  0.00    +0.026 A 
ATOM     34  C   UNL     1      11.704  -4.503   5.484  0.00  0.00    +0.040 A 
ATOM     35  C   UNL     1      11.874  -5.764   4.938  0.00  0.00    +0.124 A 
ATOM     36  C   UNL     1      10.840  -6.363   4.238  0.00  0.00    +0.040 A 
ATOM     37  C   UNL     1       9.636  -5.704   4.083  0.00  0.00    +0.026 A 
ATOM     38  F   UNL     1      13.050  -6.411   5.088  0.00  0.00    -0.205 F 
ENDBRANCH  29  32
ENDBRANCH  25  26
ENDBRANCH   2  25
TORSDOF 9
