REMARK  Name = ZINC14982083
REMARK  5 active torsions:
REMARK  status: ('A' for Active; 'I' for Inactive)
REMARK    1  A    between atoms: C_1  and  C_2
REMARK    2  A    between atoms: C_3  and  C_7
REMARK    3  A    between atoms: C_16  and  C_20
REMARK    4  A    between atoms: C_20  and  C_22
REMARK    5  A    between atoms: C_20  and  O_28
REMARK                            x       y       z     vdW  Elec       q    Type
REMARK                         _______ _______ _______ _____ _____    ______ ____
ROOT
ATOM      1  C   UNL     1      -0.070  -1.778   5.234  0.00  0.00    +0.271 C 
ATOM      2  O   UNL     1       0.829  -2.579   5.068  0.00  0.00    -0.268 OA
ATOM      3  N   UNL     1       0.061  -0.799   6.152  0.00  0.00    -0.288 N 
ATOM      4  C   UNL     1       1.250  -0.753   7.003  0.00  0.00    +0.149 C 
ATOM      5  C   UNL     1       2.060   0.510   6.752  0.00  0.00    +0.248 C 
ATOM      6  O   UNL     1       1.279   1.669   7.062  0.00  0.00    -0.490 OA
ATOM      7  C   UNL     1       0.539   2.174   6.043  0.00  0.00    +0.125 A 
ATOM      8  C   UNL     1       0.899   3.372   5.442  0.00  0.00    +0.046 A 
ATOM      9  C   UNL     1       0.190   3.833   4.350  0.00  0.00    +0.010 A 
ATOM     10  C   UNL     1      -0.883   3.112   3.860  0.00  0.00    -0.018 A 
ATOM     11  C   UNL     1      -1.255   1.925   4.467  0.00  0.00    +0.015 A 
ATOM     12  C   UNL     1      -0.554   1.470   5.563  0.00  0.00    +0.012 A 
ATOM     13  C   UNL     1      -0.990   0.215   6.291  0.00  0.00    +0.147 C 
ENDROOT
BRANCH   1  16
ATOM     14  C   UNL     1      -0.946  -4.163   3.061  0.00  0.00    +0.072 C 
ATOM     15  C   UNL     1      -1.704  -2.926   3.468  0.00  0.00    +0.114 A 
ATOM     16  C   UNL     1      -1.310  -1.878   4.428  0.00  0.00    +0.191 A 
ATOM     17  N   UNL     1      -2.333  -1.051   4.386  0.00  0.00    -0.044 NA
ATOM     18  O   UNL     1      -3.155  -1.475   3.607  0.00  0.00    -0.242 OA
ATOM     19  N   UNL     1      -2.876  -2.516   3.060  0.00  0.00    -0.053 NA
ENDBRANCH   1  16
BRANCH  10  20
ATOM     20  C   UNL     1      -1.645   3.615   2.661  0.00  0.00    +0.148 C 
BRANCH  20  21
ATOM     21  C   UNL     1      -0.938   3.164   1.382  0.00  0.00    +0.022 C 
ATOM     22  C   UNL     1      -0.880   1.635   1.343  0.00  0.00    +0.006 C 
ATOM     23  C   UNL     1      -0.173   1.184   0.064  0.00  0.00    +0.000 C 
ATOM     24  C   UNL     1      -0.946   1.695  -1.153  0.00  0.00    +0.000 C 
ATOM     25  C   UNL     1      -1.005   3.224  -1.115  0.00  0.00    +0.000 C 
ATOM     26  C   UNL     1      -1.712   3.675   0.164  0.00  0.00    +0.006 C 
ENDBRANCH  20  21
BRANCH  20  27
ATOM     27  O   UNL     1      -1.700   5.043   2.697  0.00  0.00    -0.387 OA
ATOM     28  H   UNL     1      -0.833   5.470   2.684  0.00  0.00    +0.210 HD
ENDBRANCH  20  27
ENDBRANCH  10  20
TORSDOF 4
