REMARK  Name = ZINC44714185
REMARK  10 active torsions:
REMARK  status: ('A' for Active; 'I' for Inactive)
REMARK    1  A    between atoms: C_1  and  C_2
REMARK    2  A    between atoms: C_12  and  O_13
REMARK    3  A    between atoms: O_13  and  C_14
REMARK    4  A    between atoms: C_14  and  C_15
REMARK    5  A    between atoms: C_19  and  C_28
REMARK    6  A    between atoms: N_30  and  C_31
REMARK    7  A    between atoms: C_31  and  C_33
REMARK    8  A    between atoms: C_31  and  C_34
REMARK    9  A    between atoms: C_35  and  C_41
REMARK   10  A    between atoms: C_39  and  C_40
REMARK                            x       y       z     vdW  Elec       q    Type
REMARK                         _______ _______ _______ _____ _____    ______ ____
ROOT
ATOM      1  C   UNL     1       0.065  -6.533   3.324  0.00  0.00    +0.253 C 
ATOM      2  O   UNL     1       0.062  -6.984   2.199  0.00  0.00    -0.272 OA
ATOM      3  N   UNL     1       0.090  -7.365   4.384  0.00  0.00    -0.297 N 
ATOM      4  C   UNL     1       0.091  -7.006   5.822  0.00  0.00    +0.121 C 
ATOM      5  C   UNL     1      -0.829  -8.054   6.487  0.00  0.00    +0.100 C 
ATOM      6  C   UNL     1      -0.803  -9.260   5.534  0.00  0.00    -0.004 C 
ATOM      7  C   UNL     1       0.116  -8.848   4.375  0.00  0.00    +0.115 C 
ATOM      8  C   UNL     1      -2.206  -9.550   5.009  0.00  0.00    -0.010 C 
ATOM      9  C   UNL     1      -2.163 -10.788   4.109  0.00  0.00    -0.082 C 
ATOM     10  N   UNL     1      -1.659 -11.935   4.874  0.00  0.00    +0.379 N 
ATOM     11  C   UNL     1      -0.275 -11.685   5.296  0.00  0.00    -0.082 C 
ATOM     12  C   UNL     1      -0.238 -10.485   6.247  0.00  0.00    -0.010 C 
ATOM     13  H   UNL     1      -2.237 -12.075   5.689  0.00  0.00    -0.086 HD
ATOM     14  H   UNL     1      -1.689 -12.762   4.298  0.00  0.00    -0.086 HD
ENDROOT
BRANCH   5  15
ATOM     15  C   UNL     1      -0.292  -8.440   7.841  0.00  0.00    +0.219 C 
ATOM     16  O   UNL     1       0.906  -8.493   8.025  0.00  0.00    -0.275 OA
ATOM     17  N   UNL     1      -1.142  -8.726   8.847  0.00  0.00    -0.308 N 
ATOM     18  H   UNL     1      -2.099  -8.683   8.699  0.00  0.00    +0.149 HD
BRANCH  17  19
ATOM     19  C   UNL     1      -0.619  -9.101  10.163  0.00  0.00    +0.104 C 
ATOM     20  C   UNL     1      -0.197 -10.572  10.144  0.00  0.00    +0.033 C 
BRANCH  19  21
ATOM     21  C   UNL     1      -1.689  -8.899  11.204  0.00  0.00    +0.015 A 
ATOM     22  C   UNL     1      -1.544  -8.242  12.379  0.00  0.00    +0.038 A 
ATOM     23  N   UNL     1      -2.729  -8.283  13.023  0.00  0.00    -0.281 N 
ATOM     24  H   UNL     1      -2.921  -7.893  13.890  0.00  0.00    +0.189 HD
ATOM     25  N   UNL     1      -3.632  -8.989  12.218  0.00  0.00    -0.179 NA
ATOM     26  C   UNL     1      -3.010  -9.352  11.126  0.00  0.00    +0.065 A 
ATOM     27  C   UNL     1      -3.611 -10.128   9.983  0.00  0.00    +0.068 C 
ATOM     28  C   UNL     1      -0.283  -7.583  12.877  0.00  0.00    +0.065 C 
ENDBRANCH  19  21
ENDBRANCH  17  19
ENDBRANCH   5  15
BRANCH   1  29
ATOM     29  C   UNL     1       0.040  -5.041   3.538  0.00  0.00    +0.324 C 
BRANCH  29  30
ATOM     30  O   UNL     1       0.016  -4.379   2.272  0.00  0.00    -0.479 OA
BRANCH  30  42
ATOM     31  C   UNL     1      -0.110   1.342  -0.162  0.00  0.00    +0.045 C 
ATOM     32  C   UNL     1      -0.083  -0.165  -0.146  0.00  0.00    -0.033 A 
ATOM     33  C   UNL     1      -0.081  -0.875  -1.302  0.00  0.00    +0.096 A 
ATOM     34  C   UNL     1      -0.055  -2.286  -1.260  0.00  0.00    +0.338 A 
ATOM     35  O   UNL     1      -0.054  -2.911  -2.305  0.00  0.00    -0.245 OA
ATOM     36  O   UNL     1      -0.032  -2.955  -0.097  0.00  0.00    -0.418 OA
ATOM     37  C   UNL     1      -0.032  -2.308   1.089  0.00  0.00    +0.181 A 
ATOM     38  C   UNL     1      -0.052  -0.904   1.120  0.00  0.00    +0.024 A 
ATOM     39  C   UNL     1      -0.047  -0.232   2.347  0.00  0.00    +0.012 A 
ATOM     40  C   UNL     1      -0.017  -0.953   3.520  0.00  0.00    +0.004 A 
ATOM     41  C   UNL     1       0.008  -2.339   3.491  0.00  0.00    +0.049 A 
ATOM     42  C   UNL     1      -0.008  -3.020   2.287  0.00  0.00    +0.164 A 
ENDBRANCH  30  42
ENDBRANCH  29  30
ENDBRANCH   1  29
TORSDOF 6
