REMARK  Name = ZINC35399181
REMARK  14 active torsions:
REMARK  status: ('A' for Active; 'I' for Inactive)
REMARK    1  A    between atoms: C_1  and  C_2
REMARK    2  A    between atoms: N_8  and  C_9
REMARK    3  A    between atoms: C_9  and  C_10
REMARK    4  A    between atoms: C_10  and  C_11
REMARK    5  A    between atoms: C_11  and  N_12
REMARK    6  A    between atoms: C_13  and  C_15
REMARK    7  A    between atoms: C_15  and  C_16
REMARK    8  A    between atoms: N_24  and  C_25
REMARK    9  A    between atoms: C_27  and  O_35
REMARK   10  A    between atoms: C_28  and  O_33
REMARK   11  A    between atoms: C_29  and  O_31
REMARK   12  A    between atoms: O_31  and  C_32
REMARK   13  A    between atoms: O_33  and  C_34
REMARK   14  A    between atoms: O_35  and  C_36
REMARK                            x       y       z     vdW  Elec       q    Type
REMARK                         _______ _______ _______ _____ _____    ______ ____
ROOT
ATOM      1  C   UNL     1       8.014   0.238   5.846  0.00  0.00    +0.001 C 
ATOM      2  C   UNL     1       8.609  -0.911   5.029  0.00  0.00    +0.023 C 
ATOM      3  C   UNL     1      10.011  -0.520   4.552  0.00  0.00    +0.109 C 
ATOM      4  N   UNL     1      10.815  -0.130   5.718  0.00  0.00    -0.285 N 
ATOM      5  C   UNL     1      10.293   0.903   6.623  0.00  0.00    +0.109 C 
ATOM      6  C   UNL     1       8.887   0.497   7.076  0.00  0.00    +0.023 C 
ATOM      7  C   UNL     1      12.009  -0.709   5.954  0.00  0.00    +0.306 C 
ATOM      8  O   UNL     1      12.386  -1.631   5.257  0.00  0.00    -0.252 OA
ATOM      9  N   UNL     1      12.785  -0.267   6.964  0.00  0.00    -0.269 N 
ATOM     10  H   UNL     1      12.444   0.397   7.583  0.00  0.00    +0.156 HD
ENDROOT
BRANCH   9  11
ATOM     11  C   UNL     1      14.086  -0.765   7.118  0.00  0.00    +0.042 A 
ATOM     12  C   UNL     1      14.834  -1.109   6.001  0.00  0.00    +0.073 A 
ATOM     13  C   UNL     1      16.120  -1.602   6.153  0.00  0.00    +0.167 A 
ATOM     14  C   UNL     1      16.661  -1.752   7.425  0.00  0.00    +0.204 A 
ATOM     15  C   UNL     1      15.911  -1.408   8.543  0.00  0.00    +0.167 A 
ATOM     16  C   UNL     1      14.626  -0.910   8.388  0.00  0.00    +0.073 A 
BRANCH  15  17
ATOM     17  O   UNL     1      16.438  -1.555   9.787  0.00  0.00    -0.491 OA
ATOM     18  C   UNL     1      15.611  -1.181  10.891  0.00  0.00    +0.277 C 
ENDBRANCH  15  17
BRANCH  14  19
ATOM     19  O   UNL     1      17.924  -2.237   7.575  0.00  0.00    -0.488 OA
ATOM     20  C   UNL     1      18.988  -1.283   7.590  0.00  0.00    +0.277 C 
ENDBRANCH  14  19
BRANCH  13  21
ATOM     21  O   UNL     1      16.854  -1.939   5.058  0.00  0.00    -0.491 OA
ATOM     22  C   UNL     1      16.235  -1.759   3.783  0.00  0.00    +0.277 C 
ENDBRANCH  13  21
ENDBRANCH   9  11
BRANCH   1  23
ATOM     23  C   UNL     1       6.599  -0.135   6.295  0.00  0.00    +0.099 C 
BRANCH  23  25
ATOM     24  N   UNL     1       4.410  -0.595   5.240  0.00  0.00    -0.315 N 
ATOM     25  C   UNL     1       5.709  -0.270   5.087  0.00  0.00    +0.213 C 
ATOM     26  O   UNL     1       6.160  -0.086   3.976  0.00  0.00    -0.276 OA
ATOM     27  H   UNL     1       4.048  -0.742   6.128  0.00  0.00    +0.149 HD
BRANCH  24  28
ATOM     28  C   UNL     1       3.544  -0.726   4.066  0.00  0.00    +0.102 C 
BRANCH  28  29
ATOM     29  C   UNL     1       2.129  -1.099   4.514  0.00  0.00    +0.000 C 
BRANCH  29  30
ATOM     30  C   UNL     1       1.225  -1.236   3.288  0.00  0.00    -0.077 C 
BRANCH  30  37
ATOM     31  C   UNL     1      -0.981  -0.245   1.860  0.00  0.00    -0.013 C 
ATOM     32  C   UNL     1      -1.027  -1.608   2.554  0.00  0.00    -0.072 C 
ATOM     33  C   UNL     1      -2.458  -1.900   3.009  0.00  0.00    -0.016 C 
ATOM     34  C   UNL     1      -2.499  -3.265   3.702  0.00  0.00    -0.003 C 
ATOM     35  C   UNL     1      -1.508  -3.264   4.869  0.00  0.00    -0.019 C 
ATOM     36  C   UNL     1      -0.112  -2.921   4.346  0.00  0.00    -0.078 C 
ATOM     37  N   UNL     1      -0.133  -1.594   3.719  0.00  0.00    +0.381 N 
ATOM     38  H   UNL     1      -0.463  -0.912   4.386  0.00  0.00    -0.081 HD
ENDBRANCH  30  37
ENDBRANCH  29  30
ENDBRANCH  28  29
ENDBRANCH  24  28
ENDBRANCH  23  25
ENDBRANCH   1  23
TORSDOF 10
