REMARK  Name = ZINC09109623
REMARK  5 active torsions:
REMARK  status: ('A' for Active; 'I' for Inactive)
REMARK    1  A    between atoms: C_6  and  C_7
REMARK    2  A    between atoms: C_14  and  N_27
REMARK    3  A    between atoms: C_15  and  C_25
REMARK    4  A    between atoms: C_16  and  C_18
REMARK    5  A    between atoms: C_21  and  O_24
REMARK                            x       y       z     vdW  Elec       q    Type
REMARK                         _______ _______ _______ _____ _____    ______ ____
ROOT
ATOM      1  C   UNL     1      -1.556  -1.029   0.156  0.00  0.00    +0.100 A 
ATOM      2  C   UNL     1      -1.667  -2.118  -0.713  0.00  0.00    +0.054 A 
ATOM      3  C   UNL     1      -2.923  -2.637  -0.583  0.00  0.00    +0.223 A 
ATOM      4  N   UNL     1      -3.578  -1.899   0.338  0.00  0.00    -0.246 N 
ATOM      5  H   UNL     1      -4.491  -2.038   0.636  0.00  0.00    +0.192 HD
ATOM      6  N   UNL     1      -2.704  -0.899   0.793  0.00  0.00    -0.171 NA
ATOM      7  O   UNL     1      -3.352  -3.707  -1.297  0.00  0.00    -0.423 OA
ATOM      8  C   UNL     1      -2.604  -4.095  -2.350  0.00  0.00    +0.200 C 
ATOM      9  C   UNL     1      -1.344  -3.662  -2.578  0.00  0.00    +0.098 C 
ATOM     10  C   UNL     1      -0.644  -2.692  -1.659  0.00  0.00    +0.102 C 
ENDROOT
BRANCH   1  16
ATOM     11  C   UNL     1       0.382   0.235  -0.773  0.00  0.00    +0.013 A 
ATOM     12  C   UNL     1       1.496   1.031  -0.602  0.00  0.00    +0.039 A 
ATOM     13  C   UNL     1       1.881   1.423   0.670  0.00  0.00    +0.123 A 
ATOM     14  C   UNL     1       1.150   1.018   1.775  0.00  0.00    +0.039 A 
ATOM     15  C   UNL     1       0.034   0.223   1.613  0.00  0.00    +0.013 A 
ATOM     16  C   UNL     1      -0.357  -0.174   0.335  0.00  0.00    +0.003 A 
ATOM     17  F   UNL     1       2.973   2.201   0.833  0.00  0.00    -0.205 F 
ENDBRANCH   1  16
BRANCH  10  18
ATOM     18  C   UNL     1       0.424  -3.413  -0.876  0.00  0.00    -0.034 A 
ATOM     19  C   UNL     1       0.074  -4.428  -0.005  0.00  0.00    +0.008 A 
ATOM     20  C   UNL     1       1.051  -5.090   0.713  0.00  0.00    +0.046 A 
ATOM     21  C   UNL     1       2.383  -4.735   0.560  0.00  0.00    +0.117 A 
ATOM     22  C   UNL     1       2.731  -3.716  -0.314  0.00  0.00    +0.046 A 
ATOM     23  C   UNL     1       1.751  -3.061  -1.034  0.00  0.00    +0.008 A 
BRANCH  21  24
ATOM     24  O   UNL     1       3.346  -5.384   1.267  0.00  0.00    -0.507 OA
ATOM     25  H   UNL     1       3.707  -6.161   0.818  0.00  0.00    +0.292 HD
ENDBRANCH  21  24
ENDBRANCH  10  18
BRANCH   8  26
ATOM     26  N   UNL     1      -3.154  -4.982  -3.242  0.00  0.00    -0.328 N 
ATOM     27  H   UNL     1      -4.056  -5.311  -3.105  0.00  0.00    +0.145 HD
ATOM     28  H   UNL     1      -2.640  -5.280  -4.009  0.00  0.00    +0.145 HD
ENDBRANCH   8  26
BRANCH   9  29
ATOM     29  C   UNL     1      -0.648  -4.142  -3.734  0.00  0.00    +0.101 C 
ATOM     30  N   UNL     1      -0.096  -4.522  -4.651  0.00  0.00    -0.191 NA
ENDBRANCH   9  29
TORSDOF 5
