REMARK  Name = ZINC40267579
REMARK  11 active torsions:
REMARK  status: ('A' for Active; 'I' for Inactive)
REMARK    1  A    between atoms: C_1  and  C_2
REMARK    2  A    between atoms: C_3  and  S_20
REMARK    3  A    between atoms: C_5  and  C_7
REMARK    4  A    between atoms: C_9  and  C_18
REMARK    5  A    between atoms: C_10  and  N_12
REMARK    6  A    between atoms: N_12  and  C_13
REMARK    7  A    between atoms: C_13  and  C_14
REMARK    8  A    between atoms: C_14  and  N_15
REMARK    9  A    between atoms: N_15  and  C_16
REMARK   10  A    between atoms: N_15  and  C_17
REMARK   11  A    between atoms: S_20  and  N_23
REMARK                            x       y       z     vdW  Elec       q    Type
REMARK                         _______ _______ _______ _____ _____    ______ ____
ROOT
ATOM      1  C   UNL     1       1.624  -3.286   0.056  0.00  0.00    +0.266 A 
ATOM      2  N   UNL     1       1.253  -4.532   0.225  0.00  0.00    -0.194 NA
ATOM      3  C   UNL     1       2.358  -5.323   0.181  0.00  0.00    +0.201 A 
ATOM      4  C   UNL     1       3.445  -4.487  -0.028  0.00  0.00    +0.225 A 
ATOM      5  O   UNL     1       2.961  -3.233  -0.107  0.00  0.00    -0.418 OA
ENDROOT
BRANCH   1  10
ATOM      6  C   UNL     1      -0.014   1.441  -0.250  0.00  0.00    +0.088 C 
ATOM      7  C   UNL     1      -0.003  -0.058  -0.093  0.00  0.00    +0.129 A 
ATOM      8  C   UNL     1      -1.086  -0.834   0.116  0.00  0.00    +0.147 A 
ATOM      9  C   UNL     1      -0.632  -2.163   0.203  0.00  0.00    +0.083 A 
ATOM     10  C   UNL     1       0.721  -2.127   0.040  0.00  0.00    +0.192 A 
ATOM     11  O   UNL     1       1.085  -0.842  -0.144  0.00  0.00    -0.453 OA
BRANCH   8  12
ATOM     12  S   UNL     1      -2.755  -0.287   0.255  0.00  0.00    +0.064 S 
ATOM     13  O   UNL     1      -2.979   0.611  -0.824  0.00  0.00    -0.153 OA
ATOM     14  O   UNL     1      -3.548  -1.448   0.457  0.00  0.00    -0.153 OA
BRANCH  12  15
ATOM     15  N   UNL     1      -2.864   0.608   1.645  0.00  0.00    -0.176 NA
ATOM     16  C   UNL     1      -3.059   0.068   2.998  0.00  0.00    +0.109 C 
ATOM     17  C   UNL     1      -3.124   1.268   3.965  0.00  0.00    +0.018 C 
ATOM     18  C   UNL     1      -3.528   2.443   3.035  0.00  0.00    +0.018 C 
ATOM     19  C   UNL     1      -2.773   2.077   1.730  0.00  0.00    +0.109 C 
ENDBRANCH  12  15
ENDBRANCH   8  12
ENDBRANCH   1  10
BRANCH   4  20
ATOM     20  N   UNL     1       4.765  -4.867  -0.138  0.00  0.00    -0.315 N 
ATOM     21  H   UNL     1       5.007  -5.804  -0.069  0.00  0.00    +0.149 HD
BRANCH  20  22
ATOM     22  C   UNL     1       5.802  -3.856  -0.359  0.00  0.00    +0.086 C 
BRANCH  22  23
ATOM     23  C   UNL     1       7.169  -4.538  -0.444  0.00  0.00    -0.061 C 
BRANCH  23  24
ATOM     24  N   UNL     1       8.209  -3.525  -0.665  0.00  0.00    +0.377 N 
ATOM     25  C   UNL     1       9.531  -4.164  -0.627  0.00  0.00    -0.097 C 
ATOM     26  C   UNL     1       8.007  -2.895  -1.977  0.00  0.00    -0.097 C 
ATOM     27  H   UNL     1       8.154  -2.823   0.057  0.00  0.00    -0.083 HD
ENDBRANCH  23  24
ENDBRANCH  22  23
ENDBRANCH  20  22
ENDBRANCH   4  20
BRANCH   3  28
ATOM     28  C   UNL     1       2.393  -6.747   0.323  0.00  0.00    +0.124 C 
ATOM     29  N   UNL     1       2.421  -7.877   0.435  0.00  0.00    -0.189 NA
ENDBRANCH   3  28
TORSDOF 8
