REMARK  Name = ZINC39762181
REMARK  14 active torsions:
REMARK  status: ('A' for Active; 'I' for Inactive)
REMARK    1  A    between atoms: C_1  and  C_2
REMARK    2  A    between atoms: C_2  and  C_4
REMARK    3  A    between atoms: C_2  and  N_25
REMARK    4  A    between atoms: C_7  and  S_12
REMARK    5  A    between atoms: N_8  and  C_9
REMARK    6  A    between atoms: C_9  and  C_10
REMARK    7  A    between atoms: S_12  and  C_13
REMARK    8  A    between atoms: C_13  and  C_14
REMARK    9  A    between atoms: C_20  and  C_22
REMARK   10  A    between atoms: C_22  and  C_23
REMARK   11  A    between atoms: C_22  and  C_24
REMARK   12  A    between atoms: C_26  and  C_28
REMARK   13  A    between atoms: C_31  and  O_34
REMARK   14  A    between atoms: O_34  and  C_35
REMARK                            x       y       z     vdW  Elec       q    Type
REMARK                         _______ _______ _______ _____ _____    ______ ____
ROOT
ATOM      1  C   UNL     1      -1.412  -0.526   0.013  0.00  0.00    +0.155 A 
ATOM      2  N   UNL     1      -2.222  -0.538   1.033  0.00  0.00    -0.132 NA
ATOM      3  N   UNL     1      -3.351  -1.052   0.693  0.00  0.00    -0.122 NA
ATOM      4  C   UNL     1      -3.320  -1.398  -0.573  0.00  0.00    +0.192 A 
ATOM      5  N   UNL     1      -2.083  -1.068  -1.048  0.00  0.00    -0.301 N 
ENDROOT
BRANCH   1   7
ATOM      6  C   UNL     1      -0.019   1.526   0.010  0.00  0.00    +0.036 C 
ATOM      7  C   UNL     1       0.002  -0.004   0.002  0.00  0.00    +0.138 C 
BRANCH   7   8
ATOM      8  N   UNL     1       0.711  -0.489   1.189  0.00  0.00    -0.302 N 
ATOM      9  C   UNL     1       2.054  -0.600   1.174  0.00  0.00    +0.245 C 
ATOM     10  O   UNL     1       2.677  -0.297   0.175  0.00  0.00    -0.270 OA
ATOM     11  H   UNL     1       0.213  -0.731   1.986  0.00  0.00    +0.150 HD
BRANCH   9  12
ATOM     12  C   UNL     1       2.768  -1.089   2.369  0.00  0.00    +0.037 A 
ATOM     13  C   UNL     1       2.052  -1.443   3.516  0.00  0.00    +0.016 A 
ATOM     14  C   UNL     1       2.722  -1.899   4.630  0.00  0.00    +0.046 A 
ATOM     15  C   UNL     1       4.108  -2.007   4.614  0.00  0.00    +0.120 A 
ATOM     16  C   UNL     1       4.823  -1.656   3.475  0.00  0.00    +0.046 A 
ATOM     17  C   UNL     1       4.160  -1.204   2.356  0.00  0.00    +0.016 A 
BRANCH  15  18
ATOM     18  O   UNL     1       4.764  -2.456   5.714  0.00  0.00    -0.495 OA
ATOM     19  C   UNL     1       6.188  -2.542   5.629  0.00  0.00    +0.277 C 
ENDBRANCH  15  18
ENDBRANCH   9  12
ENDBRANCH   7   8
ENDBRANCH   1   7
BRANCH   5  20
ATOM     20  C   UNL     1      -1.580  -1.258  -2.410  0.00  0.00    +0.152 C 
BRANCH  20  21
ATOM     21  C   UNL     1      -0.929  -2.613  -2.521  0.00  0.00    -0.013 C 
ATOM     22  C   UNL     1      -1.323  -3.456  -3.443  0.00  0.00    +0.005 C 
ENDBRANCH  20  21
ENDBRANCH   5  20
BRANCH   4  23
ATOM     23  S   UNL     1      -4.630  -2.141  -1.487  0.00  0.00    -0.077 S 
BRANCH  23  24
ATOM     24  C   UNL     1      -5.975  -2.298  -0.280  0.00  0.00    +0.173 C 
BRANCH  24  25
ATOM     25  C   UNL     1      -7.173  -2.928  -0.942  0.00  0.00    +0.229 C 
ATOM     26  O   UNL     1      -7.125  -3.241  -2.112  0.00  0.00    -0.275 OA
ATOM     27  N   UNL     1      -8.298  -3.145  -0.232  0.00  0.00    -0.263 N 
ATOM     28  C   UNL     1      -9.404  -3.726  -0.843  0.00  0.00    +0.188 A 
ATOM     29  N   UNL     1      -9.547  -4.137  -2.087  0.00  0.00    -0.126 NA
ATOM     30  N   UNL     1     -10.624  -4.652  -2.502  0.00  0.00    -0.144 NA
ATOM     31  C   UNL     1     -11.635  -4.782  -1.666  0.00  0.00    +0.106 A 
ATOM     32  S   UNL     1     -10.910  -4.098  -0.182  0.00  0.00    -0.035 S 
ATOM     33  H   UNL     1      -8.337  -2.894   0.704  0.00  0.00    +0.157 HD
BRANCH  31  34
ATOM     34  C   UNL     1     -13.010  -5.354  -1.895  0.00  0.00    +0.040 C 
ATOM     35  C   UNL     1     -13.720  -4.551  -2.987  0.00  0.00    +0.014 C 
ATOM     36  C   UNL     1     -12.889  -6.814  -2.334  0.00  0.00    +0.014 C 
ENDBRANCH  31  34
ENDBRANCH  24  25
ENDBRANCH  23  24
ENDBRANCH   4  23
TORSDOF 10
