REMARK  Name = ZINC59425703
REMARK  5 active torsions:
REMARK  status: ('A' for Active; 'I' for Inactive)
REMARK    1  A    between atoms: C_6  and  C_7
REMARK    2  A    between atoms: N_9  and  N_10
REMARK    3  A    between atoms: C_11  and  C_12
REMARK    4  A    between atoms: C_15  and  O_19
REMARK    5  A    between atoms: C_17  and  O_18
REMARK                            x       y       z     vdW  Elec       q    Type
REMARK                         _______ _______ _______ _____ _____    ______ ____
ROOT
ATOM      1  N   UNL     1      -2.446  -2.830   0.011  0.00  0.00    -0.187 NA
ATOM      2  C   UNL     1      -2.425  -4.129   0.004  0.00  0.00    +0.142 C 
ENDROOT
BRANCH   2   3
ATOM      3  C   UNL     1      -3.689  -4.886   0.013  0.00  0.00    +0.037 A 
ATOM      4  C   UNL     1      -3.670  -6.283   0.011  0.00  0.00    +0.032 A 
ATOM      5  C   UNL     1      -4.854  -6.987   0.018  0.00  0.00    +0.060 A 
ATOM      6  C   UNL     1      -6.070  -6.312   0.028  0.00  0.00    +0.134 A 
ATOM      7  C   UNL     1      -6.099  -4.925   0.030  0.00  0.00    +0.092 A 
ATOM      8  C   UNL     1      -4.916  -4.207   0.028  0.00  0.00    +0.129 A 
ATOM      9 BR   UNL     1      -4.827  -8.878   0.015  0.00  0.00    -0.047 Br
BRANCH   8  10
ATOM     10  O   UNL     1      -4.943  -2.849   0.036  0.00  0.00    -0.506 OA
ATOM     11  H   UNL     1      -4.959  -2.451  -0.845  0.00  0.00    +0.292 HD
ENDBRANCH   8  10
BRANCH   6  12
ATOM     12  O   UNL     1      -7.234  -7.013   0.036  0.00  0.00    -0.506 OA
ATOM     13  H   UNL     1      -7.564  -7.217   0.922  0.00  0.00    +0.292 HD
ENDBRANCH   6  12
ENDBRANCH   2   3
BRANCH   1  16
ATOM     14  C   UNL     1      -1.266  -0.763   0.011  0.00  0.00    +0.263 C 
ATOM     15  O   UNL     1      -2.328  -0.172   0.024  0.00  0.00    -0.268 OA
ATOM     16  N   UNL     1      -1.244  -2.111   0.003  0.00  0.00    -0.203 N 
ATOM     17  H   UNL     1      -0.396  -2.582  -0.008  0.00  0.00    +0.178 HD
BRANCH  14  23
ATOM     18  C   UNL     1      -0.017   1.392   0.010  0.00  0.00    +0.014 A 
ATOM     19  C   UNL     1       1.170   2.095   0.002  0.00  0.00    +0.016 A 
ATOM     20  C   UNL     1       2.378   1.419  -0.013  0.00  0.00    +0.018 A 
ATOM     21  C   UNL     1       2.404   0.034  -0.021  0.00  0.00    +0.016 A 
ATOM     22  C   UNL     1       1.224  -0.680  -0.013  0.00  0.00    +0.014 A 
ATOM     23  C   UNL     1       0.002  -0.004   0.002  0.00  0.00    +0.038 A 
ATOM     24 BR   UNL     1       4.000   2.390  -0.025  0.00  0.00    -0.050 Br
ENDBRANCH  14  23
ENDBRANCH   1  16
TORSDOF 5
