REMARK  Name = ZINC20707171
REMARK  7 active torsions:
REMARK  status: ('A' for Active; 'I' for Inactive)
REMARK    1  A    between atoms: C_1  and  C_2
REMARK    2  A    between atoms: C_2  and  C_3
REMARK    3  A    between atoms: C_3  and  N_4
REMARK    4  A    between atoms: N_4  and  S_5
REMARK    5  A    between atoms: S_5  and  C_8
REMARK    6  A    between atoms: C_21  and  C_24
REMARK    7  A    between atoms: C_29  and  O_30
REMARK                            x       y       z     vdW  Elec       q    Type
REMARK                         _______ _______ _______ _____ _____    ______ ____
ROOT
ATOM      1  C   UNL     1      -3.343   0.167   3.302  0.00  0.00    +0.106 A 
ATOM      2  C   UNL     1      -4.233  -0.076   2.272  0.00  0.00    +0.030 A 
ATOM      3  C   UNL     1      -3.890   0.231   0.972  0.00  0.00    +0.025 A 
ATOM      4  C   UNL     1      -2.649   0.787   0.686  0.00  0.00    +0.031 A 
ATOM      5  C   UNL     1      -1.758   1.042   1.734  0.00  0.00    -0.018 A 
ATOM      6  C   UNL     1      -2.108   0.726   3.029  0.00  0.00    +0.034 A 
ATOM      7  C   UNL     1      -0.456   1.653   1.390  0.00  0.00    +0.049 C 
ATOM      8  C   UNL     1       0.749   1.464   2.237  0.00  0.00    -0.023 C 
ATOM      9  C   UNL     1       1.824   1.490   1.459  0.00  0.00    -0.030 C 
ATOM     10  C   UNL     1       1.407   1.668  -0.002  0.00  0.00    +0.033 C 
ATOM     11  C   UNL     1      -0.013   1.086   0.008  0.00  0.00    +0.029 C 
ATOM     12  C   UNL     1      -0.994   1.632  -1.014  0.00  0.00    +0.108 C 
ATOM     13  N   UNL     1      -2.309   1.057  -0.645  0.00  0.00    -0.336 N 
ATOM     14  H   UNL     1      -3.049   0.831  -1.427  0.00  0.00    +0.147 HD
ENDROOT
BRANCH  12  15
ATOM     15  C   UNL     1      -0.574   1.232  -2.405  0.00  0.00    +0.014 A 
ATOM     16  C   UNL     1      -1.188   0.164  -3.031  0.00  0.00    +0.009 A 
ATOM     17  C   UNL     1      -0.804  -0.203  -4.307  0.00  0.00    +0.001 A 
ATOM     18  C   UNL     1       0.195   0.496  -4.960  0.00  0.00    +0.004 A 
ATOM     19  C   UNL     1       0.812   1.563  -4.337  0.00  0.00    +0.046 A 
ATOM     20  C   UNL     1       0.424   1.938  -3.059  0.00  0.00    +0.122 A 
BRANCH  20  21
ATOM     21  O   UNL     1       1.026   2.992  -2.447  0.00  0.00    -0.506 OA
ATOM     22  H   UNL     1       1.817   3.551  -2.967  0.00  0.00    +0.292 HD
ENDBRANCH  20  21
ENDBRANCH  12  15
BRANCH   1  23
ATOM     23  S   UNL     1      -3.781  -0.236   4.960  0.00  0.00    +0.058 S 
ATOM     24  O   UNL     1      -4.774  -1.249   4.883  0.00  0.00    -0.153 OA
ATOM     25  O   UNL     1      -2.563  -0.415   5.670  0.00  0.00    -0.153 OA
BRANCH  23  26
ATOM     26  N   UNL     1      -4.516   1.098   5.610  0.00  0.00    -0.190 NA
ATOM     27  H   UNL     1      -3.962   1.720   6.329  0.00  0.00    +0.148 HD
BRANCH  26  28
ATOM     28  C   UNL     1      -5.795   1.565   5.071  0.00  0.00    +0.105 C 
BRANCH  28  30
ATOM     29  C   UNL     1      -7.770   3.037   5.490  0.00  0.00    +0.005 C 
ATOM     30  C   UNL     1      -6.434   2.550   6.053  0.00  0.00    +0.013 C 
ENDBRANCH  28  30
ENDBRANCH  26  28
ENDBRANCH  23  26
ENDBRANCH   1  23
TORSDOF 6
