REMARK  Name = ZINC39596376
REMARK  9 active torsions:
REMARK  status: ('A' for Active; 'I' for Inactive)
REMARK    1  A    between atoms: C_1  and  C_2
REMARK    2  A    between atoms: C_4  and  C_11
REMARK    3  A    between atoms: C_5  and  C_7
REMARK    4  A    between atoms: C_15  and  C_24
REMARK    5  A    between atoms: N_26  and  C_27
REMARK    6  A    between atoms: C_27  and  C_28
REMARK    7  A    between atoms: C_28  and  C_30
REMARK    8  A    between atoms: C_28  and  O_31
REMARK    9  A    between atoms: O_31  and  C_32
REMARK                            x       y       z     vdW  Elec       q    Type
REMARK                         _______ _______ _______ _____ _____    ______ ____
ROOT
ATOM      1  C   UNL     1      -1.289  -3.193   0.045  0.00  0.00    +0.250 C 
ATOM      2  O   UNL     1      -0.700  -4.252  -0.060  0.00  0.00    -0.270 OA
ATOM      3  N   UNL     1      -2.633  -3.175   0.145  0.00  0.00    -0.296 N 
ATOM      4  C   UNL     1      -3.527  -1.994   0.158  0.00  0.00    +0.121 C 
ATOM      5  C   UNL     1      -4.752  -2.423  -0.681  0.00  0.00    +0.100 C 
ATOM      6  C   UNL     1      -4.762  -3.959  -0.604  0.00  0.00    -0.004 C 
ATOM      7  C   UNL     1      -3.550  -4.334   0.261  0.00  0.00    +0.115 C 
ATOM      8  C   UNL     1      -4.613  -4.559  -1.999  0.00  0.00    -0.010 C 
ATOM      9  C   UNL     1      -4.684  -6.086  -1.903  0.00  0.00    -0.082 C 
ATOM     10  N   UNL     1      -5.968  -6.482  -1.312  0.00  0.00    +0.379 N 
ATOM     11  C   UNL     1      -6.063  -5.978   0.063  0.00  0.00    -0.082 C 
ATOM     12  C   UNL     1      -6.051  -4.447   0.050  0.00  0.00    -0.010 C 
ATOM     13  H   UNL     1      -6.722  -6.099  -1.862  0.00  0.00    -0.086 HD
ATOM     14  H   UNL     1      -6.037  -7.488  -1.306  0.00  0.00    -0.086 HD
ENDROOT
BRANCH   1  18
ATOM     15  C   UNL     1       0.092   1.648   0.877  0.00  0.00    +0.086 C 
ATOM     16  C   UNL     1       0.059   0.206   0.439  0.00  0.00    +0.103 A 
ATOM     17  C   UNL     1      -0.943  -0.655   0.672  0.00  0.00    +0.058 A 
ATOM     18  C   UNL     1      -0.532  -1.928   0.063  0.00  0.00    +0.087 A 
ATOM     19  C   UNL     1       0.696  -1.694  -0.482  0.00  0.00    +0.220 A 
ATOM     20  O   UNL     1       1.025  -0.420  -0.251  0.00  0.00    -0.455 OA
BRANCH  19  21
ATOM     21  C   UNL     1       1.537  -2.701  -1.224  0.00  0.00    +0.451 C 
ATOM     22  F   UNL     1       1.226  -2.655  -2.587  0.00  0.00    -0.163 F 
ATOM     23  F   UNL     1       2.892  -2.400  -1.045  0.00  0.00    -0.163 F 
ATOM     24  F   UNL     1       1.275  -3.983  -0.730  0.00  0.00    -0.163 F 
ENDBRANCH  19  21
ENDBRANCH   1  18
BRANCH   5  25
ATOM     25  C   UNL     1      -6.017  -1.857  -0.090  0.00  0.00    +0.218 C 
ATOM     26  O   UNL     1      -6.065  -1.580   1.089  0.00  0.00    -0.275 OA
ATOM     27  N   UNL     1      -7.096  -1.658  -0.873  0.00  0.00    -0.312 N 
ATOM     28  H   UNL     1      -7.059  -1.879  -1.817  0.00  0.00    +0.149 HD
BRANCH  27  29
ATOM     29  C   UNL     1      -8.327  -1.108  -0.298  0.00  0.00    +0.148 C 
BRANCH  29  30
ATOM     30  C   UNL     1      -9.389  -0.983  -1.392  0.00  0.00    +0.187 C 
ATOM     31  C   UNL     1     -10.674  -0.409  -0.792  0.00  0.00    +0.053 C 
BRANCH  30  32
ATOM     32  O   UNL     1      -8.914  -0.113  -2.421  0.00  0.00    -0.488 OA
BRANCH  32  33
ATOM     33  C   UNL     1      -9.296  -0.397  -3.695  0.00  0.00    +0.121 A 
ATOM     34  C   UNL     1      -8.769   0.325  -4.755  0.00  0.00    +0.048 A 
ATOM     35  C   UNL     1      -9.158   0.035  -6.049  0.00  0.00    +0.042 A 
ATOM     36  C   UNL     1     -10.074  -0.975  -6.287  0.00  0.00    +0.124 A 
ATOM     37  C   UNL     1     -10.602  -1.696  -5.229  0.00  0.00    +0.042 A 
ATOM     38  C   UNL     1     -10.209  -1.413  -3.935  0.00  0.00    +0.048 A 
ATOM     39  F   UNL     1     -10.455  -1.256  -7.552  0.00  0.00    -0.205 F 
ENDBRANCH  32  33
ENDBRANCH  30  32
ENDBRANCH  29  30
ENDBRANCH  27  29
ENDBRANCH   5  25
TORSDOF 7
