REMARK  Name = ZINC04729946
REMARK  8 active torsions:
REMARK  status: ('A' for Active; 'I' for Inactive)
REMARK    1  A    between atoms: C_1  and  O_2
REMARK    2  A    between atoms: O_2  and  C_3
REMARK    3  A    between atoms: C_7  and  C_9
REMARK    4  A    between atoms: C_11  and  C_23
REMARK    5  A    between atoms: C_14  and  C_16
REMARK    6  A    between atoms: C_27  and  O_30
REMARK    7  A    between atoms: C_28  and  O_29
REMARK    8  A    between atoms: O_30  and  C_31
REMARK                            x       y       z     vdW  Elec       q    Type
REMARK                         _______ _______ _______ _____ _____    ______ ____
ROOT
ATOM      1  C   UNL     1      -4.894   3.700  -0.545  0.00  0.00    +0.081 C 
ATOM      2  C   UNL     1      -2.562   3.862   0.047  0.00  0.00    -0.028 C 
ATOM      3  C   UNL     1      -2.879   4.324   1.473  0.00  0.00    +0.044 C 
ATOM      4  C   UNL     1      -4.314   4.764   1.550  0.00  0.00    +0.040 C 
ATOM      5  N   UNL     1      -5.183   4.474   0.655  0.00  0.00    -0.299 NA
ATOM      6  N   UNL     1      -3.637   2.952  -0.394  0.00  0.00    +0.401 N 
ATOM      7  H   UNL     1      -3.379   2.532  -1.295  0.00  0.00    -0.081 HD
ATOM      8  H   UNL     1      -3.763   2.211   0.305  0.00  0.00    -0.081 HD
ENDROOT
BRANCH   4   9
ATOM      9  C   UNL     1      -4.743   5.566   2.712  0.00  0.00    -0.004 A 
ATOM     10  C   UNL     1      -3.825   5.896   3.712  0.00  0.00    +0.011 A 
ATOM     11  C   UNL     1      -4.231   6.650   4.794  0.00  0.00    +0.020 A 
ATOM     12  C   UNL     1      -5.547   7.071   4.894  0.00  0.00    +0.041 A 
ATOM     13  C   UNL     1      -6.462   6.742   3.908  0.00  0.00    +0.020 A 
ATOM     14  C   UNL     1      -6.068   5.993   2.819  0.00  0.00    +0.011 A 
ATOM     15 CL   UNL     1      -6.051   8.014   6.261  0.00  0.00    -0.084 Cl
ENDBRANCH   4   9
BRANCH   1  20
ATOM     16  C   UNL     1      -8.338   2.146  -0.617  0.00  0.00    +0.120 A 
ATOM     17  C   UNL     1      -8.080   0.936  -1.244  0.00  0.00    +0.045 A 
ATOM     18  C   UNL     1      -6.794   0.626  -1.643  0.00  0.00    +0.004 A 
ATOM     19  C   UNL     1      -5.764   1.521  -1.416  0.00  0.00    +0.004 A 
ATOM     20  C   UNL     1      -6.019   2.727  -0.791  0.00  0.00    -0.037 A 
ATOM     21  C   UNL     1      -7.302   3.040  -0.386  0.00  0.00    +0.049 A 
BRANCH  16  23
ATOM     22  C   UNL     1     -10.618   1.484  -0.489  0.00  0.00    +0.277 C 
ATOM     23  O   UNL     1      -9.602   2.454  -0.224  0.00  0.00    -0.495 OA
ENDBRANCH  16  23
ENDBRANCH   1  20
BRANCH   2  24
ATOM     24  C   UNL     1      -1.244   3.132   0.031  0.00  0.00    -0.016 A 
ATOM     25  C   UNL     1      -1.220   1.749   0.017  0.00  0.00    +0.006 A 
ATOM     26  C   UNL     1      -0.013   1.076   0.008  0.00  0.00    +0.004 A 
ATOM     27  C   UNL     1       1.176   1.782   0.000  0.00  0.00    +0.049 A 
ATOM     28  C   UNL     1       1.159   3.167   0.008  0.00  0.00    +0.161 A 
ATOM     29  C   UNL     1      -0.056   3.845   0.023  0.00  0.00    +0.160 A 
BRANCH  29  30
ATOM     30  O   UNL     1      -0.078   5.205   0.031  0.00  0.00    -0.503 OA
ATOM     31  H   UNL     1      -0.093   5.603  -0.850  0.00  0.00    +0.292 HD
ENDBRANCH  29  30
BRANCH  28  32
ATOM     32  O   UNL     1       2.328   3.863   0.000  0.00  0.00    -0.491 OA
ATOM     33  C   UNL     1       3.537   3.101  -0.016  0.00  0.00    +0.277 C 
ENDBRANCH  28  32
ENDBRANCH   2  24
TORSDOF 6
