REMARK  Name = ZINC52618714
REMARK  6 active torsions:
REMARK  status: ('A' for Active; 'I' for Inactive)
REMARK    1  A    between atoms: C_1  and  C_2
REMARK    2  A    between atoms: N_11  and  C_12
REMARK    3  A    between atoms: C_12  and  C_13
REMARK    4  A    between atoms: C_16  and  C_19
REMARK    5  A    between atoms: C_19  and  C_21
REMARK    6  A    between atoms: C_25  and  C_30
REMARK                            x       y       z     vdW  Elec       q    Type
REMARK                         _______ _______ _______ _____ _____    ______ ____
ROOT
ATOM      1  C   UNL     1      -0.537  -1.385   3.037  0.00  0.00    -0.030 A 
ATOM      2  C   UNL     1      -1.905  -1.258   2.873  0.00  0.00    +0.006 A 
ATOM      3  C   UNL     1      -2.750  -2.259   3.306  0.00  0.00    +0.012 A 
ATOM      4  C   UNL     1      -2.222  -3.401   3.912  0.00  0.00    +0.022 A 
ATOM      5  C   UNL     1      -0.840  -3.522   4.075  0.00  0.00    +0.012 A 
ATOM      6  C   UNL     1      -0.006  -2.516   3.632  0.00  0.00    +0.006 A 
ENDROOT
BRANCH   4   7
ATOM      7  C   UNL     1      -3.121  -4.477   4.380  0.00  0.00    +0.192 C 
ATOM      8  O   UNL     1      -4.327  -4.316   4.353  0.00  0.00    -0.287 OA
BRANCH   7   9
ATOM      9  C   UNL     1      -2.561  -5.736   4.874  0.00  0.00    +0.028 C 
ATOM     10  C   UNL     1      -3.257  -6.869   5.244  0.00  0.00    +0.007 A 
ATOM     11  C   UNL     1      -4.642  -7.170   5.268  0.00  0.00    +0.011 A 
ATOM     12  C   UNL     1      -5.074  -8.379   5.683  0.00  0.00    +0.009 A 
ATOM     13  C   UNL     1      -4.146  -9.416   6.120  0.00  0.00    -0.016 A 
ATOM     14  C   UNL     1      -2.800  -9.198   6.124  0.00  0.00    +0.034 A 
ATOM     15  C   UNL     1      -2.283  -7.899   5.681  0.00  0.00    +0.044 A 
ATOM     16  N   UNL     1      -1.063  -7.441   5.590  0.00  0.00    -0.380 N 
ATOM     17  C   UNL     1      -1.100  -6.067   5.079  0.00  0.00    +0.152 C 
ATOM     18  H   UNL     1      -0.259  -7.933   5.820  0.00  0.00    +0.160 HD
BRANCH  13  19
ATOM     19  C   UNL     1      -4.674 -10.726   6.567  0.00  0.00    -0.018 A 
ATOM     20  C   UNL     1      -3.799 -11.725   6.993  0.00  0.00    +0.011 A 
ATOM     21  C   UNL     1      -4.295 -12.943   7.408  0.00  0.00    +0.039 A 
ATOM     22  C   UNL     1      -5.662 -13.175   7.402  0.00  0.00    +0.123 A 
ATOM     23  C   UNL     1      -6.535 -12.185   6.979  0.00  0.00    +0.039 A 
ATOM     24  C   UNL     1      -6.049 -10.962   6.569  0.00  0.00    +0.011 A 
ATOM     25  F   UNL     1      -6.143 -14.370   7.808  0.00  0.00    -0.205 F 
ENDBRANCH  13  19
ENDBRANCH   7   9
ENDBRANCH   4   7
BRANCH   1  26
ATOM     26  C   UNL     1       0.380  -0.288   2.561  0.00  0.00    +0.142 C 
BRANCH  26  36
ATOM     27  C   UNL     1       0.020   1.458  -0.053  0.00  0.00    +0.049 C 
ATOM     28  C   UNL     1       0.055  -0.071  -0.028  0.00  0.00    +0.156 C 
ATOM     29  N   UNL     1       0.821  -0.580  -1.173  0.00  0.00    -0.323 N 
ATOM     30  C   UNL     1       1.907  -1.300  -0.658  0.00  0.00    +0.066 A 
ATOM     31  C   UNL     1       2.936  -1.983  -1.289  0.00  0.00    +0.107 A 
ATOM     32  N   UNL     1       3.866  -2.600  -0.584  0.00  0.00    -0.365 N 
ATOM     33  C   UNL     1       3.861  -2.595   0.736  0.00  0.00    +0.084 A 
ATOM     34  C   UNL     1       2.871  -1.939   1.439  0.00  0.00    +0.042 A 
ATOM     35  C   UNL     1       1.869  -1.274   0.737  0.00  0.00    +0.055 A 
ATOM     36  N   UNL     1       0.764  -0.541   1.170  0.00  0.00    -0.306 N 
ATOM     37  H   UNL     1       0.614  -0.443  -2.110  0.00  0.00    +0.148 HD
ATOM     38  H   UNL     1       4.575  -3.070  -1.050  0.00  0.00    +0.165 HD
ENDBRANCH  26  36
ENDBRANCH   1  26
TORSDOF 5
