REMARK  Name = ZINC19172046
REMARK  3 active torsions:
REMARK  status: ('A' for Active; 'I' for Inactive)
REMARK    1  A    between atoms: C_6  and  C_7
REMARK    2  A    between atoms: C_9  and  C_20
REMARK    3  A    between atoms: C_11  and  C_18
REMARK                            x       y       z     vdW  Elec       q    Type
REMARK                         _______ _______ _______ _____ _____    ______ ____
ROOT
ATOM      1  C   UNL     1       1.423   1.640  -0.003  0.00  0.00    +0.122 C 
ATOM      2  C   UNL     1      -0.012   1.086   0.029  0.00  0.00    +0.147 C 
ATOM      3  C   UNL     1      -0.671   1.606  -1.261  0.00  0.00    +0.193 C 
ATOM      4  N   UNL     1       0.191   2.716  -1.728  0.00  0.00    -0.222 NA
ATOM      5  N   UNL     1       1.534   2.439  -1.230  0.00  0.00    -0.230 NA
ATOM      6  C   UNL     1       2.306   1.749  -2.272  0.00  0.00    +0.104 C 
ATOM      7  C   UNL     1       1.384   1.653  -3.502  0.00  0.00    +0.034 C 
ATOM      8  C   UNL     1       0.262   2.671  -3.207  0.00  0.00    +0.105 C 
ENDROOT
BRANCH   1  14
ATOM      9  C   UNL     1       3.695   0.694   0.455  0.00  0.00    +0.007 A 
ATOM     10  C   UNL     1       4.603  -0.348   0.433  0.00  0.00    +0.020 A 
ATOM     11  C   UNL     1       4.234  -1.576  -0.086  0.00  0.00    +0.041 A 
ATOM     12  C   UNL     1       2.955  -1.762  -0.579  0.00  0.00    +0.020 A 
ATOM     13  C   UNL     1       2.045  -0.722  -0.551  0.00  0.00    +0.007 A 
ATOM     14  C   UNL     1       2.415   0.505  -0.032  0.00  0.00    -0.028 A 
ATOM     15 CL   UNL     1       5.377  -2.882  -0.122  0.00  0.00    -0.084 Cl
ENDBRANCH   1  14
BRANCH   3  16
ATOM     16  C   UNL     1      -2.028   2.100  -0.975  0.00  0.00    +0.084 C 
ATOM     17  N   UNL     1      -3.075   2.482  -0.755  0.00  0.00    -0.195 NA
ENDBRANCH   3  16
BRANCH   2  18
ATOM     18  C   UNL     1      -0.729   1.591   1.212  0.00  0.00    +0.070 C 
ATOM     19  N   UNL     1      -1.282   1.981   2.124  0.00  0.00    -0.196 NA
ENDBRANCH   2  18
TORSDOF 3
