REMARK  Name = ZINC12768253
REMARK  5 active torsions:
REMARK  status: ('A' for Active; 'I' for Inactive)
REMARK    1  A    between atoms: C_1  and  C_2
REMARK    2  A    between atoms: C_2  and  C_4
REMARK    3  A    between atoms: C_2  and  N_41
REMARK    4  A    between atoms: N_6  and  C_7
REMARK    5  A    between atoms: C_17  and  C_20
REMARK                            x       y       z     vdW  Elec       q    Type
REMARK                         _______ _______ _______ _____ _____    ______ ____
ROOT
ATOM      1  C   UNL     1      -4.469  -0.599  -1.447  0.00  0.00    -0.004 C 
ATOM      2  C   UNL     1      -3.711  -1.063  -0.201  0.00  0.00    +0.016 C 
ENDROOT
BRANCH   2   8
ATOM      3  C   UNL     1      -2.626  -2.792  -1.502  0.00  0.00    -0.077 C 
ATOM      4  C   UNL     1      -2.229  -4.271  -1.504  0.00  0.00    -0.006 C 
ATOM      5  C   UNL     1      -3.493  -5.134  -1.493  0.00  0.00    +0.071 C 
ATOM      6  C   UNL     1      -4.335  -4.776  -0.265  0.00  0.00    -0.006 C 
ATOM      7  C   UNL     1      -4.671  -3.284  -0.299  0.00  0.00    -0.077 C 
ATOM      8  N   UNL     1      -3.412  -2.508  -0.284  0.00  0.00    +0.387 N 
ATOM      9  H   UNL     1      -2.862  -2.782   0.539  0.00  0.00    -0.081 HD
BRANCH   5  10
ATOM     10  C   UNL     1      -3.110  -6.590  -1.434  0.00  0.00    +0.213 C 
ATOM     11  O   UNL     1      -3.474  -7.276  -0.502  0.00  0.00    -0.276 OA
ATOM     12  N   UNL     1      -2.363  -7.130  -2.418  0.00  0.00    -0.329 N 
ATOM     13  H   UNL     1      -2.072  -6.582  -3.163  0.00  0.00    +0.145 HD
ATOM     14  H   UNL     1      -2.116  -8.068  -2.380  0.00  0.00    +0.145 HD
ENDBRANCH   5  10
ENDBRANCH   2   8
BRANCH   2  15
ATOM     15  C   UNL     1      -2.414  -0.304  -0.090  0.00  0.00    +0.203 C 
ATOM     16  O   UNL     1      -1.359  -0.901  -0.098  0.00  0.00    -0.277 OA
ATOM     17  N   UNL     1      -2.428   1.040   0.019  0.00  0.00    -0.286 N 
ATOM     18  H   UNL     1      -3.271   1.511   0.107  0.00  0.00    +0.155 HD
BRANCH  17  19
ATOM     19  C   UNL     1      -1.225   1.755   0.006  0.00  0.00    +0.047 A 
ATOM     20  C   UNL     1      -0.102   1.218  -0.610  0.00  0.00    +0.025 A 
ATOM     21  C   UNL     1       1.082   1.928  -0.626  0.00  0.00    +0.017 A 
ATOM     22  C   UNL     1       1.153   3.172  -0.025  0.00  0.00    +0.019 A 
ATOM     23  C   UNL     1       0.038   3.708   0.595  0.00  0.00    +0.032 A 
ATOM     24  C   UNL     1      -1.150   3.002   0.614  0.00  0.00    +0.040 A 
ATOM     25 BR   UNL     1      -2.673   3.736   1.461  0.00  0.00    -0.048 Br
ATOM     26 BR   UNL     1       2.776   4.141  -0.049  0.00  0.00    -0.050 Br
ENDBRANCH  17  19
ENDBRANCH   2  15
TORSDOF 4
