REMARK  Name = ZINC55797026
REMARK  5 active torsions:
REMARK  status: ('A' for Active; 'I' for Inactive)
REMARK    1  A    between atoms: C_3  and  N_26
REMARK    2  A    between atoms: C_6  and  C_7
REMARK    3  A    between atoms: C_7  and  N_8
REMARK    4  A    between atoms: C_9  and  C_11
REMARK    5  A    between atoms: N_13  and  C_18
REMARK                            x       y       z     vdW  Elec       q    Type
REMARK                         _______ _______ _______ _____ _____    ______ ____
ROOT
ATOM      1  N   UNL     1      -1.725  -1.018  -1.368  0.00  0.00    -0.306 N 
ATOM      2  C   UNL     1      -2.866  -1.694  -1.607  0.00  0.00    +0.260 C 
ATOM      3  O   UNL     1      -3.537  -2.104  -0.678  0.00  0.00    -0.269 OA
ATOM      4  H   UNL     1      -1.191  -0.691  -2.109  0.00  0.00    +0.149 HD
ENDROOT
BRANCH   2   5
ATOM      5  C   UNL     1      -3.299  -1.937  -2.988  0.00  0.00    +0.121 C 
ATOM      6  N   UNL     1      -2.575  -1.502  -3.972  0.00  0.00    -0.177 NA
ATOM      7  N   UNL     1      -2.958  -1.713  -5.300  0.00  0.00    -0.188 N 
ATOM      8  C   UNL     1      -4.235  -2.018  -5.602  0.00  0.00    +0.235 C 
ATOM      9  O   UNL     1      -4.562  -2.195  -6.756  0.00  0.00    -0.274 OA
ATOM     10  C   UNL     1      -5.256  -2.138  -4.500  0.00  0.00    +0.104 C 
ATOM     11  C   UNL     1      -4.575  -2.695  -3.243  0.00  0.00    +0.071 C 
BRANCH   7  12
ATOM     12  C   UNL     1      -1.964  -1.601  -6.371  0.00  0.00    +0.124 C 
ATOM     13  C   UNL     1      -1.362  -0.186  -6.363  0.00  0.00    +0.049 C 
ATOM     14  C   UNL     1      -0.108  -0.188  -7.283  0.00  0.00    +0.168 C 
ATOM     15  S   UNL     1       0.639  -1.810  -6.832  0.00  0.00    -0.029 S 
ATOM     16  O   UNL     1       1.580  -1.611  -5.786  0.00  0.00    -0.174 OA
ATOM     17  O   UNL     1       1.043  -2.479  -8.018  0.00  0.00    -0.174 OA
ATOM     18  C   UNL     1      -0.847  -2.649  -6.146  0.00  0.00    +0.190 C 
ENDBRANCH   7  12
ENDBRANCH   2   5
BRANCH   1  19
ATOM     19  C   UNL     1      -1.293  -0.775   0.010  0.00  0.00    +0.140 C 
BRANCH  19  25
ATOM     20  C   UNL     1      -0.017   1.378   0.010  0.00  0.00    +0.007 A 
ATOM     21  C   UNL     1       1.171   2.086   0.002  0.00  0.00    +0.033 A 
ATOM     22  C   UNL     1       2.377   1.411  -0.013  0.00  0.00    +0.126 A 
ATOM     23  C   UNL     1       2.396   0.029  -0.020  0.00  0.00    +0.033 A 
ATOM     24  C   UNL     1       1.208  -0.679  -0.012  0.00  0.00    +0.007 A 
ATOM     25  C   UNL     1       0.002  -0.004   0.002  0.00  0.00    -0.030 A 
BRANCH  22  26
ATOM     26  N   UNL     1       3.649   2.168  -0.022  0.00  0.00    +0.056 N 
ATOM     27  O   UNL     1       3.633   3.377  -0.016  0.00  0.00    -0.126 OA
ATOM     28  O   UNL     1       4.704   1.578  -0.035  0.00  0.00    -0.126 OA
ENDBRANCH  22  26
ENDBRANCH  19  25
ENDBRANCH   1  19
TORSDOF 5
