REMARK  Name = ZINC65246813
REMARK  5 active torsions:
REMARK  status: ('A' for Active; 'I' for Inactive)
REMARK    1  A    between atoms: C_1  and  C_2
REMARK    2  A    between atoms: C_6  and  N_8
REMARK    3  A    between atoms: N_8  and  S_9
REMARK    4  A    between atoms: S_9  and  C_12
REMARK    5  A    between atoms: C_15  and  C_24
REMARK                            x       y       z     vdW  Elec       q    Type
REMARK                         _______ _______ _______ _____ _____    ______ ____
ROOT
ATOM      1  S   UNL     1       0.073  -4.452   2.378  0.00  0.00    +0.089 S 
ATOM      2  O   UNL     1      -1.169  -4.871   1.830  0.00  0.00    -0.149 OA
ATOM      3  O   UNL     1       1.321  -4.838   1.818  0.00  0.00    -0.149 OA
ENDROOT
BRANCH   1   4
ATOM      4  C   UNL     1       0.088  -4.986   4.057  0.00  0.00    +0.104 C 
ATOM      5  C   UNL     1       1.135  -5.462   4.697  0.00  0.00    +0.097 C 
ATOM      6  N   UNL     1       0.863  -5.829   5.989  0.00  0.00    -0.300 N 
ATOM      7  C   UNL     1       1.664  -6.615   6.938  0.00  0.00    +0.209 C 
ATOM      8  N   UNL     1       0.773  -7.644   7.490  0.00  0.00    -0.173 NA
ATOM      9  N   UNL     1      -0.450  -7.585   7.449  0.00  0.00    -0.082 NA
ATOM     10  C   UNL     1      -1.192  -6.605   6.905  0.00  0.00    +0.274 C 
ATOM     11  O   UNL     1      -2.396  -6.702   6.862  0.00  0.00    -0.270 OA
ATOM     12  C   UNL     1      -0.505  -5.381   6.349  0.00  0.00    +0.170 C 
ATOM     13  C   UNL     1      -1.099  -4.963   4.997  0.00  0.00    +0.090 C 
ATOM     14  C   UNL     1       2.840  -7.272   6.212  0.00  0.00    +0.056 C 
ENDBRANCH   1   4
BRANCH   1  15
ATOM     15  N   UNL     1       0.051  -2.796   2.390  0.00  0.00    -0.098 NA
BRANCH  15  21
ATOM     16  C   UNL     1      -0.018   1.503   0.010  0.00  0.00    +0.044 C 
ATOM     17  C   UNL     1       0.002  -0.004   0.002  0.00  0.00    -0.049 A 
ATOM     18  C   UNL     1       0.006  -0.688  -1.200  0.00  0.00    +0.003 A 
ATOM     19  C   UNL     1       0.024  -2.071  -1.212  0.00  0.00    +0.002 A 
ATOM     20  C   UNL     1       0.039  -2.773  -0.023  0.00  0.00    +0.027 A 
ATOM     21  C   UNL     1       0.036  -2.089   1.186  0.00  0.00    +0.075 A 
ATOM     22  C   UNL     1       0.023  -0.700   1.194  0.00  0.00    +0.030 A 
ENDBRANCH  15  21
ENDBRANCH   1  15
TORSDOF 3
