REMARK  Name = ZINC11129447
REMARK  5 active torsions:
REMARK  status: ('A' for Active; 'I' for Inactive)
REMARK    1  A    between atoms: C_7  and  C_11
REMARK    2  A    between atoms: C_14  and  S_19
REMARK    3  A    between atoms: N_15  and  C_16
REMARK    4  A    between atoms: S_19  and  C_20
REMARK    5  A    between atoms: C_20  and  C_21
REMARK                            x       y       z     vdW  Elec       q    Type
REMARK                         _______ _______ _______ _____ _____    ______ ____
ROOT
ATOM      1  S   UNL     1       4.785   4.453  -2.967  0.00  0.00    -0.078 S 
ENDROOT
BRANCH   1   5
ATOM      2  C   UNL     1       7.491   7.108  -3.918  0.00  0.00    +0.167 A 
ATOM      3  N   UNL     1       7.790   6.822  -2.672  0.00  0.00    -0.128 NA
ATOM      4  N   UNL     1       6.971   5.945  -2.213  0.00  0.00    -0.122 NA
ATOM      5  C   UNL     1       6.098   5.616  -3.136  0.00  0.00    +0.193 A 
ATOM      6  N   UNL     1       6.401   6.340  -4.257  0.00  0.00    -0.299 N 
BRANCH   2  13
ATOM      7  C   UNL     1      10.946  10.168  -3.166  0.00  0.00    +0.001 A 
ATOM      8  C   UNL     1      11.292  10.875  -4.309  0.00  0.00    +0.002 A 
ATOM      9  C   UNL     1      10.642  10.643  -5.501  0.00  0.00    +0.026 A 
ATOM     10  C   UNL     1       9.628   9.692  -5.562  0.00  0.00    +0.047 A 
ATOM     11  C   UNL     1       9.279   8.984  -4.400  0.00  0.00    +0.010 A 
ATOM     12  C   UNL     1       9.953   9.230  -3.205  0.00  0.00    +0.011 A 
ATOM     13  C   UNL     1       8.195   8.067  -4.793  0.00  0.00    +0.044 A 
ATOM     14  C   UNL     1       7.965   8.281  -6.114  0.00  0.00    +0.095 A 
ATOM     15  N   UNL     1       8.812   9.245  -6.579  0.00  0.00    -0.360 N 
ATOM     16  H   UNL     1       8.836   9.568  -7.493  0.00  0.00    +0.165 HD
ENDBRANCH   2  13
BRANCH   6  17
ATOM     17  C   UNL     1       5.709   6.306  -5.548  0.00  0.00    +0.091 C 
ATOM     18  C   UNL     1       4.326   5.651  -5.590  0.00  0.00    +0.027 C 
ATOM     19  C   UNL     1       5.529   4.942  -6.217  0.00  0.00    +0.027 C 
ENDBRANCH   6  17
ENDBRANCH   1   5
BRANCH   1  20
ATOM     20  C   UNL     1       5.044   3.935  -1.252  0.00  0.00    +0.153 C 
BRANCH  20  21
ATOM     21  C   UNL     1       4.005   2.911  -0.874  0.00  0.00    +0.143 A 
ATOM     22  N   UNL     1       4.259   1.630  -1.073  0.00  0.00    -0.216 NA
ATOM     23  C   UNL     1       3.389   0.682  -0.762  0.00  0.00    +0.128 A 
ATOM     24  C   UNL     1       2.138   1.052  -0.196  0.00  0.00    +0.051 A 
ATOM     25  C   UNL     1       1.033   0.183   0.225  0.00  0.00    -0.025 A 
ATOM     26  C   UNL     1      -0.058   0.792   0.733  0.00  0.00    -0.004 A 
ATOM     27  S   UNL     1       0.315   2.526   0.691  0.00  0.00    -0.073 S 
ATOM     28  C   UNL     1       1.939   2.434  -0.015  0.00  0.00    +0.114 A 
ATOM     29  N   UNL     1       2.862   3.314  -0.354  0.00  0.00    -0.224 NA
ATOM     30  C   UNL     1      -1.323   0.154   1.217  0.00  0.00    +0.043 C 
ATOM     31  C   UNL     1      -0.978  -0.999   2.169  0.00  0.00    +0.005 C 
ATOM     32  C   UNL     1      -0.829  -2.273   1.343  0.00  0.00    +0.001 C 
ATOM     33  C   UNL     1      -0.263  -1.940  -0.035  0.00  0.00    +0.005 C 
ATOM     34  C   UNL     1       1.130  -1.335   0.093  0.00  0.00    +0.037 C 
ATOM     35  N   UNL     1       3.692  -0.649  -0.985  0.00  0.00    -0.343 N 
ATOM     36  H   UNL     1       4.406  -0.888  -1.597  0.00  0.00    +0.144 HD
ATOM     37  H   UNL     1       3.191  -1.343  -0.530  0.00  0.00    +0.144 HD
ENDBRANCH  20  21
ENDBRANCH   1  20
TORSDOF 5
