REMARK  Name = ZINC39974411
REMARK  13 active torsions:
REMARK  status: ('A' for Active; 'I' for Inactive)
REMARK    1  A    between atoms: C_1  and  C_2
REMARK    2  A    between atoms: C_2  and  C_3
REMARK    3  A    between atoms: C_3  and  C_4
REMARK    4  A    between atoms: C_3  and  C_6
REMARK    5  A    between atoms: C_4  and  C_5
REMARK    6  A    between atoms: C_6  and  N_7
REMARK    7  A    between atoms: N_10  and  C_13
REMARK    8  A    between atoms: C_13  and  N_15
REMARK    9  A    between atoms: N_15  and  C_16
REMARK   10  A    between atoms: C_19  and  S_22
REMARK   11  A    between atoms: S_22  and  N_25
REMARK   12  A    between atoms: C_26  and  C_34
REMARK   13  A    between atoms: C_31  and  C_33
REMARK                            x       y       z     vdW  Elec       q    Type
REMARK                         _______ _______ _______ _____ _____    ______ ____
ROOT
ATOM      1  N   UNL     1      -2.493  -4.427  -4.698  0.00  0.00    -0.297 N 
ATOM      2  H   UNL     1      -1.893  -4.721  -3.995  0.00  0.00    +0.154 HD
ENDROOT
BRANCH   1   3
ATOM      3  C   UNL     1      -3.205  -5.368  -5.448  0.00  0.00    +0.033 A 
ATOM      4  C   UNL     1      -3.974  -4.958  -6.530  0.00  0.00    +0.025 A 
ATOM      5  C   UNL     1      -4.676  -5.890  -7.269  0.00  0.00    +0.030 A 
ATOM      6  C   UNL     1      -4.614  -7.230  -6.933  0.00  0.00    +0.106 A 
ATOM      7  C   UNL     1      -3.850  -7.641  -5.857  0.00  0.00    +0.030 A 
ATOM      8  C   UNL     1      -3.141  -6.715  -5.117  0.00  0.00    +0.025 A 
BRANCH   6   9
ATOM      9  S   UNL     1      -5.512  -8.415  -7.878  0.00  0.00    +0.061 S 
ATOM     10  O   UNL     1      -5.881  -9.454  -6.982  0.00  0.00    -0.153 OA
ATOM     11  O   UNL     1      -6.469  -7.689  -8.638  0.00  0.00    -0.153 OA
BRANCH   9  12
ATOM     12  N   UNL     1      -4.453  -9.080  -8.963  0.00  0.00    -0.171 NA
ATOM     13  C   UNL     1      -3.814 -10.374  -8.689  0.00  0.00    +0.077 C 
ATOM     14  C   UNL     1      -4.066 -11.311  -9.875  0.00  0.00    +0.020 C 
ATOM     15  C   UNL     1      -3.590 -10.635 -11.163  0.00  0.00    +0.003 C 
ATOM     16  C   UNL     1      -4.383  -9.346 -11.388  0.00  0.00    +0.020 C 
ATOM     17  C   UNL     1      -4.138  -8.390 -10.222  0.00  0.00    +0.077 C 
ATOM     18  C   UNL     1      -5.038  -7.161 -10.371  0.00  0.00    +0.026 C 
ATOM     19  C   UNL     1      -2.309 -10.174  -8.501  0.00  0.00    +0.026 C 
ENDBRANCH   9  12
ENDBRANCH   6   9
ENDBRANCH   1   3
BRANCH   1  20
ATOM     20  C   UNL     1      -2.641  -3.111  -4.951  0.00  0.00    +0.137 C 
ATOM     21  S   UNL     1      -1.461  -2.279  -5.870  0.00  0.00    -0.018 S 
BRANCH  20  25
ATOM     22  N   UNL     1      -5.314  -0.887  -2.802  0.00  0.00    +0.382 N 
ATOM     23  C   UNL     1      -4.218  -0.256  -3.548  0.00  0.00    -0.060 C 
ATOM     24  C   UNL     1      -3.957  -1.044  -4.836  0.00  0.00    +0.088 C 
ATOM     25  N   UNL     1      -3.718  -2.451  -4.480  0.00  0.00    -0.316 N 
ATOM     26  C   UNL     1      -4.687  -3.118  -3.597  0.00  0.00    +0.088 C 
ATOM     27  C   UNL     1      -4.914  -2.232  -2.368  0.00  0.00    -0.060 C 
ATOM     28  H   UNL     1      -6.127  -0.956  -3.396  0.00  0.00    -0.082 HD
BRANCH  22  29
ATOM     29  C   UNL     1      -5.638  -0.070  -1.625  0.00  0.00    -0.075 C 
BRANCH  29  30
ATOM     30  C   UNL     1      -6.174   1.289  -2.079  0.00  0.00    -0.028 C 
BRANCH  30  32
ATOM     31  C   UNL     1      -7.979   2.437  -3.369  0.00  0.00    +0.004 C 
ATOM     32  C   UNL     1      -7.502   1.094  -2.813  0.00  0.00    -0.002 C 
ENDBRANCH  30  32
BRANCH  30  33
ATOM     33  C   UNL     1      -6.393   2.184  -0.858  0.00  0.00    -0.002 C 
ATOM     34  C   UNL     1      -5.047   2.476  -0.191  0.00  0.00    +0.004 C 
ENDBRANCH  30  33
ENDBRANCH  29  30
ENDBRANCH  22  29
ENDBRANCH  20  25
ENDBRANCH   1  20
TORSDOF 9
