REMARK  Name = ZINC43261678
REMARK  10 active torsions:
REMARK  status: ('A' for Active; 'I' for Inactive)
REMARK    1  A    between atoms: C_1  and  C_2
REMARK    2  A    between atoms: C_2  and  C_3
REMARK    3  A    between atoms: C_3  and  C_5
REMARK    4  A    between atoms: C_3  and  N_23
REMARK    5  A    between atoms: C_5  and  C_7
REMARK    6  A    between atoms: C_5  and  N_13
REMARK    7  A    between atoms: N_16  and  C_19
REMARK    8  A    between atoms: C_19  and  C_20
REMARK    9  A    between atoms: C_19  and  C_21
REMARK   10  A    between atoms: C_19  and  C_22
REMARK                            x       y       z     vdW  Elec       q    Type
REMARK                         _______ _______ _______ _____ _____    ______ ____
ROOT
ATOM      1  C   UNL     1      -1.413  -2.059   0.130  0.00  0.00    +0.079 C 
ENDROOT
BRANCH   1   2
ATOM      2  N   UNL     1      -2.750  -2.661   0.044  0.00  0.00    -0.300 NA
ATOM      3  C   UNL     1      -3.632  -2.140   1.099  0.00  0.00    +0.066 C 
ATOM      4  C   UNL     1      -5.028  -2.746   0.938  0.00  0.00    -0.062 C 
ATOM      5  N   UNL     1      -4.940  -4.209   1.028  0.00  0.00    +0.385 N 
ATOM      6  C   UNL     1      -4.077  -4.717  -0.046  0.00  0.00    -0.062 C 
ATOM      7  C   UNL     1      -2.672  -4.128   0.106  0.00  0.00    +0.066 C 
ATOM      8  H   UNL     1      -4.551  -4.469   1.922  0.00  0.00    -0.081 HD
BRANCH   5   9
ATOM      9  C   UNL     1      -6.283  -4.789   0.892  0.00  0.00    -0.074 C 
ATOM     10  C   UNL     1      -6.873  -4.396  -0.464  0.00  0.00    -0.010 C 
ATOM     11  C   UNL     1      -6.192  -6.314   0.985  0.00  0.00    -0.010 C 
ATOM     12  C   UNL     1      -7.182  -4.262   2.012  0.00  0.00    -0.010 C 
ENDBRANCH   5   9
ENDBRANCH   1   2
BRANCH   1  13
ATOM     13  C   UNL     1      -0.724  -2.543   1.380  0.00  0.00    +0.006 A 
ATOM     14  C   UNL     1       0.522  -3.058   1.522  0.00  0.00    +0.014 A 
ATOM     15  C   UNL     1       0.950  -3.441   2.779  0.00  0.00    +0.023 A 
ATOM     16  C   UNL     1       0.110  -3.290   3.834  0.00  0.00    +0.055 A 
ATOM     17  S   UNL     1      -1.333  -2.580   3.057  0.00  0.00    -0.085 S 
ATOM     18 BR   UNL     1       0.396  -3.713   5.654  0.00  0.00    -0.043 Br
ENDBRANCH   1  13
BRANCH   1  19
ATOM     19  C   UNL     1      -1.542  -0.535   0.177  0.00  0.00    -0.053 C 
BRANCH  19  20
ATOM     20  N   UNL     1      -2.215  -0.063  -1.041  0.00  0.00    +0.381 N 
ATOM     21  H   UNL     1      -1.673  -0.330  -1.849  0.00  0.00    -0.090 HD
ATOM     22  H   UNL     1      -3.133  -0.477  -1.100  0.00  0.00    -0.090 HD
ATOM     23  H   UNL     1      -2.300   0.942  -1.010  0.00  0.00    -0.090 HD
ENDBRANCH  19  20
BRANCH  19  25
ATOM     24  C   UNL     1      -0.283   1.607   0.439  0.00  0.00    +0.002 C 
ATOM     25  C   UNL     1      -0.150   0.092   0.267  0.00  0.00    -0.018 C 
ENDBRANCH  19  25
ENDBRANCH   1  19
TORSDOF 6
