REMARK  Name = ZINC09695493
REMARK  18 active torsions:
REMARK  status: ('A' for Active; 'I' for Inactive)
REMARK    1  A    between atoms: C_1  and  C_2
REMARK    2  A    between atoms: C_2  and  O_3
REMARK    3  A    between atoms: O_3  and  C_4
REMARK    4  A    between atoms: C_4  and  C_6
REMARK    5  A    between atoms: C_6  and  C_7
REMARK    6  A    between atoms: C_8  and  C_33
REMARK    7  A    between atoms: N_16  and  C_19
REMARK    8  A    between atoms: C_19  and  C_20
REMARK    9  A    between atoms: C_20  and  O_22
REMARK   10  A    between atoms: O_22  and  C_23
REMARK   11  A    between atoms: C_23  and  C_24
REMARK   12  A    between atoms: C_25  and  C_29
REMARK   13  A    between atoms: C_26  and  N_28
REMARK   14  A    between atoms: C_29  and  O_31
REMARK   15  A    between atoms: O_31  and  C_32
REMARK   16  A    between atoms: C_33  and  O_35
REMARK   17  A    between atoms: O_35  and  C_36
REMARK   18  A    between atoms: C_36  and  C_37
REMARK                            x       y       z     vdW  Elec       q    Type
REMARK                         _______ _______ _______ _____ _____    ______ ____
ROOT
ATOM      1  C   UNL     1       2.457   5.204   1.107  0.00  0.00    +0.129 C 
ATOM      2  C   UNL     1       1.466   4.323   1.299  0.00  0.00    +0.099 C 
ATOM      3  C   UNL     1       0.870   3.572   0.143  0.00  0.00    +0.145 C 
ATOM      4  C   UNL     1       1.321   2.133   0.159  0.00  0.00    -0.002 A 
ATOM      5  C   UNL     1       2.557   1.534   0.071  0.00  0.00    +0.007 A 
ATOM      6  C   UNL     1       2.662   0.154   0.118  0.00  0.00    +0.000 A 
ATOM      7  C   UNL     1       1.522  -0.617   0.253  0.00  0.00    +0.002 A 
ATOM      8  C   UNL     1       0.282  -0.020   0.342  0.00  0.00    +0.024 A 
ATOM      9  C   UNL     1       0.168   1.368   0.295  0.00  0.00    +0.042 A 
ATOM     10  N   UNL     1      -0.955   2.195   0.358  0.00  0.00    -0.259 N 
ATOM     11  C   UNL     1      -0.632   3.498   0.282  0.00  0.00    +0.240 C 
ATOM     12  O   UNL     1      -1.401   4.435   0.314  0.00  0.00    -0.274 OA
ATOM     13  C   UNL     1       1.245   4.226  -1.156  0.00  0.00    +0.117 C 
ATOM     14  C   UNL     1       2.263   5.126  -1.205  0.00  0.00    +0.195 C 
ATOM     15  O   UNL     1       2.964   5.457  -0.108  0.00  0.00    -0.445 OA
ENDROOT
BRANCH  14  16
ATOM     16  N   UNL     1       2.581   5.710  -2.402  0.00  0.00    -0.329 N 
ATOM     17  H   UNL     1       1.877   5.964  -3.019  0.00  0.00    +0.145 HD
ATOM     18  H   UNL     1       3.510   5.868  -2.632  0.00  0.00    +0.145 HD
ENDBRANCH  14  16
BRANCH  13  19
ATOM     19  C   UNL     1       0.540   3.905  -2.327  0.00  0.00    +0.341 C 
ATOM     20  O   UNL     1       0.787   4.491  -3.366  0.00  0.00    -0.245 OA
BRANCH  19  21
ATOM     21  O   UNL     1      -0.411   2.947  -2.301  0.00  0.00    -0.465 OA
ATOM     22  C   UNL     1      -1.088   2.672  -3.530  0.00  0.00    +0.280 C 
ENDBRANCH  19  21
ENDBRANCH  13  19
BRANCH   2  23
ATOM     23  C   UNL     1       0.974   4.096   2.608  0.00  0.00    +0.340 C 
ATOM     24  O   UNL     1       1.304   3.096   3.218  0.00  0.00    -0.245 OA
BRANCH  23  25
ATOM     25  O   UNL     1       0.140   4.989   3.179  0.00  0.00    -0.462 OA
BRANCH  25  26
ATOM     26  C   UNL     1      -0.222   4.761   4.543  0.00  0.00    +0.229 C 
ATOM     27  C   UNL     1      -1.257   5.799   4.977  0.00  0.00    +0.048 C 
ENDBRANCH  25  26
ENDBRANCH  23  25
ENDBRANCH   2  23
BRANCH   1  28
ATOM     28  C   UNL     1       3.021   5.936   2.298  0.00  0.00    +0.195 C 
BRANCH  28  29
ATOM     29  C   UNL     1       4.273   5.242   2.768  0.00  0.00    +0.314 C 
ATOM     30  O   UNL     1       4.667   4.254   2.195  0.00  0.00    -0.250 OA
BRANCH  29  31
ATOM     31  O   UNL     1       4.950   5.721   3.823  0.00  0.00    -0.465 OA
BRANCH  31  33
ATOM     32  C   UNL     1       6.778   5.691   5.432  0.00  0.00    +0.048 C 
ATOM     33  C   UNL     1       6.147   5.002   4.221  0.00  0.00    +0.229 C 
ENDBRANCH  31  33
ENDBRANCH  29  31
ENDBRANCH  28  29
ENDBRANCH   1  28
BRANCH  10  34
ATOM     34  C   UNL     1      -2.327   1.700   0.494  0.00  0.00    +0.234 C 
BRANCH  34  35
ATOM     35  C   UNL     1      -2.711   1.677   1.951  0.00  0.00    +0.325 C 
ATOM     36  O   UNL     1      -1.953   2.120   2.782  0.00  0.00    -0.249 OA
BRANCH  35  37
ATOM     37  O   UNL     1      -3.893   1.166   2.326  0.00  0.00    -0.464 OA
BRANCH  37  38
ATOM     38  C   UNL     1      -4.197   1.177   3.746  0.00  0.00    +0.229 C 
ATOM     39  C   UNL     1      -5.577   0.558   3.978  0.00  0.00    +0.048 C 
ENDBRANCH  37  38
ENDBRANCH  35  37
ENDBRANCH  34  35
ENDBRANCH  10  34
TORSDOF 14
