REMARK  Name = ZINC24908529
REMARK  12 active torsions:
REMARK  status: ('A' for Active; 'I' for Inactive)
REMARK    1  A    between atoms: C_1  and  C_2
REMARK    2  A    between atoms: C_3  and  C_13
REMARK    3  A    between atoms: C_5  and  C_7
REMARK    4  A    between atoms: C_13  and  O_14
REMARK    5  A    between atoms: O_14  and  C_15
REMARK    6  A    between atoms: C_15  and  C_17
REMARK    7  A    between atoms: C_17  and  C_19
REMARK    8  A    between atoms: C_17  and  N_23
REMARK    9  A    between atoms: C_19  and  C_21
REMARK   10  A    between atoms: C_19  and  O_22
REMARK   11  A    between atoms: N_23  and  S_24
REMARK   12  A    between atoms: S_24  and  C_27
REMARK                            x       y       z     vdW  Elec       q    Type
REMARK                         _______ _______ _______ _____ _____    ______ ____
ROOT
ATOM      1  C   UNL     1       0.978   1.857  -0.271  0.00  0.00    +0.213 C 
ENDROOT
BRANCH   1   2
ATOM      2  C   UNL     1       1.935   1.027   0.545  0.00  0.00    +0.329 C 
ATOM      3  O   UNL     1       1.536   0.053   1.139  0.00  0.00    -0.249 OA
BRANCH   2   4
ATOM      4  O   UNL     1       3.232   1.369   0.612  0.00  0.00    -0.457 OA
BRANCH   4   5
ATOM      5  C   UNL     1       4.096   0.524   1.416  0.00  0.00    +0.291 C 
BRANCH   5   8
ATOM      6  C   UNL     1       6.305  -0.262  -0.652  0.00  0.00    +0.088 C 
ATOM      7  C   UNL     1       6.454   0.720   0.481  0.00  0.00    +0.129 A 
ATOM      8  C   UNL     1       5.504   1.060   1.372  0.00  0.00    +0.120 A 
ATOM      9  N   UNL     1       6.035   1.955   2.218  0.00  0.00    -0.210 NA
ATOM     10  C   UNL     1       7.280   2.177   1.867  0.00  0.00    +0.228 A 
ATOM     11  O   UNL     1       7.561   1.424   0.789  0.00  0.00    -0.440 OA
BRANCH  10  12
ATOM     12  C   UNL     1       8.217   3.099   2.543  0.00  0.00    +0.037 A 
ATOM     13  C   UNL     1       7.798   3.832   3.655  0.00  0.00    +0.013 A 
ATOM     14  C   UNL     1       8.679   4.687   4.285  0.00  0.00    +0.001 A 
ATOM     15  C   UNL     1       9.971   4.827   3.810  0.00  0.00    +0.000 A 
ATOM     16  C   UNL     1      10.390   4.109   2.704  0.00  0.00    +0.001 A 
ATOM     17  C   UNL     1       9.521   3.246   2.069  0.00  0.00    +0.013 A 
ENDBRANCH  10  12
ENDBRANCH   5   8
ENDBRANCH   4   5
ENDBRANCH   2   4
ENDBRANCH   1   2
BRANCH   1  18
ATOM     18  C   UNL     1       1.432   1.870  -1.732  0.00  0.00    +0.141 C 
ATOM     19  C   UNL     1       0.391   2.600  -2.583  0.00  0.00    +0.040 C 
BRANCH  18  20
ATOM     20  O   UNL     1       2.688   2.545  -1.834  0.00  0.00    -0.390 OA
ATOM     21  H   UNL     1       3.175   2.654  -2.814  0.00  0.00    +0.210 HD
ENDBRANCH  18  20
ENDBRANCH   1  18
BRANCH   1  22
ATOM     22  N   UNL     1      -0.366   1.280  -0.182  0.00  0.00    -0.174 NA
ATOM     23  H   UNL     1      -0.708   0.564  -0.945  0.00  0.00    +0.149 HD
BRANCH  22  24
ATOM     24  S   UNL     1      -1.455   1.881   0.910  0.00  0.00    +0.059 S 
ATOM     25  O   UNL     1      -2.654   1.138   0.740  0.00  0.00    -0.153 OA
ATOM     26  O   UNL     1      -0.778   1.960   2.157  0.00  0.00    -0.153 OA
BRANCH  24  27
ATOM     27  C   UNL     1      -1.816   3.537   0.428  0.00  0.00    +0.107 A 
ATOM     28  C   UNL     1      -1.032   4.578   0.890  0.00  0.00    +0.030 A 
ATOM     29  C   UNL     1      -1.310   5.877   0.508  0.00  0.00    +0.023 A 
ATOM     30  C   UNL     1      -2.381   6.137  -0.328  0.00  0.00    +0.059 A 
ATOM     31  C   UNL     1      -3.170   5.096  -0.786  0.00  0.00    +0.061 A 
ATOM     32  C   UNL     1      -2.886   3.796  -0.407  0.00  0.00    +0.050 A 
ATOM     33 CL   UNL     1      -4.514   5.421  -1.836  0.00  0.00    -0.082 Cl
ATOM     34 CL   UNL     1      -2.736   7.769  -0.803  0.00  0.00    -0.082 Cl
ENDBRANCH  24  27
ENDBRANCH  22  24
ENDBRANCH   1  22
TORSDOF 10
