REMARK  Name = ZINC35380535
REMARK  9 active torsions:
REMARK  status: ('A' for Active; 'I' for Inactive)
REMARK    1  A    between atoms: C_1  and  C_2
REMARK    2  A    between atoms: C_2  and  C_3
REMARK    3  A    between atoms: C_2  and  C_4
REMARK    4  A    between atoms: C_2  and  N_5
REMARK    5  A    between atoms: C_6  and  C_8
REMARK    6  A    between atoms: C_8  and  O_9
REMARK    7  A    between atoms: O_9  and  C_10
REMARK    8  A    between atoms: C_10  and  C_12
REMARK    9  A    between atoms: C_14  and  N_20
REMARK                            x       y       z     vdW  Elec       q    Type
REMARK                         _______ _______ _______ _____ _____    ______ ____
ROOT
ATOM      1  C   UNL     1       4.789  -0.469  -3.726  0.00  0.00    +0.360 C 
ATOM      2  O   UNL     1       4.336  -1.171  -4.607  0.00  0.00    -0.243 OA
ENDROOT
BRANCH   1   3
ATOM      3  C   UNL     1       6.188   0.006  -3.804  0.00  0.00    +0.169 A 
ATOM      4  C   UNL     1       6.977  -0.351  -4.893  0.00  0.00    +0.095 A 
ATOM      5  C   UNL     1       8.295   0.107  -4.952  0.00  0.00    +0.067 A 
ATOM      6  C   UNL     1       8.765   0.905  -3.910  0.00  0.00    +0.100 A 
ATOM      7  C   UNL     1       7.917   1.217  -2.859  0.00  0.00    +0.150 A 
ATOM      8  N   UNL     1       6.677   0.774  -2.835  0.00  0.00    -0.226 NA
ATOM      9 CL   UNL     1       8.496   2.210  -1.559  0.00  0.00    -0.060 Cl
ATOM     10 CL   UNL     1      10.395   1.502  -3.929  0.00  0.00    -0.078 Cl
ATOM     11 CL   UNL     1       6.334  -1.349  -6.159  0.00  0.00    -0.079 Cl
BRANCH   5  12
ATOM     12  N   UNL     1       9.119  -0.227  -6.024  0.00  0.00    -0.356 N 
ATOM     13  H   UNL     1       8.780  -0.784  -6.742  0.00  0.00    +0.142 HD
ATOM     14  H   UNL     1      10.033   0.097  -6.053  0.00  0.00    +0.142 HD
ENDBRANCH   5  12
ENDBRANCH   1   3
BRANCH   1  15
ATOM     15  O   UNL     1       4.018  -0.124  -2.677  0.00  0.00    -0.451 OA
BRANCH  15  16
ATOM     16  C   UNL     1       2.677  -0.618  -2.667  0.00  0.00    +0.328 C 
BRANCH  16  18
ATOM     17  N   UNL     1       0.688  -0.476  -1.203  0.00  0.00    -0.308 N 
ATOM     18  C   UNL     1       1.972  -0.132  -1.427  0.00  0.00    +0.251 C 
ATOM     19  O   UNL     1       2.559   0.569  -0.630  0.00  0.00    -0.272 OA
ATOM     20  H   UNL     1       0.218  -1.037  -1.840  0.00  0.00    +0.149 HD
BRANCH  17  22
ATOM     21  C   UNL     1      -0.019   1.526   0.010  0.00  0.00    +0.031 C 
ATOM     22  C   UNL     1       0.002  -0.004   0.002  0.00  0.00    +0.026 C 
ATOM     23  C   UNL     1       0.742  -0.511   1.242  0.00  0.00    +0.031 C 
ATOM     24  C   UNL     1      -1.433  -0.534   0.013  0.00  0.00    +0.031 C 
ENDBRANCH  17  22
ENDBRANCH  16  18
ENDBRANCH  15  16
ENDBRANCH   1  15
TORSDOF 6
