REMARK  Name = ZINC36591235
REMARK  19 active torsions:
REMARK  status: ('A' for Active; 'I' for Inactive)
REMARK    1  A    between atoms: C_1  and  C_2
REMARK    2  A    between atoms: C_2  and  C_3
REMARK    3  A    between atoms: C_2  and  C_4
REMARK    4  A    between atoms: C_2  and  C_5
REMARK    5  A    between atoms: C_5  and  C_6
REMARK    6  A    between atoms: C_6  and  C_7
REMARK    7  A    between atoms: C_6  and  C_8
REMARK    8  A    between atoms: C_6  and  N_9
REMARK    9  A    between atoms: C_10  and  C_12
REMARK   10  A    between atoms: C_12  and  C_14
REMARK   11  A    between atoms: C_12  and  N_23
REMARK   12  A    between atoms: C_17  and  N_20
REMARK   13  A    between atoms: N_23  and  C_36
REMARK   14  A    between atoms: C_24  and  C_26
REMARK   15  A    between atoms: C_26  and  N_27
REMARK   16  A    between atoms: C_28  and  C_30
REMARK   17  A    between atoms: C_36  and  C_37
REMARK   18  A    between atoms: C_36  and  C_38
REMARK   19  A    between atoms: C_36  and  C_39
REMARK                            x       y       z     vdW  Elec       q    Type
REMARK                         _______ _______ _______ _____ _____    ______ ____
ROOT
ATOM      1  C   UNL     1       4.877  -1.022  -4.976  0.00  0.00    +0.193 C 
ENDROOT
BRANCH   1   2
ATOM      2  C   UNL     1       4.130  -0.691  -6.243  0.00  0.00    -0.018 A 
ATOM      3  C   UNL     1       4.349   0.517  -6.879  0.00  0.00    +0.008 A 
ATOM      4  C   UNL     1       3.664   0.820  -8.041  0.00  0.00    +0.033 A 
ATOM      5  C   UNL     1       2.761  -0.084  -8.567  0.00  0.00    +0.126 A 
ATOM      6  C   UNL     1       2.543  -1.292  -7.932  0.00  0.00    +0.033 A 
ATOM      7  C   UNL     1       3.231  -1.598  -6.772  0.00  0.00    +0.008 A 
BRANCH   5   8
ATOM      8  N   UNL     1       2.027   0.241  -9.811  0.00  0.00    +0.056 N 
ATOM      9  O   UNL     1       2.218   1.298 -10.366  0.00  0.00    -0.126 OA
ATOM     10  O   UNL     1       1.237  -0.550 -10.271  0.00  0.00    -0.126 OA
ENDBRANCH   5   8
ENDBRANCH   1   2
BRANCH   1  12
ATOM     11  N   UNL     1       2.862  -0.990  -3.541  0.00  0.00    -0.308 N 
ATOM     12  C   UNL     1       4.100  -0.516  -3.789  0.00  0.00    +0.239 C 
ATOM     13  O   UNL     1       4.588   0.318  -3.055  0.00  0.00    -0.273 OA
ATOM     14  H   UNL     1       2.472  -1.656  -4.128  0.00  0.00    +0.149 HD
BRANCH  11  15
ATOM     15  C   UNL     1       2.107  -0.498  -2.386  0.00  0.00    +0.030 C 
ATOM     16  C   UNL     1       2.201   1.028  -2.328  0.00  0.00    +0.031 C 
ATOM     17  C   UNL     1       2.690  -1.094  -1.104  0.00  0.00    +0.031 C 
BRANCH  15  18
ATOM     18  C   UNL     1       0.641  -0.913  -2.522  0.00  0.00    +0.031 C 
BRANCH  18  20
ATOM     19  C   UNL     1       0.577  -1.839  -4.841  0.00  0.00    +0.010 C 
ATOM     20  C   UNL     1       0.169  -0.661  -3.955  0.00  0.00    -0.036 C 
ATOM     21  C   UNL     1       0.812   0.622  -4.485  0.00  0.00    +0.010 C 
ATOM     22  C   UNL     1      -1.354  -0.513  -3.972  0.00  0.00    +0.010 C 
ENDBRANCH  18  20
ENDBRANCH  15  18
ENDBRANCH  11  15
ENDBRANCH   1  12
BRANCH   1  23
ATOM     23  N   UNL     1       6.195  -0.384  -5.006  0.00  0.00    -0.280 N 
ATOM     24  C   UNL     1       6.293   0.961  -5.006  0.00  0.00    +0.234 C 
ATOM     25  O   UNL     1       5.311   1.640  -4.797  0.00  0.00    -0.274 OA
BRANCH  23  26
ATOM     26  C   UNL     1       7.407  -1.206  -5.034  0.00  0.00    +0.030 C 
ATOM     27  C   UNL     1       7.020  -2.680  -5.179  0.00  0.00    +0.031 C 
ATOM     28  C   UNL     1       8.278  -0.790  -6.221  0.00  0.00    +0.031 C 
ATOM     29  C   UNL     1       8.188  -1.009  -3.734  0.00  0.00    +0.031 C 
ENDBRANCH  23  26
BRANCH  24  30
ATOM     30  C   UNL     1       7.623   1.619  -5.266  0.00  0.00    +0.200 C 
BRANCH  30  31
ATOM     31  N   UNL     1       7.510   3.060  -5.028  0.00  0.00    -0.303 N 
ATOM     32  C   UNL     1       8.582   3.858  -5.199  0.00  0.00    +0.244 C 
ATOM     33  O   UNL     1       9.644   3.382  -5.550  0.00  0.00    -0.270 OA
ATOM     34  H   UNL     1       6.663   3.440  -4.747  0.00  0.00    +0.150 HD
BRANCH  32  35
ATOM     35  C   UNL     1       8.468   5.312  -4.958  0.00  0.00    +0.037 A 
ATOM     36  C   UNL     1       7.252   5.861  -4.549  0.00  0.00    +0.013 A 
ATOM     37  C   UNL     1       7.152   7.219  -4.326  0.00  0.00    +0.001 A 
ATOM     38  C   UNL     1       8.253   8.036  -4.508  0.00  0.00    +0.000 A 
ATOM     39  C   UNL     1       9.462   7.498  -4.914  0.00  0.00    +0.001 A 
ATOM     40  C   UNL     1       9.577   6.141  -5.134  0.00  0.00    +0.013 A 
ENDBRANCH  32  35
ENDBRANCH  30  31
ENDBRANCH  24  30
ENDBRANCH   1  23
TORSDOF 11
