REMARK  Name = ZINC62702675
REMARK  9 active torsions:
REMARK  status: ('A' for Active; 'I' for Inactive)
REMARK    1  A    between atoms: C_1  and  C_2
REMARK    2  A    between atoms: C_2  and  C_4
REMARK    3  A    between atoms: C_2  and  N_13
REMARK    4  A    between atoms: C_4  and  C_5
REMARK    5  A    between atoms: C_5  and  C_6
REMARK    6  A    between atoms: C_9  and  O_12
REMARK    7  A    between atoms: N_13  and  C_14
REMARK    8  A    between atoms: C_14  and  C_15
REMARK    9  A    between atoms: C_18  and  O_22
REMARK                            x       y       z     vdW  Elec       q    Type
REMARK                         _______ _______ _______ _____ _____    ______ ____
ROOT
ATOM      1  N   UNL     1       0.690  -0.478  -1.207  0.00  0.00    +0.383 N 
ATOM      2  H   UNL     1       1.608  -0.063  -1.256  0.00  0.00    -0.085 HD
ATOM      3  H   UNL     1       0.776  -1.482  -1.172  0.00  0.00    -0.085 HD
ENDROOT
BRANCH   1   5
ATOM      4  C   UNL     1      -0.019   1.526   0.010  0.00  0.00    -0.014 C 
ATOM      5  C   UNL     1       0.002  -0.004   0.002  0.00  0.00    -0.074 C 
BRANCH   5   6
ATOM      6  C   UNL     1       0.742  -0.511   1.242  0.00  0.00    -0.011 C 
BRANCH   6   7
ATOM      7  C   UNL     1       0.655  -2.037   1.299  0.00  0.00    +0.033 C 
BRANCH   7   8
ATOM      8  C   UNL     1       1.384  -2.537   2.519  0.00  0.00    -0.047 A 
ATOM      9  C   UNL     1       2.731  -2.841   2.443  0.00  0.00    +0.007 A 
ATOM     10  C   UNL     1       3.401  -3.299   3.561  0.00  0.00    +0.045 A 
ATOM     11  C   UNL     1       2.722  -3.453   4.761  0.00  0.00    +0.117 A 
ATOM     12  C   UNL     1       1.371  -3.147   4.835  0.00  0.00    +0.045 A 
ATOM     13  C   UNL     1       0.707  -2.684   3.716  0.00  0.00    +0.007 A 
BRANCH  11  14
ATOM     14  O   UNL     1       3.379  -3.905   5.861  0.00  0.00    -0.507 OA
ATOM     15  H   UNL     1       3.771  -3.204   6.401  0.00  0.00    +0.292 HD
ENDBRANCH  11  14
ENDBRANCH   7   8
ENDBRANCH   6   7
ENDBRANCH   5   6
ENDBRANCH   1   5
BRANCH   1  16
ATOM     16  C   UNL     1      -0.086  -0.093  -2.394  0.00  0.00    -0.046 C 
BRANCH  16  17
ATOM     17  C   UNL     1       0.620  -0.579  -3.634  0.00  0.00    -0.063 A 
ATOM     18  C   UNL     1       1.552   0.229  -4.259  0.00  0.00    +0.005 A 
ATOM     19  C   UNL     1       2.200  -0.214  -5.396  0.00  0.00    +0.047 A 
ATOM     20  C   UNL     1       1.915  -1.470  -5.910  0.00  0.00    +0.131 A 
ATOM     21  C   UNL     1       0.980  -2.280  -5.281  0.00  0.00    +0.059 A 
ATOM     22  C   UNL     1       0.338  -1.834  -4.141  0.00  0.00    +0.020 A 
ATOM     23 BR   UNL     1       0.588  -3.993  -5.979  0.00  0.00    -0.047 Br
BRANCH  20  24
ATOM     24  O   UNL     1       2.551  -1.908  -7.029  0.00  0.00    -0.506 OA
ATOM     25  H   UNL     1       3.374  -2.384  -6.853  0.00  0.00    +0.292 HD
ENDBRANCH  20  24
ENDBRANCH  16  17
ENDBRANCH   1  16
TORSDOF 8
