REMARK  Name = ZINC54982187
REMARK  6 active torsions:
REMARK  status: ('A' for Active; 'I' for Inactive)
REMARK    1  A    between atoms: C_3  and  N_14
REMARK    2  A    between atoms: C_4  and  S_10
REMARK    3  A    between atoms: C_6  and  N_7
REMARK    4  A    between atoms: S_10  and  N_13
REMARK    5  A    between atoms: N_14  and  C_15
REMARK    6  A    between atoms: N_24  and  C_26
REMARK                            x       y       z     vdW  Elec       q    Type
REMARK                         _______ _______ _______ _____ _____    ______ ____
ROOT
ATOM      1  C   UNL     1      -0.017   1.378   0.010  0.00  0.00    +0.034 A 
ATOM      2  C   UNL     1       1.169   2.087   0.002  0.00  0.00    +0.027 A 
ATOM      3  C   UNL     1       2.381   1.409  -0.013  0.00  0.00    +0.054 A 
ATOM      4  C   UNL     1       2.396   0.020  -0.021  0.00  0.00    +0.128 A 
ATOM      5  C   UNL     1       1.207  -0.682  -0.013  0.00  0.00    +0.063 A 
ATOM      6  C   UNL     1       0.002  -0.004   0.002  0.00  0.00    +0.128 A 
ENDROOT
BRANCH   6   7
ATOM      7  N   UNL     1      -1.270  -0.760   0.010  0.00  0.00    +0.056 N 
ATOM      8  O   UNL     1      -2.325  -0.168   0.023  0.00  0.00    -0.126 OA
ATOM      9  O   UNL     1      -1.256  -1.969   0.004  0.00  0.00    -0.126 OA
ENDBRANCH   6   7
BRANCH   4  10
ATOM     10  S   UNL     1       3.931  -0.846  -0.041  0.00  0.00    +0.058 S 
ATOM     11  O   UNL     1       4.735  -0.270   0.980  0.00  0.00    -0.153 OA
ATOM     12  O   UNL     1       3.616  -2.231  -0.072  0.00  0.00    -0.153 OA
BRANCH  10  13
ATOM     13  N   UNL     1       4.672  -0.496  -1.480  0.00  0.00    -0.203 NA
ATOM     14  H   UNL     1       5.640  -0.484  -1.537  0.00  0.00    +0.144 HD
ATOM     15  H   UNL     1       4.137  -0.303  -2.266  0.00  0.00    +0.144 HD
ENDBRANCH  10  13
ENDBRANCH   4  10
BRANCH   3  16
ATOM     16  N   UNL     1       3.582   2.122  -0.021  0.00  0.00    -0.339 N 
ATOM     17  H   UNL     1       4.428   1.647  -0.032  0.00  0.00    +0.146 HD
BRANCH  16  18
ATOM     18  C   UNL     1       3.564   3.584  -0.014  0.00  0.00    +0.073 C 
ATOM     19  C   UNL     1       3.485   4.107   1.422  0.00  0.00    -0.007 C 
ATOM     20  C   UNL     1       3.353   5.626   1.399  0.00  0.00    +0.003 C 
ATOM     21  C   UNL     1       4.476   6.303   0.630  0.00  0.00    +0.001 C 
ATOM     22  C   UNL     1       4.761   5.654  -0.715  0.00  0.00    +0.003 C 
ATOM     23  C   UNL     1       4.852   4.135  -0.630  0.00  0.00    -0.007 C 
ATOM     24  C   UNL     1       6.058   3.689   0.182  0.00  0.00    -0.073 C 
ATOM     25  N   UNL     1       5.969   4.047   1.594  0.00  0.00    +0.382 N 
ATOM     26  C   UNL     1       4.705   3.663   2.214  0.00  0.00    -0.073 C 
ATOM     27  H   UNL     1       6.133   5.034   1.716  0.00  0.00    -0.081 HD
BRANCH  25  28
ATOM     28  C   UNL     1       7.053   3.358   2.307  0.00  0.00    -0.069 C 
ATOM     29  C   UNL     1       7.955   4.203   3.208  0.00  0.00    -0.017 C 
ATOM     30  C   UNL     1       8.489   3.667   1.878  0.00  0.00    -0.017 C 
ENDBRANCH  25  28
ENDBRANCH  16  18
ENDBRANCH   3  16
TORSDOF 6
