REMARK  Name = ZINC36083526
REMARK  9 active torsions:
REMARK  status: ('A' for Active; 'I' for Inactive)
REMARK    1  A    between atoms: C_1  and  C_2
REMARK    2  A    between atoms: C_2  and  C_4
REMARK    3  A    between atoms: C_2  and  C_14
REMARK    4  A    between atoms: C_4  and  C_5
REMARK    5  A    between atoms: C_19  and  C_24
REMARK    6  A    between atoms: C_27  and  O_32
REMARK    7  A    between atoms: C_28  and  O_30
REMARK    8  A    between atoms: O_30  and  C_31
REMARK    9  A    between atoms: O_32  and  C_33
REMARK                            x       y       z     vdW  Elec       q    Type
REMARK                         _______ _______ _______ _____ _____    ______ ____
ROOT
ATOM      1  C   UNL     1       0.778  -0.387  -1.260  0.00  0.00    +0.149 C 
ATOM      2  C   UNL     1       0.106   0.229  -2.468  0.00  0.00    +0.037 C 
ATOM      3  C   UNL     1      -0.611  -0.506  -3.344  0.00  0.00    +0.020 C 
ATOM      4  C   UNL     1      -1.270   0.136  -4.541  0.00  0.00    +0.060 C 
ATOM      5  C   UNL     1      -1.657   1.577  -4.205  0.00  0.00    +0.032 C 
ATOM      6  C   UNL     1      -0.389   2.335  -3.797  0.00  0.00    +0.088 C 
ATOM      7  C   UNL     1       0.258   1.617  -2.646  0.00  0.00    +0.163 C 
ATOM      8  O   UNL     1       0.927   2.248  -1.851  0.00  0.00    -0.292 OA
ATOM      9  N   UNL     1      -0.768  -1.863  -3.191  0.00  0.00    -0.287 N 
ATOM     10  C   UNL     1       0.067  -2.519  -2.301  0.00  0.00    +0.220 A 
ATOM     11  N   UNL     1       0.802  -1.838  -1.392  0.00  0.00    -0.223 N 
ATOM     12  N   UNL     1       1.523  -2.791  -0.673  0.00  0.00    -0.132 NA
ATOM     13  C   UNL     1       1.193  -3.965  -1.165  0.00  0.00    +0.233 A 
ATOM     14  N   UNL     1       0.310  -3.792  -2.151  0.00  0.00    -0.180 NA
ATOM     15  N   UNL     1       1.689  -5.194  -0.728  0.00  0.00    -0.326 N 
ATOM     16  H   UNL     1      -1.444  -2.347  -3.691  0.00  0.00    +0.155 HD
ATOM     17  H   UNL     1       2.333  -5.228  -0.003  0.00  0.00    +0.145 HD
ATOM     18  H   UNL     1       1.390  -6.015  -1.149  0.00  0.00    +0.145 HD
ENDROOT
BRANCH   5  19
ATOM     19  C   UNL     1      -2.274   2.233  -5.413  0.00  0.00    -0.040 A 
ATOM     20  C   UNL     1      -1.547   2.345  -6.584  0.00  0.00    +0.008 A 
ATOM     21  C   UNL     1      -2.109   2.945  -7.696  0.00  0.00    +0.049 A 
ATOM     22  C   UNL     1      -3.403   3.436  -7.638  0.00  0.00    +0.161 A 
ATOM     23  C   UNL     1      -4.135   3.323  -6.460  0.00  0.00    +0.162 A 
ATOM     24  C   UNL     1      -3.568   2.716  -5.351  0.00  0.00    +0.053 A 
BRANCH  23  25
ATOM     25  O   UNL     1      -5.406   3.803  -6.399  0.00  0.00    -0.491 OA
ATOM     26  C   UNL     1      -6.097   3.652  -5.157  0.00  0.00    +0.277 C 
ENDBRANCH  23  25
BRANCH  22  27
ATOM     27  O   UNL     1      -3.957   4.027  -8.730  0.00  0.00    -0.491 OA
ATOM     28  C   UNL     1      -3.147   4.108  -9.905  0.00  0.00    +0.277 C 
ENDBRANCH  22  27
ENDBRANCH   5  19
BRANCH   1  30
ATOM     29  C   UNL     1       0.761  -0.497   1.236  0.00  0.00    +0.010 C 
ATOM     30  C   UNL     1       0.002  -0.004   0.002  0.00  0.00    +0.019 C 
BRANCH  30  31
ATOM     31  C   UNL     1      -1.385  -0.650  -0.036  0.00  0.00    +0.041 C 
BRANCH  31  32
ATOM     32  C   UNL     1      -2.192  -0.175   1.145  0.00  0.00    -0.043 A 
ATOM     33  C   UNL     1      -2.147  -0.874   2.337  0.00  0.00    +0.007 A 
ATOM     34  C   UNL     1      -2.886  -0.443   3.422  0.00  0.00    +0.050 A 
ATOM     35  C   UNL     1      -3.674   0.692   3.318  0.00  0.00    +0.166 A 
ATOM     36  C   UNL     1      -3.719   1.396   2.118  0.00  0.00    +0.166 A 
ATOM     37  C   UNL     1      -2.972   0.961   1.035  0.00  0.00    +0.053 A 
ATOM     38  O   UNL     1      -4.558   2.463   2.268  0.00  0.00    -0.453 OA
ATOM     39  C   UNL     1      -5.340   2.174   3.442  0.00  0.00    +0.466 C 
ATOM     40  O   UNL     1      -4.484   1.318   4.222  0.00  0.00    -0.453 OA
ENDBRANCH  31  32
ENDBRANCH  30  31
ENDBRANCH   1  30
TORSDOF 6
