REMARK  Name = ZINC16663100
REMARK  6 active torsions:
REMARK  status: ('A' for Active; 'I' for Inactive)
REMARK    1  A    between atoms: C_1  and  O_2
REMARK    2  A    between atoms: O_2  and  C_3
REMARK    3  A    between atoms: C_5  and  C_11
REMARK    4  A    between atoms: C_8  and  O_9
REMARK    5  A    between atoms: C_11  and  N_39
REMARK    6  A    between atoms: C_15  and  C_18
REMARK                            x       y       z     vdW  Elec       q    Type
REMARK                         _______ _______ _______ _____ _____    ______ ____
ROOT
ATOM      1  C   UNL     1      -4.049   5.600  -0.056  0.00  0.00    -0.043 C 
ENDROOT
BRANCH   1   4
ATOM      2  C   UNL     1      -4.007   9.319   0.610  0.00  0.00    +0.163 A 
ATOM      3  C   UNL     1      -4.045   7.948   0.809  0.00  0.00    +0.051 A 
ATOM      4  C   UNL     1      -4.013   7.091  -0.275  0.00  0.00    -0.059 A 
ATOM      5  C   UNL     1      -3.954   7.598  -1.560  0.00  0.00    +0.020 A 
ATOM      6  C   UNL     1      -3.921   8.965  -1.766  0.00  0.00    +0.059 A 
ATOM      7  C   UNL     1      -3.947   9.830  -0.683  0.00  0.00    +0.172 A 
ATOM      8  I   UNL     1      -3.831   9.729  -3.715  0.00  0.00    -0.040 I 
BRANCH   2  10
ATOM      9  C   UNL     1      -4.094   9.568   2.974  0.00  0.00    +0.277 C 
ATOM     10  O   UNL     1      -4.033  10.163   1.676  0.00  0.00    -0.491 OA
ENDBRANCH   2  10
BRANCH   7  11
ATOM     11  O   UNL     1      -3.915  11.174  -0.883  0.00  0.00    -0.503 OA
ATOM     12  H   UNL     1      -4.788  11.579  -0.976  0.00  0.00    +0.292 HD
ENDBRANCH   7  11
ENDBRANCH   1   4
BRANCH   1  18
ATOM     13  C   UNL     1      -2.033   5.606   1.283  0.00  0.00    -0.078 C 
ATOM     14  C   UNL     1      -0.565   5.174   1.306  0.00  0.00    -0.018 C 
ATOM     15  C   UNL     1      -0.487   3.645   1.274  0.00  0.00    +0.009 C 
ATOM     16  C   UNL     1      -1.208   3.131   0.025  0.00  0.00    +0.058 C 
ATOM     17  C   UNL     1      -2.657   3.622   0.039  0.00  0.00    -0.066 C 
ATOM     18  N   UNL     1      -2.663   5.100   0.045  0.00  0.00    +0.383 N 
ATOM     19  H   UNL     1      -2.127   5.438  -0.763  0.00  0.00    -0.081 HD
BRANCH  16  20
ATOM     20  C   UNL     1      -1.187   1.624   0.017  0.00  0.00    +0.212 C 
ATOM     21  O   UNL     1      -2.229   1.003   0.018  0.00  0.00    -0.276 OA
ATOM     22  N   UNL     1      -0.011   0.966   0.007  0.00  0.00    -0.329 N 
ATOM     23  H   UNL     1       0.002  -0.004   0.002  0.00  0.00    +0.145 HD
ATOM     24  H   UNL     1       0.822   1.462   0.002  0.00  0.00    +0.145 HD
ENDBRANCH  16  20
ENDBRANCH   1  18
TORSDOF 5
