REMARK  Name = ZINC21389312
REMARK  6 active torsions:
REMARK  status: ('A' for Active; 'I' for Inactive)
REMARK    1  A    between atoms: C_7  and  C_16
REMARK    2  A    between atoms: C_9  and  C_11
REMARK    3  A    between atoms: C_16  and  O_18
REMARK    4  A    between atoms: O_18  and  C_19
REMARK    5  A    between atoms: C_19  and  C_20
REMARK    6  A    between atoms: C_20  and  C_22
REMARK                            x       y       z     vdW  Elec       q    Type
REMARK                         _______ _______ _______ _____ _____    ______ ____
ROOT
ATOM      1  C   UNL     1       0.068  -2.966  -0.014  0.00  0.00    +0.340 C 
ATOM      2  O   UNL     1      -1.020  -2.437   0.092  0.00  0.00    -0.245 OA
ENDROOT
BRANCH   1   9
ATOM      3  C   UNL     1      -0.017   1.360  -0.031  0.00  0.00    +0.001 A 
ATOM      4  C   UNL     1       1.170   2.089  -0.038  0.00  0.00    +0.002 A 
ATOM      5  C   UNL     1       2.379   1.465  -0.040  0.00  0.00    +0.028 A 
ATOM      6  C   UNL     1       2.438   0.059  -0.035  0.00  0.00    +0.072 A 
ATOM      7  C   UNL     1       1.227  -0.679  -0.027  0.00  0.00    +0.014 A 
ATOM      8  C   UNL     1       0.002  -0.004  -0.026  0.00  0.00    +0.011 A 
ATOM      9  C   UNL     1       1.294  -2.141  -0.022  0.00  0.00    +0.070 A 
ATOM     10  C   UNL     1       2.554  -2.721  -0.024  0.00  0.00    +0.044 A 
ATOM     11  C   UNL     1       3.693  -1.897  -0.032  0.00  0.00    +0.079 A 
ATOM     12  N   UNL     1       3.609  -0.581  -0.036  0.00  0.00    -0.246 NA
BRANCH  11  13
ATOM     13  C   UNL     1       5.027  -2.526  -0.034  0.00  0.00    +0.038 A 
ATOM     14  C   UNL     1       6.263  -1.931  -0.035  0.00  0.00    +0.017 A 
ATOM     15  C   UNL     1       7.382  -2.731  -0.036  0.00  0.00    +0.008 A 
ATOM     16  C   UNL     1       7.231  -4.082  -0.035  0.00  0.00    +0.046 A 
ATOM     17  S   UNL     1       5.454  -4.260  -0.027  0.00  0.00    -0.095 S 
ENDBRANCH  11  13
ENDBRANCH   1   9
BRANCH   1  18
ATOM     18  O   UNL     1       0.158  -4.306  -0.123  0.00  0.00    -0.453 OA
BRANCH  18  19
ATOM     19  C   UNL     1      -1.068  -5.041  -0.108  0.00  0.00    +0.311 C 
BRANCH  19  20
ATOM     20  C   UNL     1      -0.772  -6.513  -0.240  0.00  0.00    +0.200 C 
ATOM     21  O   UNL     1       0.375  -6.895  -0.338  0.00  0.00    -0.288 OA
BRANCH  20  22
ATOM     22  C   UNL     1      -1.873  -7.485  -0.251  0.00  0.00    +0.021 A 
ATOM     23  C   UNL     1      -3.199  -7.046  -0.144  0.00  0.00    +0.013 A 
ATOM     24  C   UNL     1      -4.221  -7.951  -0.155  0.00  0.00    +0.024 A 
ATOM     25  C   UNL     1      -3.953  -9.312  -0.272  0.00  0.00    +0.037 A 
ATOM     26  C   UNL     1      -2.638  -9.758  -0.378  0.00  0.00    -0.025 A 
ATOM     27  C   UNL     1      -1.601  -8.853  -0.374  0.00  0.00    +0.017 A 
ATOM     28  C   UNL     1      -2.354 -11.232  -0.505  0.00  0.00    +0.046 C 
ATOM     29  C   UNL     1      -3.386 -12.021   0.301  0.00  0.00    +0.101 C 
ATOM     30  C   UNL     1      -4.772 -11.531  -0.023  0.00  0.00    +0.218 C 
ATOM     31  O   UNL     1      -5.694 -12.317  -0.051  0.00  0.00    -0.275 OA
ATOM     32  N   UNL     1      -4.999 -10.230  -0.282  0.00  0.00    -0.285 N 
ATOM     33  H   UNL     1      -5.901  -9.930  -0.478  0.00  0.00    +0.155 HD
ENDBRANCH  20  22
ENDBRANCH  19  20
ENDBRANCH  18  19
ENDBRANCH   1  18
TORSDOF 6
