REMARK  Name = ZINC38597771
REMARK  7 active torsions:
REMARK  status: ('A' for Active; 'I' for Inactive)
REMARK    1  A    between atoms: C_5  and  S_7
REMARK    2  A    between atoms: S_7  and  N_10
REMARK    3  A    between atoms: N_10  and  C_11
REMARK    4  A    between atoms: C_11  and  C_12
REMARK    5  A    between atoms: C_12  and  C_14
REMARK    6  A    between atoms: C_12  and  N_19
REMARK    7  A    between atoms: N_22  and  C_25
REMARK                            x       y       z     vdW  Elec       q    Type
REMARK                         _______ _______ _______ _____ _____    ______ ____
ROOT
ATOM      1  C   UNL     1       3.798  -3.550  -2.883  0.00  0.00    +0.015 C 
ENDROOT
BRANCH   1   2
ATOM      2  N   UNL     1       3.462  -4.980  -2.847  0.00  0.00    +0.389 N 
ATOM      3  C   UNL     1       4.237  -5.636  -1.786  0.00  0.00    -0.059 C 
ATOM      4  C   UNL     1       3.805  -7.101  -1.671  0.00  0.00    +0.086 C 
ATOM      5  N   UNL     1       3.934  -7.730  -2.995  0.00  0.00    -0.333 N 
ATOM      6  C   UNL     1       3.325  -7.051  -4.148  0.00  0.00    +0.086 C 
ATOM      7  C   UNL     1       3.779  -5.588  -4.146  0.00  0.00    -0.059 C 
ATOM      8  H   UNL     1       2.477  -5.088  -2.658  0.00  0.00    -0.081 HD
BRANCH   5   9
ATOM      9  C   UNL     1       4.618  -8.940  -3.152  0.00  0.00    +0.030 A 
ATOM     10  C   UNL     1       5.084  -9.625  -2.038  0.00  0.00    +0.026 A 
ATOM     11  C   UNL     1       5.758 -10.821  -2.195  0.00  0.00    +0.040 A 
ATOM     12  C   UNL     1       5.969 -11.336  -3.463  0.00  0.00    +0.124 A 
ATOM     13  C   UNL     1       5.505 -10.654  -4.575  0.00  0.00    +0.040 A 
ATOM     14  C   UNL     1       4.826  -9.461  -4.422  0.00  0.00    +0.026 A 
ATOM     15  F   UNL     1       6.629 -12.505  -3.615  0.00  0.00    -0.205 F 
ENDBRANCH   5   9
ENDBRANCH   1   2
BRANCH   1  16
ATOM     16  C   UNL     1       5.248  -3.383  -3.257  0.00  0.00    +0.093 A 
ATOM     17  C   UNL     1       5.727  -2.548  -4.196  0.00  0.00    +0.043 A 
ATOM     18  C   UNL     1       7.131  -2.715  -4.215  0.00  0.00    +0.041 A 
ATOM     19  C   UNL     1       7.426  -3.642  -3.287  0.00  0.00    +0.195 A 
ATOM     20  O   UNL     1       6.282  -4.039  -2.705  0.00  0.00    -0.469 OA
ENDBRANCH   1  16
BRANCH   1  21
ATOM     21  C   UNL     1       3.552  -2.934  -1.504  0.00  0.00    +0.098 C 
BRANCH  21  22
ATOM     22  N   UNL     1       2.162  -3.166  -1.106  0.00  0.00    -0.191 NA
ATOM     23  H   UNL     1       1.513  -3.465  -1.762  0.00  0.00    +0.148 HD
BRANCH  22  24
ATOM     24  S   UNL     1       1.698  -2.920   0.465  0.00  0.00    +0.060 S 
ATOM     25  O   UNL     1       2.648  -3.594   1.279  0.00  0.00    -0.153 OA
ATOM     26  O   UNL     1       0.307  -3.200   0.526  0.00  0.00    -0.153 OA
BRANCH  24  31
ATOM     27  C   UNL     1       0.911   0.924   1.333  0.00  0.00    +0.002 A 
ATOM     28  C   UNL     1       2.167   1.502   1.319  0.00  0.00    +0.002 A 
ATOM     29  C   UNL     1       3.280   0.730   1.045  0.00  0.00    +0.022 A 
ATOM     30  C   UNL     1       3.138  -0.621   0.784  0.00  0.00    +0.067 A 
ATOM     31  C   UNL     1       1.881  -1.199   0.798  0.00  0.00    +0.123 A 
ATOM     32  C   UNL     1       0.768  -0.426   1.072  0.00  0.00    +0.030 A 
ATOM     33 CL   UNL     1       4.535  -1.591   0.438  0.00  0.00    -0.082 Cl
ENDBRANCH  24  31
ENDBRANCH  22  24
ENDBRANCH  21  22
ENDBRANCH   1  21
TORSDOF 7
