REMARK  Name = ZINC22296501
REMARK  7 active torsions:
REMARK  status: ('A' for Active; 'I' for Inactive)
REMARK    1  A    between atoms: C_1  and  C_2
REMARK    2  A    between atoms: C_4  and  C_14
REMARK    3  A    between atoms: C_6  and  C_11
REMARK    4  A    between atoms: C_19  and  C_22
REMARK    5  A    between atoms: C_22  and  N_23
REMARK    6  A    between atoms: C_25  and  C_32
REMARK    7  A    between atoms: C_28  and  C_31
REMARK                            x       y       z     vdW  Elec       q    Type
REMARK                         _______ _______ _______ _____ _____    ______ ____
ROOT
ATOM      1  C   UNL     1      -4.810  -1.826  -0.565  0.00  0.00    +0.251 C 
ATOM      2  O   UNL     1      -5.700  -2.390  -1.171  0.00  0.00    -0.270 OA
ATOM      3  N   UNL     1      -4.798  -1.841   0.783  0.00  0.00    -0.261 N 
ATOM      4  C   UNL     1      -5.802  -2.500   1.479  0.00  0.00    +0.165 A 
ATOM      5  N   UNL     1      -5.962  -2.625   2.782  0.00  0.00    -0.231 NA
ATOM      6  C   UNL     1      -6.982  -3.292   3.284  0.00  0.00    +0.034 A 
ATOM      7  C   UNL     1      -7.872  -3.852   2.429  0.00  0.00    +0.070 A 
ATOM      8  S   UNL     1      -7.173  -3.366   0.858  0.00  0.00    -0.060 S 
ATOM      9  H   UNL     1      -3.992  -1.330   1.331  0.00  0.00    +0.157 HD
ENDROOT
BRANCH   1  13
ATOM     10  C   UNL     1      -5.962  -2.282  -3.517  0.00  0.00    +0.070 C 
ATOM     11  C   UNL     1      -4.693  -1.501  -3.744  0.00  0.00    +0.091 A 
ATOM     12  C   UNL     1      -3.771  -1.029  -2.712  0.00  0.00    +0.076 A 
ATOM     13  C   UNL     1      -3.740  -1.123  -1.307  0.00  0.00    +0.053 A 
ATOM     14  C   UNL     1      -2.666  -0.537  -0.639  0.00  0.00    +0.037 A 
ATOM     15  C   UNL     1      -1.688   0.116  -1.373  0.00  0.00    +0.049 A 
ATOM     16  N   UNL     1      -1.743   0.188  -2.686  0.00  0.00    -0.215 NA
ATOM     17  C   UNL     1      -2.734  -0.352  -3.378  0.00  0.00    +0.259 A 
ATOM     18  O   UNL     1      -3.011  -0.413  -4.696  0.00  0.00    -0.334 OA
ATOM     19  N   UNL     1      -4.217  -1.124  -4.891  0.00  0.00    -0.080 NA
BRANCH  15  20
ATOM     20  C   UNL     1      -0.530   0.754  -0.650  0.00  0.00    +0.038 C 
ATOM     21  C   UNL     1       0.662  -0.138  -0.300  0.00  0.00    +0.010 C 
ATOM     22  C   UNL     1      -0.286   0.337   0.802  0.00  0.00    +0.010 C 
ENDBRANCH  15  20
ENDBRANCH   1  13
BRANCH   6  23
ATOM     23  C   UNL     1      -7.155  -3.429   4.775  0.00  0.00    -0.022 C 
BRANCH  23  24
ATOM     24  N   UNL     1      -6.362  -4.568   5.257  0.00  0.00    +0.384 N 
ATOM     25  C   UNL     1      -6.880  -5.834   4.722  0.00  0.00    -0.075 C 
ATOM     26  C   UNL     1      -5.948  -6.979   5.125  0.00  0.00    -0.031 C 
ATOM     27  C   UNL     1      -5.861  -7.047   6.652  0.00  0.00    +0.003 C 
ATOM     28  C   UNL     1      -5.365  -5.700   7.187  0.00  0.00    -0.031 C 
ATOM     29  C   UNL     1      -6.314  -4.592   6.725  0.00  0.00    -0.075 C 
ATOM     30  C   UNL     1      -5.332  -5.739   8.717  0.00  0.00    +0.005 C 
ATOM     31  C   UNL     1      -4.554  -6.732   4.544  0.00  0.00    +0.005 C 
ATOM     32  H   UNL     1      -5.333  -4.445   4.890  0.00  0.00    -0.081 HD
ENDBRANCH  23  24
ENDBRANCH   6  23
TORSDOF 4
