REMARK  Name = ZINC63383551
REMARK  5 active torsions:
REMARK  status: ('A' for Active; 'I' for Inactive)
REMARK    1  A    between atoms: C_1  and  O_2
REMARK    2  A    between atoms: O_2  and  C_3
REMARK    3  A    between atoms: C_3  and  C_4
REMARK    4  A    between atoms: C_4  and  N_5
REMARK    5  A    between atoms: C_8  and  C_15
REMARK                            x       y       z     vdW  Elec       q    Type
REMARK                         _______ _______ _______ _____ _____    ______ ____
ROOT
ATOM      1  C   UNL     1      -3.666  -3.276   1.178  0.00  0.00    +0.121 C 
ATOM      2  C   UNL     1      -3.869  -1.907   1.831  0.00  0.00    +0.128 C 
ATOM      3  C   UNL     1      -4.563  -2.169   3.163  0.00  0.00    -0.035 C 
ATOM      4  C   UNL     1      -5.654  -1.416   3.171  0.00  0.00    -0.001 A 
ATOM      5  C   UNL     1      -6.672  -1.174   4.206  0.00  0.00    +0.010 A 
ATOM      6  C   UNL     1      -7.686  -0.336   3.866  0.00  0.00    +0.001 A 
ATOM      7  C   UNL     1      -7.789   0.280   2.614  0.00  0.00    +0.002 A 
ATOM      8  C   UNL     1      -6.895   0.119   1.606  0.00  0.00    +0.026 A 
ATOM      9  C   UNL     1      -5.781  -0.736   1.846  0.00  0.00    +0.043 A 
ATOM     10  N   UNL     1      -4.764  -1.044   1.063  0.00  0.00    -0.376 N 
ATOM     11  C   UNL     1      -4.043  -3.197   4.139  0.00  0.00    +0.048 C 
ATOM     12  C   UNL     1      -3.772  -4.471   3.317  0.00  0.00    +0.086 C 
ATOM     13  N   UNL     1      -2.968  -4.148   2.135  0.00  0.00    -0.307 NA
ATOM     14  H   UNL     1      -2.635  -4.987   1.684  0.00  0.00    +0.123 HD
ATOM     15  H   UNL     1      -4.630  -0.759   0.146  0.00  0.00    +0.160 HD
ENDROOT
BRANCH   1  19
ATOM     16  N   UNL     1      -0.776  -2.556  -1.119  0.00  0.00    -0.258 N 
ATOM     17  C   UNL     1      -1.502  -2.684   0.009  0.00  0.00    +0.265 A 
ATOM     18  O   UNL     1      -1.007  -2.420   1.091  0.00  0.00    -0.267 OA
ATOM     19  C   UNL     1      -2.835  -3.125  -0.071  0.00  0.00    +0.100 A 
ATOM     20  H   UNL     1      -2.963  -3.474  -3.288  0.00  0.00    +0.173 HD
ATOM     21  C   UNL     1      -3.365  -3.414  -1.293  0.00  0.00    +0.263 A 
ATOM     22  N   UNL     1      -2.591  -3.269  -2.416  0.00  0.00    -0.274 N 
ATOM     23  C   UNL     1      -1.319  -2.841  -2.317  0.00  0.00    +0.332 A 
ATOM     24  O   UNL     1      -0.649  -2.714  -3.323  0.00  0.00    -0.246 OA
ATOM     25  O   UNL     1      -4.642  -3.839  -1.397  0.00  0.00    -0.267 OA
BRANCH  16  26
ATOM     26  C   UNL     1       0.613  -2.097  -1.041  0.00  0.00    +0.158 C 
BRANCH  26  27
ATOM     27  C   UNL     1       0.652  -0.570  -1.138  0.00  0.00    +0.181 C 
BRANCH  27  29
ATOM     28  C   UNL     1      -0.017   1.425   0.010  0.00  0.00    +0.194 C 
ATOM     29  O   UNL     1       0.002  -0.004   0.002  0.00  0.00    -0.381 OA
ENDBRANCH  27  29
ENDBRANCH  26  27
ENDBRANCH  16  26
ENDBRANCH   1  19
TORSDOF 4
