REMARK  Name = ZINC00845351
REMARK  8 active torsions:
REMARK  status: ('A' for Active; 'I' for Inactive)
REMARK    1  A    between atoms: C_1  and  C_2
REMARK    2  A    between atoms: C_9  and  N_15
REMARK    3  A    between atoms: C_10  and  C_11
REMARK    4  A    between atoms: C_11  and  O_13
REMARK    5  A    between atoms: O_13  and  C_14
REMARK    6  A    between atoms: C_16  and  C_18
REMARK    7  A    between atoms: C_22  and  C_31
REMARK    8  A    between atoms: C_24  and  C_27
REMARK                            x       y       z     vdW  Elec       q    Type
REMARK                         _______ _______ _______ _____ _____    ______ ____
ROOT
ATOM      1  C   UNL     1       1.899  -7.468   3.819  0.00  0.00    +0.168 A 
ATOM      2  C   UNL     1       2.876  -7.857   4.743  0.00  0.00    +0.117 A 
ATOM      3  C   UNL     1       2.744  -9.225   4.940  0.00  0.00    +0.176 A 
ATOM      4  N   UNL     1       3.415 -10.091   5.710  0.00  0.00    -0.226 NA
ATOM      5  C   UNL     1       3.092 -11.374   5.723  0.00  0.00    +0.082 A 
ATOM      6  C   UNL     1       2.026 -11.845   4.917  0.00  0.00    +0.061 A 
ATOM      7  C   UNL     1       1.349 -10.973   4.141  0.00  0.00    +0.149 A 
ATOM      8  N   UNL     1       1.706  -9.650   4.148  0.00  0.00    -0.208 N 
ATOM      9  N   UNL     1       1.199  -8.536   3.469  0.00  0.00    -0.158 NA
ATOM     10 CL   UNL     1       4.040  -6.818   5.504  0.00  0.00    -0.077 Cl
ENDROOT
BRANCH   5  11
ATOM     11  C   UNL     1       3.840 -12.314   6.576  0.00  0.00    +0.038 A 
ATOM     12  C   UNL     1       4.889 -12.064   7.425  0.00  0.00    +0.017 A 
ATOM     13  C   UNL     1       5.435 -13.112   8.127  0.00  0.00    +0.008 A 
ATOM     14  C   UNL     1       4.922 -14.360   7.961  0.00  0.00    +0.046 A 
ATOM     15  S   UNL     1       3.614 -14.073   6.781  0.00  0.00    -0.095 S 
ENDBRANCH   5  11
BRANCH   1  17
ATOM     16  N   UNL     1       0.699  -5.846   2.434  0.00  0.00    -0.274 N 
ATOM     17  C   UNL     1       1.681  -6.093   3.323  0.00  0.00    +0.270 C 
ATOM     18  O   UNL     1       2.388  -5.186   3.716  0.00  0.00    -0.268 OA
ATOM     19  H   UNL     1       0.135  -6.570   2.120  0.00  0.00    +0.156 HD
BRANCH  16  27
ATOM     20  C   UNL     1      -0.019   1.526   0.010  0.00  0.00    +0.008 C 
ATOM     21  C   UNL     1       0.002  -0.004   0.002  0.00  0.00    -0.009 C 
ATOM     22  C   UNL     1      -1.434  -0.537   0.019  0.00  0.00    +0.008 C 
ATOM     23  C   UNL     1      -1.432  -2.045  -0.237  0.00  0.00    +0.037 C 
ATOM     24  C   UNL     1      -0.464  -2.704   0.735  0.00  0.00    -0.021 A 
ATOM     25  C   UNL     1       0.485  -1.986   1.374  0.00  0.00    -0.004 A 
ATOM     26  S   UNL     1       1.344  -3.167   2.373  0.00  0.00    -0.077 S 
ATOM     27  C   UNL     1       0.494  -4.558   1.968  0.00  0.00    +0.087 A 
ATOM     28  C   UNL     1      -0.459  -4.120   1.060  0.00  0.00    +0.091 A 
ATOM     29  C   UNL     1       0.739  -0.515   1.248  0.00  0.00    +0.046 C 
BRANCH  28  30
ATOM     30  C   UNL     1      -1.420  -5.045   0.457  0.00  0.00    +0.342 C 
ATOM     31  O   UNL     1      -1.147  -5.609  -0.586  0.00  0.00    -0.245 OA
BRANCH  30  32
ATOM     32  O   UNL     1      -2.607  -5.271   1.056  0.00  0.00    -0.464 OA
ATOM     33  C   UNL     1      -3.495  -6.186   0.411  0.00  0.00    +0.280 C 
ENDBRANCH  30  32
ENDBRANCH  28  30
ENDBRANCH  16  27
ENDBRANCH   1  17
BRANCH   7  34
ATOM     34  C   UNL     1       0.212 -11.449   3.274  0.00  0.00    +0.434 C 
ATOM     35  F   UNL     1       0.044 -12.828   3.441  0.00  0.00    -0.164 F 
ATOM     36  F   UNL     1      -0.965 -10.788   3.643  0.00  0.00    -0.164 F 
ATOM     37  F   UNL     1       0.500 -11.173   1.933  0.00  0.00    -0.164 F 
ENDBRANCH   7  34
TORSDOF 6
