REMARK  Name = ZINC01412631
REMARK  4 active torsions:
REMARK  status: ('A' for Active; 'I' for Inactive)
REMARK    1  A    between atoms: C_3  and  C_6
REMARK    2  A    between atoms: C_8  and  C_20
REMARK    3  A    between atoms: C_13  and  C_16
REMARK    4  A    between atoms: N_18  and  N_19
REMARK                            x       y       z     vdW  Elec       q    Type
REMARK                         _______ _______ _______ _____ _____    ______ ____
ROOT
ATOM      1  C   UNL     1      -2.301   2.135   2.719  0.00  0.00    +0.084 A 
ATOM      2  C   UNL     1      -2.045   2.925   1.618  0.00  0.00    +0.063 A 
ATOM      3  C   UNL     1      -0.682   2.831   1.338  0.00  0.00    +0.166 A 
ATOM      4  N   UNL     1      -0.124   2.038   2.217  0.00  0.00    -0.160 NA
ATOM      5  N   UNL     1      -1.109   1.581   3.101  0.00  0.00    -0.207 N 
ATOM      6  C   UNL     1      -0.912   0.718   4.175  0.00  0.00    +0.195 A 
ATOM      7  N   UNL     1      -0.313  -0.455   4.199  0.00  0.00    -0.216 NA
ATOM      8  C   UNL     1      -0.223  -1.131   5.345  0.00  0.00    +0.136 A 
ATOM      9  C   UNL     1      -0.771  -0.591   6.479  0.00  0.00    +0.081 A 
ATOM     10  S   UNL     1      -1.411   0.907   5.879  0.00  0.00    -0.055 S 
ENDROOT
BRANCH   1  13
ATOM     11  C   UNL     1      -5.872   2.280   3.953  0.00  0.00    +0.008 A 
ATOM     12  C   UNL     1      -4.758   2.668   3.242  0.00  0.00    +0.017 A 
ATOM     13  C   UNL     1      -3.608   1.931   3.366  0.00  0.00    +0.038 A 
ATOM     14  S   UNL     1      -4.112   0.654   4.508  0.00  0.00    -0.095 S 
ATOM     15  C   UNL     1      -5.799   1.184   4.752  0.00  0.00    +0.046 A 
ENDBRANCH   1  13
BRANCH   8  16
ATOM     16  C   UNL     1       0.448  -2.441   5.389  0.00  0.00    +0.276 C 
ATOM     17  O   UNL     1       0.520  -3.052   6.438  0.00  0.00    -0.267 OA
ATOM     18  N   UNL     1       0.983  -2.962   4.268  0.00  0.00    -0.248 N 
ATOM     19  H   UNL     1       0.926  -2.475   3.431  0.00  0.00    +0.169 HD
BRANCH  18  20
ATOM     20  N   UNL     1       1.606  -4.177   4.309  0.00  0.00    -0.254 NA
ATOM     21  H   UNL     1       1.955  -4.436   3.398  0.00  0.00    +0.140 HD
ATOM     22  H   UNL     1       2.347  -4.181   4.994  0.00  0.00    +0.140 HD
ENDBRANCH  18  20
ENDBRANCH   8  16
BRANCH   3  23
ATOM     23  C   UNL     1       0.033   3.533   0.212  0.00  0.00    +0.436 C 
ATOM     24  F   UNL     1       1.368   3.118   0.176  0.00  0.00    -0.164 F 
ATOM     25  F   UNL     1      -0.021   4.916   0.416  0.00  0.00    -0.164 F 
ATOM     26  F   UNL     1      -0.586   3.216  -1.002  0.00  0.00    -0.164 F 
ENDBRANCH   3  23
TORSDOF 4
