REMARK  Name = ZINC14016330
REMARK  7 active torsions:
REMARK  status: ('A' for Active; 'I' for Inactive)
REMARK    1  A    between atoms: C_1  and  C_2
REMARK    2  A    between atoms: C_2  and  C_3
REMARK    3  A    between atoms: C_2  and  C_4
REMARK    4  A    between atoms: C_7  and  C_10
REMARK    5  A    between atoms: C_16  and  C_18
REMARK    6  A    between atoms: N_23  and  S_25
REMARK    7  A    between atoms: S_25  and  C_28
REMARK                            x       y       z     vdW  Elec       q    Type
REMARK                         _______ _______ _______ _____ _____    ______ ____
ROOT
ATOM      1  C   UNL     1      -5.189  -4.842   6.577  0.00  0.00    +0.080 A 
ATOM      2  C   UNL     1      -5.992  -3.736   6.594  0.00  0.00    +0.076 A 
ATOM      3  S   UNL     1      -5.063  -2.636   5.533  0.00  0.00    -0.060 S 
ATOM      4  C   UNL     1      -3.715  -3.754   5.179  0.00  0.00    +0.165 A 
ATOM      5  N   UNL     1      -4.073  -4.824   5.865  0.00  0.00    -0.225 NA
ATOM      6  N   UNL     1      -2.590  -3.553   4.388  0.00  0.00    -0.264 N 
ATOM      7  C   UNL     1      -2.411  -2.374   3.759  0.00  0.00    +0.223 C 
ATOM      8  O   UNL     1      -3.231  -1.489   3.885  0.00  0.00    -0.275 OA
ATOM      9  H   UNL     1      -1.935  -4.261   4.287  0.00  0.00    +0.157 HD
ENDROOT
BRANCH   1  13
ATOM     10  C   UNL     1      -6.275  -8.315   8.776  0.00  0.00    -0.045 A 
ATOM     11  C   UNL     1      -5.104  -8.304   8.039  0.00  0.00    +0.004 A 
ATOM     12  C   UNL     1      -4.747  -7.180   7.323  0.00  0.00    +0.010 A 
ATOM     13  C   UNL     1      -5.568  -6.054   7.344  0.00  0.00    +0.001 A 
ATOM     14  C   UNL     1      -6.744  -6.069   8.093  0.00  0.00    +0.010 A 
ATOM     15  C   UNL     1      -7.093  -7.201   8.800  0.00  0.00    +0.004 A 
BRANCH  10  17
ATOM     16  C   UNL     1      -6.766  -9.196  11.042  0.00  0.00    +0.012 C 
ATOM     17  C   UNL     1      -6.659  -9.546   9.556  0.00  0.00    +0.013 C 
ATOM     18  C   UNL     1      -8.008 -10.066   9.056  0.00  0.00    +0.012 C 
ENDBRANCH  10  17
ENDBRANCH   1  13
BRANCH   7  19
ATOM     19  C   UNL     1      -1.192  -2.156   2.901  0.00  0.00    +0.091 C 
ATOM     20  C   UNL     1       0.069  -2.312   3.755  0.00  0.00    +0.015 C 
ATOM     21  C   UNL     1       1.308  -2.123   2.877  0.00  0.00    +0.018 C 
ATOM     22  C   UNL     1       1.298  -0.716   2.281  0.00  0.00    +0.109 C 
ATOM     23  N   UNL     1       0.024  -0.502   1.581  0.00  0.00    -0.176 NA
ATOM     24  C   UNL     1      -1.230  -0.745   2.307  0.00  0.00    +0.122 C 
BRANCH  23  25
ATOM     25  S   UNL     1       0.002  -0.004   0.002  0.00  0.00    +0.061 S 
ATOM     26  O   UNL     1      -1.243  -0.424  -0.539  0.00  0.00    -0.153 OA
ATOM     27  O   UNL     1       1.248  -0.390  -0.563  0.00  0.00    -0.153 OA
BRANCH  25  28
ATOM     28  C   UNL     1      -0.022   1.758   0.012  0.00  0.00    +0.106 A 
ATOM     29  C   UNL     1      -1.228   2.432   0.021  0.00  0.00    +0.030 A 
ATOM     30  C   UNL     1      -1.248   3.814   0.035  0.00  0.00    +0.022 A 
ATOM     31  C   UNL     1      -0.059   4.523   0.027  0.00  0.00    +0.041 A 
ATOM     32  C   UNL     1       1.148   3.847   0.012  0.00  0.00    +0.022 A 
ATOM     33  C   UNL     1       1.166   2.465   0.004  0.00  0.00    +0.030 A 
ATOM     34 CL   UNL     1      -0.083   6.258   0.036  0.00  0.00    -0.084 Cl
ENDBRANCH  25  28
ENDBRANCH  23  25
ENDBRANCH   7  19
TORSDOF 5
