REMARK  Name = ZINC36545451
REMARK  12 active torsions:
REMARK  status: ('A' for Active; 'I' for Inactive)
REMARK    1  A    between atoms: C_1  and  C_2
REMARK    2  A    between atoms: C_2  and  C_3
REMARK    3  A    between atoms: C_3  and  C_4
REMARK    4  A    between atoms: C_4  and  N_5
REMARK    5  A    between atoms: C_6  and  C_8
REMARK    6  A    between atoms: C_8  and  C_10
REMARK    7  A    between atoms: C_8  and  N_19
REMARK    8  A    between atoms: C_13  and  N_16
REMARK    9  A    between atoms: N_19  and  C_20
REMARK   10  A    between atoms: C_27  and  C_29
REMARK   11  A    between atoms: C_33  and  O_36
REMARK   12  A    between atoms: C_34  and  O_35
REMARK                            x       y       z     vdW  Elec       q    Type
REMARK                         _______ _______ _______ _____ _____    ______ ____
ROOT
ATOM      1  N   UNL     1       2.723  -5.729   3.753  0.00  0.00    -0.250 N 
ATOM      2  C   UNL     1       4.006  -6.052   4.008  0.00  0.00    +0.255 C 
ATOM      3  O   UNL     1       4.866  -5.192   3.983  0.00  0.00    -0.269 OA
ENDROOT
BRANCH   1   4
ATOM      4  C   UNL     1       1.749  -6.732   3.685  0.00  0.00    +0.056 A 
ATOM      5  C   UNL     1       1.481  -7.359   2.475  0.00  0.00    +0.025 A 
ATOM      6  C   UNL     1       0.520  -8.349   2.411  0.00  0.00    +0.002 A 
ATOM      7  C   UNL     1      -0.176  -8.716   3.549  0.00  0.00    +0.002 A 
ATOM      8  C   UNL     1       0.088  -8.093   4.755  0.00  0.00    +0.022 A 
ATOM      9  C   UNL     1       1.053  -7.106   4.828  0.00  0.00    +0.062 A 
ATOM     10 CL   UNL     1       1.389  -6.330   6.343  0.00  0.00    -0.082 Cl
ENDBRANCH   1   4
BRANCH   2  11
ATOM     11  C   UNL     1       4.368  -7.449   4.315  0.00  0.00    +0.082 A 
ATOM     12  C   UNL     1       4.021  -8.475   3.432  0.00  0.00    +0.017 A 
ATOM     13  C   UNL     1       4.361  -9.778   3.722  0.00  0.00    +0.005 A 
ATOM     14  C   UNL     1       5.046 -10.080   4.888  0.00  0.00    +0.049 A 
ATOM     15  C   UNL     1       5.397  -9.074   5.772  0.00  0.00    +0.159 A 
ATOM     16  C   UNL     1       5.066  -7.752   5.490  0.00  0.00    +0.171 A 
BRANCH  16  17
ATOM     17  O   UNL     1       5.414  -6.763   6.352  0.00  0.00    -0.503 OA
ATOM     18  H   UNL     1       4.749  -6.580   7.030  0.00  0.00    +0.292 HD
ENDBRANCH  16  17
BRANCH  15  19
ATOM     19  O   UNL     1       6.070  -9.378   6.915  0.00  0.00    -0.503 OA
ATOM     20  H   UNL     1       7.032  -9.361   6.821  0.00  0.00    +0.292 HD
ENDBRANCH  15  19
ENDBRANCH   2  11
BRANCH   1  21
ATOM     21  C   UNL     1       2.346  -4.328   3.549  0.00  0.00    +0.197 C 
BRANCH  21  22
ATOM     22  C   UNL     1       1.223  -3.968   4.487  0.00  0.00    -0.018 A 
ATOM     23  C   UNL     1       1.388  -2.946   5.403  0.00  0.00    +0.008 A 
ATOM     24  C   UNL     1       0.357  -2.615   6.263  0.00  0.00    +0.033 A 
ATOM     25  C   UNL     1      -0.838  -3.306   6.207  0.00  0.00    +0.126 A 
ATOM     26  C   UNL     1      -1.004  -4.328   5.290  0.00  0.00    +0.033 A 
ATOM     27  C   UNL     1       0.025  -4.655   4.427  0.00  0.00    +0.008 A 
BRANCH  25  28
ATOM     28  N   UNL     1      -1.942  -2.953   7.128  0.00  0.00    +0.056 N 
ATOM     29  O   UNL     1      -1.797  -2.060   7.930  0.00  0.00    -0.126 OA
ATOM     30  O   UNL     1      -2.987  -3.558   7.079  0.00  0.00    -0.126 OA
ENDBRANCH  25  28
ENDBRANCH  21  22
BRANCH  21  32
ATOM     31  N   UNL     1       1.499  -2.913   1.706  0.00  0.00    -0.313 N 
ATOM     32  C   UNL     1       1.895  -4.132   2.125  0.00  0.00    +0.238 C 
ATOM     33  O   UNL     1       1.888  -5.070   1.356  0.00  0.00    -0.273 OA
ATOM     34  H   UNL     1       1.504  -2.163   2.321  0.00  0.00    +0.149 HD
BRANCH  31  35
ATOM     35  C   UNL     1       1.060  -2.723   0.321  0.00  0.00    +0.104 C 
BRANCH  35  36
ATOM     36  C   UNL     1       0.667  -1.259   0.108  0.00  0.00    +0.018 C 
BRANCH  36  38
ATOM     37  C   UNL     1      -0.184   0.404  -1.551  0.00  0.00    +0.004 C 
ATOM     38  C   UNL     1       0.208  -1.060  -1.338  0.00  0.00    -0.002 C 
ENDBRANCH  36  38
ENDBRANCH  35  36
ENDBRANCH  31  35
ENDBRANCH  21  32
ENDBRANCH   1  21
TORSDOF 11
