REMARK  Name = ZINC08964564
REMARK  12 active torsions:
REMARK  status: ('A' for Active; 'I' for Inactive)
REMARK    1  A    between atoms: C_1  and  C_2
REMARK    2  A    between atoms: C_2  and  C_44
REMARK    3  A    between atoms: C_4  and  C_9
REMARK    4  A    between atoms: C_9  and  C_11
REMARK    5  A    between atoms: C_9  and  N_14
REMARK    6  A    between atoms: C_11  and  C_12
REMARK    7  A    between atoms: C_15  and  C_17
REMARK    8  A    between atoms: C_17  and  O_18
REMARK    9  A    between atoms: O_18  and  N_19
REMARK   10  A    between atoms: C_23  and  C_43
REMARK   11  A    between atoms: C_28  and  C_42
REMARK   12  A    between atoms: C_39  and  O_41
REMARK                            x       y       z     vdW  Elec       q    Type
REMARK                         _______ _______ _______ _____ _____    ______ ____
ROOT
ATOM      1  N   UNL     1      -4.478   0.784   0.826  0.00  0.00    -0.089 NA
ATOM      2  C   UNL     1      -5.601   1.427   0.802  0.00  0.00    +0.080 C 
ATOM      3  C   UNL     1      -5.674   2.904   0.464  0.00  0.00    +0.059 C 
ATOM      4  C   UNL     1      -6.477   3.581   1.575  0.00  0.00    +0.017 C 
ATOM      5  C   UNL     1      -7.860   2.975   1.733  0.00  0.00    -0.007 C 
ATOM      6  C   UNL     1      -8.432   3.325   3.108  0.00  0.00    +0.002 C 
ATOM      7  C   UNL     1      -7.495   2.833   4.214  0.00  0.00    +0.005 C 
ATOM      8  C   UNL     1      -8.011   3.366   5.550  0.00  0.00    +0.010 C 
ATOM      9  C   UNL     1      -9.426   2.925   5.836  0.00  0.00    -0.003 C 
ATOM     10  C   UNL     1     -10.394   3.099   4.662  0.00  0.00    +0.001 C 
ATOM     11  C   UNL     1      -9.800   2.679   3.318  0.00  0.00    -0.003 C 
ATOM     12  C   UNL     1      -9.695   1.159   3.218  0.00  0.00    +0.008 C 
ATOM     13  C   UNL     1      -9.214   0.767   1.817  0.00  0.00    +0.031 C 
ATOM     14  C   UNL     1      -7.914   1.492   1.526  0.00  0.00    -0.062 C 
ATOM     15  C   UNL     1      -6.884   0.768   1.102  0.00  0.00    +0.026 C 
ATOM     16  C   UNL     1     -11.554   2.127   5.003  0.00  0.00    +0.007 C 
ATOM     17  C   UNL     1     -10.914   0.974   5.800  0.00  0.00    +0.032 C 
ATOM     18  C   UNL     1      -9.519   1.451   6.248  0.00  0.00    +0.121 C 
ATOM     19  C   UNL     1      -9.946   3.771   7.011  0.00  0.00    +0.014 C 
ATOM     20  C   UNL     1      -8.754   3.628   0.670  0.00  0.00    +0.016 C 
ENDROOT
BRANCH  18  21
ATOM     21  O   UNL     1      -9.396   1.334   7.669  0.00  0.00    -0.391 OA
ATOM     22  H   UNL     1      -9.447   0.424   7.994  0.00  0.00    +0.210 HD
ENDBRANCH  18  21
BRANCH   1  23
ATOM     23  O   UNL     1      -3.269   1.460   0.530  0.00  0.00    -0.384 OA
BRANCH  23  24
ATOM     24  C   UNL     1      -2.108   0.630   0.595  0.00  0.00    +0.358 C 
BRANCH  24  26
ATOM     25  N   UNL     1       0.332   0.870   0.263  0.00  0.00    -0.309 N 
ATOM     26  C   UNL     1      -0.886   1.448   0.264  0.00  0.00    +0.254 C 
ATOM     27  O   UNL     1      -0.999   2.626  -0.001  0.00  0.00    -0.272 OA
ATOM     28  H   UNL     1       0.415  -0.086   0.404  0.00  0.00    +0.149 HD
BRANCH  25  29
ATOM     29  C   UNL     1       1.529   1.685   0.041  0.00  0.00    +0.087 C 
BRANCH  29  33
ATOM     30  C   UNL     1       3.752  -0.239   4.083  0.00  0.00    +0.041 C 
ATOM     31  C   UNL     1       3.873  -0.018   2.574  0.00  0.00    +0.064 C 
ATOM     32  C   UNL     1       2.604   0.661   2.053  0.00  0.00    +0.040 C 
ATOM     33  C   UNL     1       2.759   0.935   0.554  0.00  0.00    +0.015 C 
ATOM     34  C   UNL     1       4.011   1.787   0.327  0.00  0.00    +0.033 C 
ATOM     35  C   UNL     1       5.225   1.063   0.914  0.00  0.00    +0.161 C 
ATOM     36  O   UNL     1       5.004   0.813   2.304  0.00  0.00    -0.374 OA
ATOM     37  C   UNL     1       4.053  -1.367   1.874  0.00  0.00    +0.041 C 
ENDBRANCH  29  33
BRANCH  29  38
ATOM     38  C   UNL     1       1.687   1.962  -1.455  0.00  0.00    +0.147 C 
BRANCH  38  39
ATOM     39  C   UNL     1       1.740   0.656  -2.205  0.00  0.00    +0.358 C 
ATOM     40  O   UNL     1       1.555  -0.385  -1.619  0.00  0.00    -0.246 OA
ATOM     41  O   UNL     1       1.991   0.648  -3.523  0.00  0.00    -0.246 OA
ENDBRANCH  38  39
ENDBRANCH  29  38
ENDBRANCH  25  29
ENDBRANCH  24  26
ENDBRANCH  23  24
ENDBRANCH   1  23
TORSDOF 8
