REMARK  Name = ZINC50886831
REMARK  9 active torsions:
REMARK  status: ('A' for Active; 'I' for Inactive)
REMARK    1  A    between atoms: C_1  and  C_2
REMARK    2  A    between atoms: C_2  and  C_3
REMARK    3  A    between atoms: C_3  and  C_4
REMARK    4  A    between atoms: C_4  and  C_5
REMARK    5  A    between atoms: C_5  and  C_7
REMARK    6  A    between atoms: C_5  and  N_8
REMARK    7  A    between atoms: N_8  and  S_9
REMARK    8  A    between atoms: S_9  and  C_12
REMARK    9  A    between atoms: C_13  and  N_20
REMARK                            x       y       z     vdW  Elec       q    Type
REMARK                         _______ _______ _______ _____ _____    ______ ____
ROOT
ATOM      1  S   UNL     1      -6.082  -1.479   1.335  0.00  0.00    +0.061 S 
ATOM      2  O   UNL     1      -6.829  -1.222   2.516  0.00  0.00    -0.153 OA
ATOM      3  O   UNL     1      -6.228  -0.699   0.156  0.00  0.00    -0.153 OA
ENDROOT
BRANCH   1   4
ATOM      4  C   UNL     1      -6.418  -3.148   0.879  0.00  0.00    +0.140 A 
ATOM      5  C   UNL     1      -6.367  -3.527  -0.456  0.00  0.00    +0.053 A 
ATOM      6  C   UNL     1      -6.632  -4.844  -0.811  0.00  0.00    +0.040 A 
ATOM      7  C   UNL     1      -6.947  -5.771   0.164  0.00  0.00    +0.021 A 
ATOM      8  C   UNL     1      -6.997  -5.390   1.492  0.00  0.00    +0.032 A 
ATOM      9  C   UNL     1      -6.728  -4.081   1.850  0.00  0.00    +0.047 A 
ATOM     10 BR   UNL     1      -6.790  -3.566   3.669  0.00  0.00    -0.048 Br
ATOM     11 BR   UNL     1      -7.308  -7.564  -0.319  0.00  0.00    -0.050 Br
BRANCH   5  12
ATOM     12  N   UNL     1      -6.050  -2.588  -1.439  0.00  0.00    -0.356 N 
ATOM     13  H   UNL     1      -5.503  -1.818  -1.216  0.00  0.00    +0.142 HD
ATOM     14  H   UNL     1      -6.375  -2.705  -2.345  0.00  0.00    +0.142 HD
ENDBRANCH   5  12
ENDBRANCH   1   4
BRANCH   1  15
ATOM     15  N   UNL     1      -4.483  -1.401   1.760  0.00  0.00    -0.187 NA
ATOM     16  H   UNL     1      -4.234  -1.191   2.673  0.00  0.00    +0.148 HD
BRANCH  15  17
ATOM     17  C   UNL     1      -3.445  -1.648   0.755  0.00  0.00    +0.073 C 
ATOM     18  C   UNL     1      -3.013  -3.114   0.819  0.00  0.00    +0.025 C 
BRANCH  17  19
ATOM     19  C   UNL     1      -2.240  -0.748   1.036  0.00  0.00    +0.020 C 
BRANCH  19  20
ATOM     20  C   UNL     1      -2.642   0.716   0.850  0.00  0.00    +0.001 C 
BRANCH  20  22
ATOM     21  C   UNL     1      -1.839   3.080   0.944  0.00  0.00    +0.004 C 
ATOM     22  C   UNL     1      -1.437   1.616   1.130  0.00  0.00    -0.003 C 
ENDBRANCH  20  22
ENDBRANCH  19  20
ENDBRANCH  17  19
ENDBRANCH  15  17
ENDBRANCH   1  15
TORSDOF 7
