REMARK  Name = ZINC02426632
REMARK  7 active torsions:
REMARK  status: ('A' for Active; 'I' for Inactive)
REMARK    1  A    between atoms: C_1  and  C_2
REMARK    2  A    between atoms: C_2  and  N_54
REMARK    3  A    between atoms: C_15  and  S_17
REMARK    4  A    between atoms: S_17  and  C_18
REMARK    5  A    between atoms: C_18  and  C_19
REMARK    6  A    between atoms: C_22  and  C_24
REMARK    7  A    between atoms: C_22  and  C_25
REMARK                            x       y       z     vdW  Elec       q    Type
REMARK                         _______ _______ _______ _____ _____    ______ ____
ROOT
ATOM      1  C   UNL     1       0.814   1.491  -0.250  0.00  0.00    -0.060 C 
ATOM      2  C   UNL     1       0.111   1.961  -1.526  0.00  0.00    +0.088 C 
ATOM      3  N   UNL     1      -0.806   3.062  -1.200  0.00  0.00    -0.318 N 
ATOM      4  C   UNL     1      -1.813   2.631  -0.220  0.00  0.00    +0.088 C 
ATOM      5  C   UNL     1      -1.110   2.162   1.056  0.00  0.00    -0.060 C 
ATOM      6  C   UNL     1      -1.407   3.560  -2.342  0.00  0.00    +0.134 A 
ATOM      7  C   UNL     1      -1.663   4.954  -2.470  0.00  0.00    +0.051 A 
ATOM      8  C   UNL     1      -1.363   6.031  -1.528  0.00  0.00    -0.020 A 
ATOM      9  C   UNL     1      -1.705   7.284  -1.897  0.00  0.00    +0.021 A 
ATOM     10  S   UNL     1      -2.432   7.110  -3.502  0.00  0.00    -0.071 S 
ATOM     11  C   UNL     1      -2.274   5.351  -3.677  0.00  0.00    +0.115 A 
ATOM     12  N   UNL     1      -2.592   4.476  -4.611  0.00  0.00    -0.215 NA
ATOM     13  C   UNL     1      -2.334   3.187  -4.435  0.00  0.00    +0.191 A 
ATOM     14  N   UNL     1      -1.755   2.746  -3.324  0.00  0.00    -0.206 NA
ATOM     15  C   UNL     1      -1.501   8.531  -1.094  0.00  0.00    +0.203 C 
ATOM     16  O   UNL     1      -1.176   8.143   0.251  0.00  0.00    -0.368 OA
ATOM     17  C   UNL     1      -0.156   7.143   0.325  0.00  0.00    +0.068 C 
ATOM     18  C   UNL     1      -0.698   5.800  -0.173  0.00  0.00    +0.071 C 
ATOM     19  C   UNL     1       1.032   7.564  -0.543  0.00  0.00    +0.041 C 
ATOM     20  C   UNL     1       0.304   6.995   1.777  0.00  0.00    +0.041 C 
ATOM     21  N   UNL     1      -0.207   1.041   0.718  0.00  0.00    +0.382 N 
ATOM     22  H   UNL     1      -0.758   0.285   0.295  0.00  0.00    -0.082 HD
ENDROOT
BRANCH  21  24
ATOM     23  C   UNL     1      -0.611   0.329   3.030  0.00  0.00    -0.017 C 
ATOM     24  C   UNL     1       0.446   0.532   1.943  0.00  0.00    -0.082 C 
ENDBRANCH  21  24
BRANCH  13  25
ATOM     25  S   UNL     1      -2.768   2.038  -5.698  0.00  0.00    -0.086 S 
BRANCH  25  26
ATOM     26  C   UNL     1      -3.490   3.167  -6.915  0.00  0.00    +0.074 C 
ATOM     27  C   UNL     1      -3.952   2.371  -8.137  0.00  0.00    +0.016 C 
ENDBRANCH  25  26
ENDBRANCH  13  25
TORSDOF 3
