REMARK  Name = ZINC02626457
REMARK  5 active torsions:
REMARK  status: ('A' for Active; 'I' for Inactive)
REMARK    1  A    between atoms: C_1  and  C_2
REMARK    2  A    between atoms: C_4  and  C_21
REMARK    3  A    between atoms: C_6  and  C_12
REMARK    4  A    between atoms: N_9  and  C_11
REMARK    5  A    between atoms: N_23  and  N_24
REMARK                            x       y       z     vdW  Elec       q    Type
REMARK                         _______ _______ _______ _____ _____    ______ ____
ROOT
ATOM      1  C   UNL     1      -0.247   2.205   0.094  0.00  0.00    +0.068 C 
ATOM      2  C   UNL     1      -0.035   0.726   0.288  0.00  0.00    +0.070 A 
ATOM      3  C   UNL     1       0.086  -0.230  -0.743  0.00  0.00    +0.054 A 
ATOM      4  C   UNL     1       0.055  -0.155  -2.155  0.00  0.00    +0.053 A 
ATOM      5  C   UNL     1       0.211  -1.335  -2.873  0.00  0.00    +0.042 A 
ATOM      6  C   UNL     1       0.392  -2.538  -2.183  0.00  0.00    +0.076 A 
ATOM      7  N   UNL     1       0.417  -2.576  -0.861  0.00  0.00    -0.227 NA
ATOM      8  C   UNL     1       0.273  -1.484  -0.126  0.00  0.00    +0.160 A 
ATOM      9  N   UNL     1       0.260  -1.254   1.226  0.00  0.00    -0.249 N 
ATOM     10  N   UNL     1       0.074   0.117   1.434  0.00  0.00    -0.174 NA
ATOM     11  C   UNL     1       0.418  -2.268   2.271  0.00  0.00    +0.174 C 
ENDROOT
BRANCH   6  12
ATOM     12  C   UNL     1       0.559  -3.796  -2.948  0.00  0.00    +0.022 A 
ATOM     13  C   UNL     1       0.541  -3.774  -4.342  0.00  0.00    +0.051 A 
ATOM     14  C   UNL     1       0.697  -4.949  -5.051  0.00  0.00    +0.142 A 
ATOM     15  C   UNL     1       0.871  -6.150  -4.378  0.00  0.00    +0.077 A 
ATOM     16  C   UNL     1       0.889  -6.176  -2.994  0.00  0.00    +0.043 A 
ATOM     17  C   UNL     1       0.740  -5.005  -2.277  0.00  0.00    +0.052 A 
ATOM     18 CL   UNL     1       0.770  -5.039  -0.541  0.00  0.00    -0.083 Cl
ATOM     19 CL   UNL     1       1.067  -7.624  -5.274  0.00  0.00    -0.081 Cl
ATOM     20  F   UNL     1       0.680  -4.930  -6.402  0.00  0.00    -0.204 F 
ENDBRANCH   6  12
BRANCH   4  21
ATOM     21  C   UNL     1      -0.139   1.137  -2.845  0.00  0.00    +0.262 C 
ATOM     22  O   UNL     1       0.429   2.134  -2.441  0.00  0.00    -0.268 OA
ATOM     23  N   UNL     1      -0.945   1.211  -3.923  0.00  0.00    -0.225 N 
ATOM     24  H   UNL     1      -1.398   0.416  -4.245  0.00  0.00    +0.175 HD
BRANCH  23  25
ATOM     25  N   UNL     1      -1.129   2.436  -4.577  0.00  0.00    -0.295 N 
ATOM     26  C   UNL     1      -0.237   2.864  -5.413  0.00  0.00    +0.085 C 
ATOM     27  C   UNL     1       0.945   1.975  -5.793  0.00  0.00    +0.070 C 
ATOM     28  C   UNL     1       0.753   1.570  -7.239  0.00  0.00    +0.007 C 
ATOM     29  C   UNL     1       1.358   2.559  -8.236  0.00  0.00    +0.002 C 
ATOM     30  C   UNL     1       1.088   4.020  -7.875  0.00  0.00    +0.019 C 
ATOM     31  C   UNL     1      -0.331   4.270  -7.412  0.00  0.00    +0.102 C 
ATOM     32  N   UNL     1      -0.351   4.077  -5.947  0.00  0.00    -0.333 N 
ATOM     33  H   UNL     1      -0.448   4.849  -5.367  0.00  0.00    +0.147 HD
ATOM     34  H   UNL     1      -1.925   2.964  -4.404  0.00  0.00    +0.185 HD
ENDBRANCH  23  25
ENDBRANCH   4  21
TORSDOF 3
