REMARK  Name = ZINC12537793
REMARK  6 active torsions:
REMARK  status: ('A' for Active; 'I' for Inactive)
REMARK    1  A    between atoms: C_1  and  C_2
REMARK    2  A    between atoms: C_2  and  C_4
REMARK    3  A    between atoms: C_2  and  O_7
REMARK    4  A    between atoms: O_7  and  C_8
REMARK    5  A    between atoms: C_8  and  C_10
REMARK    6  A    between atoms: C_15  and  N_16
REMARK                            x       y       z     vdW  Elec       q    Type
REMARK                         _______ _______ _______ _____ _____    ______ ____
ROOT
ATOM      1  C   UNL     1       1.245   2.125  -0.523  0.00  0.00    +0.342 C 
ATOM      2  O   UNL     1       2.243   1.457  -0.338  0.00  0.00    -0.245 OA
ENDROOT
BRANCH   1   3
ATOM      3  C   UNL     1       1.266   3.572  -0.246  0.00  0.00    +0.081 A 
ATOM      4  C   UNL     1       0.091   4.323  -0.339  0.00  0.00    +0.031 A 
ATOM      5  C   UNL     1       0.116   5.674  -0.073  0.00  0.00    +0.014 A 
ATOM      6  C   UNL     1       1.305   6.298   0.276  0.00  0.00    +0.016 A 
ATOM      7  C   UNL     1       2.474   5.572   0.366  0.00  0.00    +0.024 A 
ATOM      8  C   UNL     1       2.468   4.206   0.107  0.00  0.00    +0.039 A 
ATOM      9  I   UNL     1      -1.649   6.796  -0.205  0.00  0.00    -0.044 I 
BRANCH   8  10
ATOM     10  N   UNL     1       3.644   3.473   0.196  0.00  0.00    -0.357 N 
ATOM     11  H   UNL     1       3.730   2.634  -0.282  0.00  0.00    +0.142 HD
ATOM     12  H   UNL     1       4.380   3.801   0.738  0.00  0.00    +0.142 HD
ENDBRANCH   8  10
ENDBRANCH   1   3
BRANCH   1  13
ATOM     13  O   UNL     1       0.120   1.543  -0.982  0.00  0.00    -0.449 OA
BRANCH  13  15
ATOM     14  C   UNL     1      -0.231  -0.642   0.035  0.00  0.00    +0.062 C 
ATOM     15  C   UNL     1       0.172   0.114  -1.233  0.00  0.00    +0.259 C 
BRANCH  15  16
ATOM     16  C   UNL     1      -0.778  -0.235  -2.349  0.00  0.00    +0.251 C 
ATOM     17  O   UNL     1      -1.435   0.635  -2.881  0.00  0.00    -0.272 OA
ATOM     18  N   UNL     1      -0.898  -1.514  -2.757  0.00  0.00    -0.326 N 
ATOM     19  H   UNL     1      -0.373  -2.210  -2.331  0.00  0.00    +0.145 HD
ATOM     20  H   UNL     1      -1.510  -1.739  -3.475  0.00  0.00    +0.145 HD
ENDBRANCH  15  16
ENDBRANCH  13  15
ENDBRANCH   1  13
TORSDOF 5
