REMARK  Name = ZINC21230358
REMARK  7 active torsions:
REMARK  status: ('A' for Active; 'I' for Inactive)
REMARK    1  A    between atoms: C_1  and  C_2
REMARK    2  A    between atoms: C_2  and  C_3
REMARK    3  A    between atoms: C_2  and  C_4
REMARK    4  A    between atoms: C_4  and  C_6
REMARK    5  A    between atoms: C_4  and  S_12
REMARK    6  A    between atoms: S_12  and  C_13
REMARK    7  A    between atoms: N_23  and  C_24
REMARK                            x       y       z     vdW  Elec       q    Type
REMARK                         _______ _______ _______ _____ _____    ______ ____
ROOT
ATOM      1  C   UNL     1      -1.639   2.038  -1.389  0.00  0.00    +0.177 A 
ATOM      2  N   UNL     1      -0.986   2.483  -0.344  0.00  0.00    -0.223 NA
ATOM      3  C   UNL     1      -1.247   3.698   0.191  0.00  0.00    +0.079 A 
ATOM      4  C   UNL     1      -0.551   4.175   1.305  0.00  0.00    +0.028 A 
ATOM      5  C   UNL     1      -0.848   5.408   1.812  0.00  0.00    +0.002 A 
ATOM      6  C   UNL     1      -1.833   6.199   1.235  0.00  0.00    +0.001 A 
ATOM      7  C   UNL     1      -2.532   5.761   0.145  0.00  0.00    +0.015 A 
ATOM      8  C   UNL     1      -2.250   4.506  -0.393  0.00  0.00    +0.065 A 
ATOM      9  C   UNL     1      -2.967   3.984  -1.564  0.00  0.00    +0.267 A 
ATOM     10  O   UNL     1      -3.840   4.634  -2.110  0.00  0.00    -0.267 OA
ATOM     11  N   UNL     1      -2.619   2.757  -2.016  0.00  0.00    -0.255 N 
ENDROOT
BRANCH  11  12
ATOM     12  C   UNL     1      -3.270   2.218  -3.133  0.00  0.00    +0.052 A 
ATOM     13  C   UNL     1      -2.731   2.387  -4.402  0.00  0.00    +0.026 A 
ATOM     14  C   UNL     1      -3.376   1.853  -5.500  0.00  0.00    +0.002 A 
ATOM     15  C   UNL     1      -4.556   1.151  -5.339  0.00  0.00    +0.000 A 
ATOM     16  C   UNL     1      -5.096   0.982  -4.077  0.00  0.00    +0.002 A 
ATOM     17  C   UNL     1      -4.453   1.508  -2.973  0.00  0.00    +0.026 A 
ENDBRANCH  11  12
BRANCH   1  18
ATOM     18  S   UNL     1      -1.233   0.444  -2.019  0.00  0.00    -0.074 S 
BRANCH  18  19
ATOM     19  C   UNL     1       0.108  -0.126  -0.939  0.00  0.00    +0.143 C 
BRANCH  19  20
ATOM     20  C   UNL     1      -0.418  -0.308   0.462  0.00  0.00    +0.234 C 
ATOM     21  O   UNL     1      -1.597  -0.526   0.643  0.00  0.00    -0.274 OA
ATOM     22  N   UNL     1       0.422  -0.229   1.513  0.00  0.00    -0.239 N 
ATOM     23  C   UNL     1      -0.048  -0.392   2.765  0.00  0.00    +0.303 C 
ATOM     24  O   UNL     1      -1.230  -0.610   2.947  0.00  0.00    -0.253 OA
ATOM     25  N   UNL     1       0.792  -0.312   3.816  0.00  0.00    -0.313 N 
ATOM     26  H   UNL     1       1.365  -0.054   1.368  0.00  0.00    +0.159 HD
ATOM     27  H   UNL     1       1.735  -0.138   3.671  0.00  0.00    +0.146 HD
ATOM     28  H   UNL     1       0.453  -0.429   4.718  0.00  0.00    +0.146 HD
ENDBRANCH  19  20
BRANCH  19  30
ATOM     29  C   UNL     1       1.197  -1.271  -2.874  0.00  0.00    +0.009 C 
ATOM     30  C   UNL     1       0.649  -1.460  -1.458  0.00  0.00    +0.005 C 
ATOM     31  C   UNL     1       1.770  -1.948  -0.538  0.00  0.00    +0.009 C 
ENDBRANCH  19  30
ENDBRANCH  18  19
ENDBRANCH   1  18
TORSDOF 5
