REMARK  Name = ZINC39400675
REMARK  9 active torsions:
REMARK  status: ('A' for Active; 'I' for Inactive)
REMARK    1  A    between atoms: C_1  and  O_2
REMARK    2  A    between atoms: O_2  and  C_3
REMARK    3  A    between atoms: C_6  and  C_9
REMARK    4  A    between atoms: C_13  and  C_15
REMARK    5  A    between atoms: C_15  and  N_16
REMARK    6  A    between atoms: C_19  and  C_22
REMARK    7  A    between atoms: C_22  and  C_29
REMARK    8  A    between atoms: C_29  and  C_30
REMARK    9  A    between atoms: C_30  and  C_31
REMARK                            x       y       z     vdW  Elec       q    Type
REMARK                         _______ _______ _______ _____ _____    ______ ____
ROOT
ATOM      1  N   UNL     1      -4.766  -6.210  -1.145  0.00  0.00    +0.380 N 
ATOM      2  C   UNL     1      -3.952  -6.720  -0.035  0.00  0.00    -0.078 C 
ATOM      3  C   UNL     1      -4.163  -8.229   0.106  0.00  0.00    -0.013 C 
ATOM      4  C   UNL     1      -3.745  -8.921  -1.195  0.00  0.00    +0.018 C 
ATOM      5  C   UNL     1      -4.548  -8.329  -2.357  0.00  0.00    -0.013 C 
ATOM      6  C   UNL     1      -4.323  -6.816  -2.407  0.00  0.00    -0.078 C 
ATOM      7  H   UNL     1      -5.735  -6.443  -0.984  0.00  0.00    -0.082 HD
ENDROOT
BRANCH   4   8
ATOM      8  C   UNL     1      -4.027 -10.421  -1.091  0.00  0.00    +0.115 C 
ATOM      9  C   UNL     1      -3.352 -11.007   0.134  0.00  0.00    +0.244 C 
ATOM     10  O   UNL     1      -2.163 -11.035   0.371  0.00  0.00    -0.273 OA
ATOM     11  N   UNL     1      -4.347 -11.488   0.904  0.00  0.00    -0.238 N 
ATOM     12  C   UNL     1      -5.545 -11.290   0.342  0.00  0.00    +0.307 C 
ATOM     13  O   UNL     1      -6.594 -11.638   0.848  0.00  0.00    -0.252 OA
ATOM     14  N   UNL     1      -5.459 -10.663  -0.845  0.00  0.00    -0.285 N 
ATOM     15  H   UNL     1      -4.212 -11.925   1.759  0.00  0.00    +0.159 HD
ATOM     16  H   UNL     1      -6.197 -10.418  -1.426  0.00  0.00    +0.151 HD
BRANCH   8  17
ATOM     17  C   UNL     1      -3.569 -11.143  -2.359  0.00  0.00    +0.040 C 
BRANCH  17  18
ATOM     18  C   UNL     1      -3.974 -12.617  -2.282  0.00  0.00    +0.038 C 
BRANCH  18  19
ATOM     19  C   UNL     1      -3.523 -13.328  -3.532  0.00  0.00    -0.047 A 
ATOM     20  C   UNL     1      -4.358 -13.390  -4.631  0.00  0.00    +0.003 A 
ATOM     21  C   UNL     1      -3.944 -14.042  -5.778  0.00  0.00    +0.000 A 
ATOM     22  C   UNL     1      -2.695 -14.632  -5.825  0.00  0.00    +0.000 A 
ATOM     23  C   UNL     1      -1.859 -14.569  -4.725  0.00  0.00    +0.000 A 
ATOM     24  C   UNL     1      -2.272 -13.913  -3.580  0.00  0.00    +0.003 A 
ENDBRANCH  18  19
ENDBRANCH  17  18
ENDBRANCH   8  17
ENDBRANCH   4   8
BRANCH   1  25
ATOM     25  C   UNL     1      -4.621  -4.751  -1.227  0.00  0.00    -0.063 C 
BRANCH  25  30
ATOM     26  C   UNL     1      -4.952  -2.614   0.037  0.00  0.00    +0.077 C 
ATOM     27  N   UNL     1      -6.134  -2.060   0.041  0.00  0.00    -0.153 NA
ATOM     28  N   UNL     1      -7.156  -3.003   0.050  0.00  0.00    -0.161 NA
ATOM     29  C   UNL     1      -6.709  -4.217   0.051  0.00  0.00    +0.115 C 
ATOM     30  C   UNL     1      -5.197  -4.110   0.037  0.00  0.00    +0.066 C 
BRANCH  26  34
ATOM     31  C   UNL     1      -1.199  -0.637   0.010  0.00  0.00    +0.120 A 
ATOM     32  C   UNL     1      -2.373   0.107   0.020  0.00  0.00    +0.046 A 
ATOM     33  C   UNL     1      -3.594  -0.530   0.028  0.00  0.00    +0.013 A 
ATOM     34  C   UNL     1      -3.651  -1.929   0.027  0.00  0.00    -0.001 A 
ATOM     35  C   UNL     1      -2.466  -2.672   0.017  0.00  0.00    +0.013 A 
ATOM     36  C   UNL     1      -1.250  -2.026   0.003  0.00  0.00    +0.046 A 
BRANCH  31  38
ATOM     37  C   UNL     1      -0.017   1.425   0.010  0.00  0.00    +0.277 C 
ATOM     38  O   UNL     1       0.002  -0.004   0.002  0.00  0.00    -0.495 OA
ENDBRANCH  31  38
ENDBRANCH  26  34
ENDBRANCH  25  30
ENDBRANCH   1  25
TORSDOF 8
