REMARK  Name = ZINC59250135
REMARK  8 active torsions:
REMARK  status: ('A' for Active; 'I' for Inactive)
REMARK    1  A    between atoms: C_1  and  C_2
REMARK    2  A    between atoms: C_4  and  C_20
REMARK    3  A    between atoms: C_5  and  C_19
REMARK    4  A    between atoms: N_6  and  C_7
REMARK    5  A    between atoms: C_9  and  C_16
REMARK    6  A    between atoms: C_11  and  C_13
REMARK    7  A    between atoms: N_21  and  C_22
REMARK    8  A    between atoms: C_25  and  O_28
REMARK                            x       y       z     vdW  Elec       q    Type
REMARK                         _______ _______ _______ _____ _____    ______ ____
ROOT
ATOM      1  C   UNL     1      -0.018   1.503   0.010  0.00  0.00    +0.064 C 
ATOM      2  C   UNL     1       0.002  -0.004   0.002  0.00  0.00    +0.022 A 
ATOM      3  C   UNL     1       0.008  -0.777  -1.098  0.00  0.00    +0.032 A 
ATOM      4  C   UNL     1       0.029  -2.169  -0.631  0.00  0.00    +0.014 A 
ATOM      5  C   UNL     1       0.034  -2.109   0.746  0.00  0.00    +0.030 A 
ATOM      6  N   UNL     1       0.023  -0.802   1.111  0.00  0.00    -0.317 N 
ATOM      7  C   UNL     1       0.054  -3.289   1.683  0.00  0.00    +0.064 C 
ENDROOT
BRANCH   6   8
ATOM      8  C   UNL     1       0.030  -0.338   2.434  0.00  0.00    +0.048 A 
ATOM      9  C   UNL     1       1.134  -0.568   3.242  0.00  0.00    +0.041 A 
ATOM     10  C   UNL     1       1.144  -0.107   4.561  0.00  0.00    +0.066 A 
ATOM     11  C   UNL     1       0.044   0.586   5.064  0.00  0.00    +0.030 A 
ATOM     12  C   UNL     1      -1.063   0.816   4.249  0.00  0.00    +0.066 A 
ATOM     13  C   UNL     1      -1.063   0.356   2.929  0.00  0.00    +0.041 A 
BRANCH  12  14
ATOM     14  C   UNL     1      -2.230   1.548   4.776  0.00  0.00    +0.387 C 
ATOM     15  O   UNL     1      -2.227   1.953   5.930  0.00  0.00    -0.241 OA
ATOM     16  O   UNL     1      -3.201   1.750   4.060  0.00  0.00    -0.241 OA
ENDBRANCH  12  14
BRANCH  10  17
ATOM     17  C   UNL     1       2.318  -0.354   5.420  0.00  0.00    +0.387 C 
ATOM     18  O   UNL     1       3.283  -0.963   4.978  0.00  0.00    -0.241 OA
ATOM     19  O   UNL     1       2.327   0.049   6.574  0.00  0.00    -0.241 OA
ENDBRANCH  10  17
ENDBRANCH   6   8
BRANCH   4  20
ATOM     20  C   UNL     1       0.041  -3.380  -1.464  0.00  0.00    +0.121 C 
ATOM     21  N   UNL     1       0.059  -4.557  -0.902  0.00  0.00    -0.255 NA
BRANCH  21  22
ATOM     22  C   UNL     1       0.070  -5.685  -1.677  0.00  0.00    +0.064 A 
ATOM     23  C   UNL     1      -0.783  -5.787  -2.778  0.00  0.00    +0.031 A 
ATOM     24  C   UNL     1      -0.769  -6.925  -3.556  0.00  0.00    +0.047 A 
ATOM     25  C   UNL     1       0.093  -7.969  -3.247  0.00  0.00    +0.117 A 
ATOM     26  C   UNL     1       0.944  -7.872  -2.153  0.00  0.00    +0.047 A 
ATOM     27  C   UNL     1       0.940  -6.735  -1.373  0.00  0.00    +0.031 A 
BRANCH  25  28
ATOM     28  O   UNL     1       0.104  -9.089  -4.016  0.00  0.00    -0.507 OA
ATOM     29  H   UNL     1       0.728  -9.054  -4.754  0.00  0.00    +0.292 HD
ENDBRANCH  25  28
ENDBRANCH  21  22
ENDBRANCH   4  20
TORSDOF 6
