REMARK  Name = ZINC13056601
REMARK  5 active torsions:
REMARK  status: ('A' for Active; 'I' for Inactive)
REMARK    1  A    between atoms: C_8  and  C_10
REMARK    2  A    between atoms: C_11  and  C_12
REMARK    3  A    between atoms: N_14  and  C_15
REMARK    4  A    between atoms: C_19  and  S_21
REMARK    5  A    between atoms: S_21  and  N_24
REMARK                            x       y       z     vdW  Elec       q    Type
REMARK                         _______ _______ _______ _____ _____    ______ ____
ROOT
ATOM      1  C   UNL     1       6.230  -7.521  -0.188  0.00  0.00    +0.036 A 
ATOM      2  C   UNL     1       5.199  -8.447  -0.285  0.00  0.00    +0.023 A 
ATOM      3  C   UNL     1       5.490  -9.793  -0.384  0.00  0.00    +0.004 A 
ATOM      4  C   UNL     1       6.806 -10.220  -0.388  0.00  0.00    +0.029 A 
ATOM      5  C   UNL     1       7.834  -9.301  -0.291  0.00  0.00    +0.114 A 
ATOM      6  C   UNL     1       7.550  -7.952  -0.197  0.00  0.00    +0.052 A 
ENDROOT
BRANCH   1   9
ATOM      7  C   UNL     1       6.745  -5.251  -0.676  0.00  0.00    +0.241 C 
ATOM      8  O   UNL     1       7.771  -5.613  -1.222  0.00  0.00    -0.270 OA
ATOM      9  N   UNL     1       5.939  -6.157  -0.088  0.00  0.00    -0.282 N 
ATOM     10  H   UNL     1       5.157  -5.863   0.405  0.00  0.00    +0.155 HD
BRANCH   7  12
ATOM     11  C   UNL     1       7.194  -2.923  -1.246  0.00  0.00    +0.040 C 
ATOM     12  C   UNL     1       6.387  -3.830  -0.657  0.00  0.00    +0.070 C 
BRANCH  11  20
ATOM     13  C   UNL     1       7.054   3.175  -1.978  0.00  0.00    +0.002 A 
ATOM     14  C   UNL     1       5.850   3.310  -1.297  0.00  0.00    +0.001 A 
ATOM     15  C   UNL     1       5.229   2.186  -0.787  0.00  0.00    +0.017 A 
ATOM     16  C   UNL     1       5.813   0.954  -0.962  0.00  0.00    +0.040 A 
ATOM     17  C   UNL     1       7.040   0.783  -1.651  0.00  0.00    +0.079 A 
ATOM     18  C   UNL     1       7.641   1.963  -2.157  0.00  0.00    +0.029 A 
ATOM     19  N   UNL     1       7.486  -0.475  -1.742  0.00  0.00    -0.240 NA
ATOM     20  C   UNL     1       6.835  -1.500  -1.228  0.00  0.00    +0.102 A 
ATOM     21  S   UNL     1       5.403  -0.712  -0.502  0.00  0.00    -0.068 S 
ENDBRANCH  11  20
ENDBRANCH   7  12
ENDBRANCH   1   9
BRANCH   5  22
ATOM     22  S   UNL     1       9.508  -9.850  -0.295  0.00  0.00    +0.100 S 
ATOM     23  O   UNL     1      10.268  -8.840   0.355  0.00  0.00    -0.146 OA
ATOM     24  O   UNL     1       9.495 -11.199   0.151  0.00  0.00    -0.146 OA
BRANCH  22  25
ATOM     25  N   UNL     1      10.011  -9.878  -1.873  0.00  0.00    -0.118 NA
ATOM     26  C   UNL     1      11.216 -10.248  -2.161  0.00  0.00    +0.117 C 
ATOM     27  C   UNL     1      12.175 -10.666  -1.049  0.00  0.00    +0.073 C 
ATOM     28  C   UNL     1      12.397 -12.157  -1.183  0.00  0.00    +0.008 C 
ATOM     29  C   UNL     1      13.550 -12.519  -2.120  0.00  0.00    +0.002 C 
ATOM     30  C   UNL     1      13.567 -11.684  -3.401  0.00  0.00    +0.019 C 
ATOM     31  C   UNL     1      12.194 -11.497  -4.010  0.00  0.00    +0.102 C 
ATOM     32  N   UNL     1      11.618 -10.272  -3.417  0.00  0.00    -0.331 N 
ATOM     33  H   UNL     1      11.535  -9.473  -3.961  0.00  0.00    +0.147 HD
ENDBRANCH  22  25
ENDBRANCH   5  22
TORSDOF 5
