REMARK  Name = ZINC64946178
REMARK  6 active torsions:
REMARK  status: ('A' for Active; 'I' for Inactive)
REMARK    1  A    between atoms: C_1  and  C_2
REMARK    2  A    between atoms: C_2  and  C_3
REMARK    3  A    between atoms: C_3  and  C_4
REMARK    4  A    between atoms: C_4  and  N_5
REMARK    5  A    between atoms: N_16  and  C_19
REMARK    6  A    between atoms: C_19  and  C_20
REMARK                            x       y       z     vdW  Elec       q    Type
REMARK                         _______ _______ _______ _____ _____    ______ ____
ROOT
ATOM      1  N   UNL     1      -2.787  -2.571   0.015  0.00  0.00    -0.276 N 
ATOM      2  C   UNL     1      -3.412  -2.805   1.188  0.00  0.00    +0.270 A 
ATOM      3  O   UNL     1      -2.836  -2.597   2.241  0.00  0.00    -0.266 OA
ATOM      4  C   UNL     1      -4.727  -3.290   1.189  0.00  0.00    +0.101 A 
ATOM      5  C   UNL     1      -5.422  -3.542   0.007  0.00  0.00    +0.074 A 
ATOM      6  C   UNL     1      -6.715  -4.018   0.207  0.00  0.00    +0.035 A 
ATOM      7  C   UNL     1      -7.176  -4.193   1.464  0.00  0.00    +0.048 A 
ATOM      8  S   UNL     1      -5.896  -3.726   2.448  0.00  0.00    -0.090 S 
ATOM      9  N   UNL     1      -4.738  -3.286  -1.196  0.00  0.00    -0.228 N 
ATOM     10  C   UNL     1      -3.451  -2.805  -1.182  0.00  0.00    +0.240 A 
ATOM     11  N   UNL     1      -3.055  -2.648  -2.417  0.00  0.00    -0.129 NA
ATOM     12  N   UNL     1      -4.106  -3.027  -3.262  0.00  0.00    -0.206 N 
ATOM     13  C   UNL     1      -5.131  -3.426  -2.478  0.00  0.00    +0.353 A 
ATOM     14  O   UNL     1      -6.217  -3.825  -2.860  0.00  0.00    -0.244 OA
ENDROOT
BRANCH   1  15
ATOM     15  C   UNL     1      -1.413  -2.063   0.004  0.00  0.00    +0.128 C 
BRANCH  15  16
ATOM     16  C   UNL     1      -1.433  -0.534   0.013  0.00  0.00    +0.021 C 
BRANCH  16  18
ATOM     17  C   UNL     1      -0.019   1.526   0.010  0.00  0.00    +0.004 C 
ATOM     18  C   UNL     1       0.002  -0.004   0.002  0.00  0.00    -0.002 C 
ENDBRANCH  16  18
ENDBRANCH  15  16
ENDBRANCH   1  15
BRANCH  12  19
ATOM     19  C   UNL     1      -4.091  -3.008  -4.727  0.00  0.00    +0.184 C 
BRANCH  19  20
ATOM     20  C   UNL     1      -4.577  -1.668  -5.217  0.00  0.00    -0.025 A 
ATOM     21  C   UNL     1      -5.924  -1.465  -5.453  0.00  0.00    +0.005 A 
ATOM     22  C   UNL     1      -6.370  -0.237  -5.902  0.00  0.00    +0.002 A 
ATOM     23  C   UNL     1      -5.470   0.790  -6.115  0.00  0.00    +0.020 A 
ATOM     24  C   UNL     1      -4.122   0.588  -5.879  0.00  0.00    +0.041 A 
ATOM     25  C   UNL     1      -3.676  -0.640  -5.424  0.00  0.00    +0.025 A 
ATOM     26 CL   UNL     1      -2.991   1.877  -6.147  0.00  0.00    -0.084 Cl
ENDBRANCH  19  20
ENDBRANCH  12  19
TORSDOF 5
