REMARK  Name = ZINC12329175
REMARK  8 active torsions:
REMARK  status: ('A' for Active; 'I' for Inactive)
REMARK    1  A    between atoms: C_1  and  C_2
REMARK    2  A    between atoms: C_8  and  O_33
REMARK    3  A    between atoms: C_17  and  C_18
REMARK    4  A    between atoms: C_17  and  N_63
REMARK    5  A    between atoms: C_18  and  C_20
REMARK    6  A    between atoms: C_18  and  O_32
REMARK    7  A    between atoms: C_21  and  C_31
REMARK    8  A    between atoms: C_28  and  C_30
REMARK                            x       y       z     vdW  Elec       q    Type
REMARK                         _______ _______ _______ _____ _____    ______ ____
ROOT
ATOM      1  C   UNL     1      -0.576   2.151   5.417  0.00  0.00    +0.044 C 
ATOM      2  C   UNL     1      -1.202   2.131   4.046  0.00  0.00    -0.050 A 
ATOM      3  C   UNL     1      -2.501   2.573   3.872  0.00  0.00    +0.007 A 
ATOM      4  C   UNL     1      -3.071   2.558   2.616  0.00  0.00    +0.046 A 
ATOM      5  C   UNL     1      -2.345   2.098   1.522  0.00  0.00    +0.127 A 
ATOM      6  C   UNL     1      -1.047   1.652   1.700  0.00  0.00    +0.023 A 
ATOM      7  C   UNL     1      -0.479   1.672   2.963  0.00  0.00    +0.013 A 
ATOM      8  C   UNL     1      -0.226   1.140   0.543  0.00  0.00    +0.152 C 
ATOM      9  C   UNL     1      -0.842   1.617  -0.775  0.00  0.00    +0.084 C 
ATOM     10  C   UNL     1      -2.346   1.329  -0.738  0.00  0.00    +0.110 C 
ATOM     11  O   UNL     1      -2.937   2.110   0.299  0.00  0.00    -0.485 OA
ATOM     12  C   UNL     1      -2.969   1.700  -2.085  0.00  0.00    +0.029 C 
ATOM     13  C   UNL     1      -4.459   1.350  -2.068  0.00  0.00    -0.075 C 
ATOM     14  C   UNL     1      -4.077  -0.453  -0.494  0.00  0.00    -0.075 C 
ATOM     15  C   UNL     1      -2.576  -0.158  -0.464  0.00  0.00    +0.029 C 
ATOM     16  N   UNL     1      -4.608  -0.101  -1.828  0.00  0.00    +0.382 N 
ATOM     17  H   UNL     1      -4.077  -0.613  -2.543  0.00  0.00    -0.082 HD
ENDROOT
BRANCH   8  18
ATOM     18  O   UNL     1       1.109   1.637   0.651  0.00  0.00    -0.387 OA
ATOM     19  H   UNL     1       1.563   1.372   1.463  0.00  0.00    +0.210 HD
ENDBRANCH   8  18
BRANCH  16  20
ATOM     20  C   UNL     1      -6.032  -0.484  -1.922  0.00  0.00    -0.042 C 
BRANCH  20  21
ATOM     21  C   UNL     1      -6.134  -2.011  -1.897  0.00  0.00    +0.130 C 
BRANCH  21  22
ATOM     22  C   UNL     1      -7.580  -2.419  -2.008  0.00  0.00    +0.007 A 
ATOM     23  C   UNL     1      -8.337  -2.384  -3.116  0.00  0.00    +0.019 A 
ATOM     24  N   UNL     1      -9.598  -2.834  -2.834  0.00  0.00    -0.358 N 
ATOM     25  H   UNL     1     -10.322  -2.903  -3.476  0.00  0.00    +0.166 HD
ATOM     26  C   UNL     1      -9.689  -3.169  -1.502  0.00  0.00    +0.047 A 
ATOM     27  C   UNL     1      -8.428  -2.924  -0.926  0.00  0.00    +0.005 A 
ATOM     28  C   UNL     1      -8.222  -3.177   0.431  0.00  0.00    +0.010 A 
ATOM     29  C   UNL     1      -9.247  -3.660   1.195  0.00  0.00    +0.004 A 
ATOM     30  C   UNL     1     -10.492  -3.903   0.632  0.00  0.00    -0.048 A 
ATOM     31  C   UNL     1     -10.717  -3.662  -0.706  0.00  0.00    +0.029 A 
ATOM     32  C   UNL     1     -11.608  -4.436   1.492  0.00  0.00    +0.044 C 
ATOM     33  C   UNL     1      -7.867  -1.922  -4.471  0.00  0.00    +0.063 C 
ENDBRANCH  21  22
BRANCH  21  34
ATOM     34  O   UNL     1      -5.400  -2.555  -2.996  0.00  0.00    -0.389 OA
ATOM     35  H   UNL     1      -5.713  -2.262  -3.862  0.00  0.00    +0.210 HD
ENDBRANCH  21  34
ENDBRANCH  20  21
ENDBRANCH  16  20
TORSDOF 5
