REMARK  Name = ZINC57383087
REMARK  5 active torsions:
REMARK  status: ('A' for Active; 'I' for Inactive)
REMARK    1  A    between atoms: C_1  and  C_2
REMARK    2  A    between atoms: C_2  and  C_4
REMARK    3  A    between atoms: C_2  and  N_14
REMARK    4  A    between atoms: C_15  and  C_17
REMARK    5  A    between atoms: C_17  and  N_18
REMARK                            x       y       z     vdW  Elec       q    Type
REMARK                         _______ _______ _______ _____ _____    ______ ____
ROOT
ATOM      1  N   UNL     1      -1.372  -0.511   0.012  0.00  0.00    -0.311 N 
ATOM      2  C   UNL     1      -2.029  -0.655   1.181  0.00  0.00    +0.227 C 
ATOM      3  O   UNL     1      -1.481  -0.365   2.224  0.00  0.00    -0.274 OA
ATOM      4  H   UNL     1      -1.810  -0.743  -0.822  0.00  0.00    +0.149 HD
ENDROOT
BRANCH   1   6
ATOM      5  C   UNL     1      -0.019   1.526   0.010  0.00  0.00    +0.028 C 
ATOM      6  C   UNL     1       0.002  -0.004   0.002  0.00  0.00    +0.076 C 
BRANCH   6   7
ATOM      7  C   UNL     1       0.718  -0.497  -1.257  0.00  0.00    -0.010 C 
ATOM      8  C   UNL     1       0.739  -2.027  -1.265  0.00  0.00    +0.012 C 
ATOM      9  C   UNL     1       1.455  -2.521  -2.524  0.00  0.00    -0.010 C 
ATOM     10  C   UNL     1       2.890  -1.991  -2.535  0.00  0.00    +0.007 C 
ATOM     11  C   UNL     1       2.870  -0.461  -2.526  0.00  0.00    -0.010 C 
ATOM     12  C   UNL     1       2.154   0.032  -1.268  0.00  0.00    +0.012 C 
ATOM     13  C   UNL     1       2.130   0.045  -3.766  0.00  0.00    +0.007 C 
ATOM     14  C   UNL     1       0.694  -0.484  -3.755  0.00  0.00    -0.010 C 
ATOM     15  C   UNL     1       0.715  -2.014  -3.764  0.00  0.00    +0.007 C 
ATOM     16  C   UNL     1      -0.022   0.009  -2.496  0.00  0.00    +0.012 C 
ENDBRANCH   6   7
ENDBRANCH   1   6
BRANCH   2  17
ATOM     17  C   UNL     1      -3.442  -1.177   1.191  0.00  0.00    +0.181 C 
BRANCH  17  18
ATOM     18  N   UNL     1      -3.930  -1.240   2.575  0.00  0.00    -0.284 NA
ATOM     19  C   UNL     1      -5.223  -1.940   2.647  0.00  0.00    +0.104 C 
ATOM     20  C   UNL     1      -5.533  -2.251   4.113  0.00  0.00    +0.119 C 
ATOM     21  N   UNL     1      -5.378  -1.046   4.923  0.00  0.00    -0.313 N 
ATOM     22  C   UNL     1      -4.694   0.025   4.509  0.00  0.00    +0.227 C 
ATOM     23  O   UNL     1      -4.589   0.973   5.259  0.00  0.00    -0.274 OA
ATOM     24  C   UNL     1      -4.050   0.104   3.154  0.00  0.00    +0.181 C 
ATOM     25  H   UNL     1      -5.790  -1.022   5.801  0.00  0.00    +0.149 HD
ENDBRANCH  17  18
ENDBRANCH   2  17
TORSDOF 4
