REMARK  Name = ZINC00865736
REMARK  6 active torsions:
REMARK  status: ('A' for Active; 'I' for Inactive)
REMARK    1  A    between atoms: C_1  and  C_2
REMARK    2  A    between atoms: C_2  and  C_3
REMARK    3  A    between atoms: C_2  and  N_4
REMARK    4  A    between atoms: C_5  and  C_7
REMARK    5  A    between atoms: C_12  and  C_23
REMARK    6  A    between atoms: C_15  and  C_18
REMARK                            x       y       z     vdW  Elec       q    Type
REMARK                         _______ _______ _______ _____ _____    ______ ____
ROOT
ATOM      1  C   UNL     1       0.766  -1.123   3.552  0.00  0.00    +0.149 A 
ATOM      2  C   UNL     1       0.199  -1.325   4.831  0.00  0.00    +0.078 A 
ATOM      3  C   UNL     1       1.176  -1.777   5.642  0.00  0.00    +0.119 A 
ATOM      4  N   UNL     1       2.329  -1.860   4.914  0.00  0.00    -0.238 N 
ATOM      5  N   UNL     1       2.044  -1.453   3.611  0.00  0.00    -0.164 NA
ATOM      6  C   UNL     1       3.609  -2.311   5.467  0.00  0.00    +0.215 C 
ATOM      7  C   UNL     1       3.559  -2.192   6.994  0.00  0.00    +0.063 C 
ATOM      8  C   UNL     1       2.284  -2.855   7.528  0.00  0.00    +0.111 C 
ATOM      9  N   UNL     1       1.117  -2.125   6.995  0.00  0.00    -0.322 N 
ATOM     10  H   UNL     1       0.355  -1.900   7.550  0.00  0.00    +0.148 HD
ENDROOT
BRANCH   8  11
ATOM     11  C   UNL     1       2.277  -2.798   9.034  0.00  0.00    +0.010 A 
ATOM     12  C   UNL     1       2.606  -3.764   9.926  0.00  0.00    +0.013 A 
ATOM     13  C   UNL     1       2.524  -3.485  11.277  0.00  0.00    +0.008 A 
ATOM     14  C   UNL     1       2.116  -2.253  11.670  0.00  0.00    +0.045 A 
ATOM     15  S   UNL     1       1.839  -1.440  10.106  0.00  0.00    -0.100 S 
ENDBRANCH   8  11
BRANCH   1  17
ATOM     16  N   UNL     1       0.711  -0.489   1.189  0.00  0.00    -0.308 N 
ATOM     17  C   UNL     1       0.051  -0.633   2.355  0.00  0.00    +0.264 C 
ATOM     18  O   UNL     1      -1.132  -0.361   2.423  0.00  0.00    -0.268 OA
ATOM     19  H   UNL     1       1.654  -0.707   1.135  0.00  0.00    +0.149 HD
BRANCH  16  21
ATOM     20  C   UNL     1      -0.019   1.526   0.010  0.00  0.00    +0.027 C 
ATOM     21  C   UNL     1       0.002  -0.004   0.002  0.00  0.00    +0.067 C 
ATOM     22  C   UNL     1       0.718  -0.497  -1.257  0.00  0.00    +0.027 C 
ENDBRANCH  16  21
ENDBRANCH   1  17
BRANCH   6  23
ATOM     23  C   UNL     1       4.740  -1.438   4.919  0.00  0.00    +0.412 C 
ATOM     24  F   UNL     1       4.519  -0.105   5.284  0.00  0.00    -0.168 F 
ATOM     25  F   UNL     1       5.961  -1.870   5.449  0.00  0.00    -0.168 F 
ATOM     26  F   UNL     1       4.774  -1.540   3.525  0.00  0.00    -0.168 F 
ENDBRANCH   6  23
TORSDOF 4
