REMARK  Name = ZINC58040769
REMARK  9 active torsions:
REMARK  status: ('A' for Active; 'I' for Inactive)
REMARK    1  A    between atoms: C_1  and  C_2
REMARK    2  A    between atoms: C_2  and  C_3
REMARK    3  A    between atoms: C_2  and  C_4
REMARK    4  A    between atoms: C_2  and  O_5
REMARK    5  A    between atoms: O_5  and  C_6
REMARK    6  A    between atoms: N_8  and  C_9
REMARK    7  A    between atoms: C_9  and  C_10
REMARK    8  A    between atoms: C_10  and  C_11
REMARK    9  A    between atoms: C_16  and  N_19
REMARK                            x       y       z     vdW  Elec       q    Type
REMARK                         _______ _______ _______ _____ _____    ______ ____
ROOT
ATOM      1  C   UNL     1       6.013  -0.232  -4.088  0.00  0.00    +0.217 C 
ATOM      2  O   UNL     1       6.547   0.471  -3.257  0.00  0.00    -0.276 OA
ATOM      3  N   UNL     1       6.701  -0.632  -5.176  0.00  0.00    -0.302 N 
ATOM      4  C   UNL     1       6.065  -1.478  -6.195  0.00  0.00    +0.106 C 
ATOM      5  C   UNL     1       6.934  -2.719  -6.418  0.00  0.00    +0.003 C 
ATOM      6  C   UNL     1       8.361  -2.284  -6.763  0.00  0.00    -0.072 C 
ATOM      7  C   UNL     1       8.948  -1.486  -5.597  0.00  0.00    +0.003 C 
ATOM      8  C   UNL     1       8.100  -0.225  -5.368  0.00  0.00    +0.106 C 
ENDROOT
BRANCH   6   9
ATOM      9  N   UNL     1       9.189  -3.472  -7.009  0.00  0.00    +0.380 N 
ATOM     10  H   UNL     1       8.802  -3.998  -7.778  0.00  0.00    -0.090 HD
ATOM     11  H   UNL     1      10.129  -3.185  -7.237  0.00  0.00    -0.090 HD
ATOM     12  H   UNL     1       9.204  -4.049  -6.181  0.00  0.00    -0.090 HD
ENDBRANCH   6   9
BRANCH   1  13
ATOM     13  C   UNL     1       4.579  -0.657  -3.906  0.00  0.00    +0.115 C 
BRANCH  13  14
ATOM     14  C   UNL     1       4.035  -0.071  -2.601  0.00  0.00    +0.116 C 
BRANCH  14  17
ATOM     15  C   UNL     1       1.952  -0.085  -1.337  0.00  0.00    +0.401 C 
ATOM     16  O   UNL     1       2.488   0.619  -0.503  0.00  0.00    -0.226 OA
ATOM     17  N   UNL     1       2.641  -0.485  -2.424  0.00  0.00    -0.281 N 
ATOM     18  H   UNL     1       2.213  -1.047  -3.089  0.00  0.00    +0.152 HD
BRANCH  15  19
ATOM     19  O   UNL     1       0.671  -0.465  -1.174  0.00  0.00    -0.445 OA
BRANCH  19  21
ATOM     20  C   UNL     1      -0.019   1.526   0.010  0.00  0.00    +0.055 C 
ATOM     21  C   UNL     1       0.002  -0.004   0.002  0.00  0.00    +0.107 C 
ATOM     22  C   UNL     1       0.742  -0.511   1.242  0.00  0.00    +0.055 C 
ATOM     23  C   UNL     1      -1.433  -0.534   0.013  0.00  0.00    +0.055 C 
ENDBRANCH  19  21
ENDBRANCH  15  19
ENDBRANCH  14  17
ENDBRANCH  13  14
ENDBRANCH   1  13
TORSDOF 6
