REMARK  Name = ZINC64888339
REMARK  12 active torsions:
REMARK  status: ('A' for Active; 'I' for Inactive)
REMARK    1  A    between atoms: C_1  and  C_2
REMARK    2  A    between atoms: C_2  and  N_3
REMARK    3  A    between atoms: N_3  and  C_4
REMARK    4  A    between atoms: C_6  and  C_11
REMARK    5  A    between atoms: C_9  and  C_10
REMARK    6  A    between atoms: C_12  and  C_14
REMARK    7  A    between atoms: C_14  and  C_15
REMARK    8  A    between atoms: C_15  and  C_16
REMARK    9  A    between atoms: C_18  and  C_21
REMARK   10  A    between atoms: N_24  and  C_36
REMARK   11  A    between atoms: N_27  and  C_29
REMARK   12  A    between atoms: C_32  and  C_35
REMARK                            x       y       z     vdW  Elec       q    Type
REMARK                         _______ _______ _______ _____ _____    ______ ____
ROOT
ATOM      1  C   UNL     1      -3.852   0.083  -2.002  0.00  0.00    +0.228 A 
ATOM      2  N   UNL     1      -4.384   1.071  -2.663  0.00  0.00    -0.190 NA
ATOM      3  C   UNL     1      -5.634   0.750  -3.044  0.00  0.00    +0.228 A 
ATOM      4  N   UNL     1      -5.904  -0.461  -2.619  0.00  0.00    -0.054 NA
ATOM      5  O   UNL     1      -4.744  -0.915  -1.938  0.00  0.00    -0.338 OA
ENDROOT
BRANCH   3   6
ATOM      6  C   UNL     1      -6.553   1.620  -3.816  0.00  0.00    +0.196 A 
ATOM      7  C   UNL     1      -7.905   1.155  -4.168  0.00  0.00    +0.286 A 
ATOM      8  O   UNL     1      -8.285   0.050  -3.830  0.00  0.00    -0.265 OA
ATOM      9  N   UNL     1      -8.717   1.972  -4.870  0.00  0.00    -0.261 N 
ATOM     10  C   UNL     1      -8.290   3.194  -5.241  0.00  0.00    +0.353 A 
ATOM     11  O   UNL     1      -9.033   3.919  -5.874  0.00  0.00    -0.244 OA
ATOM     12  N   UNL     1      -7.057   3.627  -4.923  0.00  0.00    -0.181 N 
ATOM     13  N   UNL     1      -6.177   2.821  -4.192  0.00  0.00    -0.153 NA
ATOM     14  C   UNL     1     -10.065   1.529  -5.231  0.00  0.00    +0.157 C 
BRANCH  12  15
ATOM     15  C   UNL     1      -6.651   4.904  -5.326  0.00  0.00    +0.071 A 
ATOM     16  C   UNL     1      -7.470   6.001  -5.094  0.00  0.00    +0.028 A 
ATOM     17  C   UNL     1      -7.065   7.260  -5.493  0.00  0.00    +0.005 A 
ATOM     18  C   UNL     1      -5.846   7.429  -6.122  0.00  0.00    -0.050 A 
ATOM     19  C   UNL     1      -5.027   6.338  -6.355  0.00  0.00    +0.005 A 
ATOM     20  C   UNL     1      -5.423   5.078  -5.954  0.00  0.00    +0.028 A 
ATOM     21  C   UNL     1      -5.407   8.804  -6.556  0.00  0.00    +0.044 C 
ENDBRANCH  12  15
ENDBRANCH   3   6
BRANCH   1  22
ATOM     22  C   UNL     1      -2.465   0.063  -1.413  0.00  0.00    +0.108 C 
BRANCH  22  23
ATOM     23  C   UNL     1      -2.512   0.597   0.020  0.00  0.00    +0.106 C 
BRANCH  23  25
ATOM     24  N   UNL     1      -0.922   1.006   1.870  0.00  0.00    -0.271 N 
ATOM     25  C   UNL     1      -1.125   0.578   0.609  0.00  0.00    +0.220 C 
ATOM     26  O   UNL     1      -0.191   0.176  -0.053  0.00  0.00    -0.275 OA
BRANCH  24  27
ATOM     27  C   UNL     1       0.366   0.988   2.417  0.00  0.00    +0.039 A 
ATOM     28  C   UNL     1       0.819  -0.138   3.093  0.00  0.00    +0.027 A 
ATOM     29  C   UNL     1       2.090  -0.152   3.632  0.00  0.00    -0.049 A 
ATOM     30  C   UNL     1       2.912   0.952   3.498  0.00  0.00    +0.004 A 
ATOM     31  C   UNL     1       2.464   2.074   2.826  0.00  0.00    +0.005 A 
ATOM     32  C   UNL     1       1.196   2.093   2.280  0.00  0.00    -0.029 A 
ATOM     33  C   UNL     1       0.710   3.314   1.542  0.00  0.00    +0.045 C 
ATOM     34  C   UNL     1       2.583  -1.373   4.366  0.00  0.00    +0.044 C 
ENDBRANCH  24  27
BRANCH  24  36
ATOM     35  C   UNL     1      -2.215   2.998   2.456  0.00  0.00    +0.025 C 
ATOM     36  C   UNL     1      -2.050   1.492   2.669  0.00  0.00    +0.110 C 
ENDBRANCH  24  36
ENDBRANCH  23  25
ENDBRANCH  22  23
ENDBRANCH   1  22
TORSDOF 7
