REMARK  Name = ZINC39595475
REMARK  11 active torsions:
REMARK  status: ('A' for Active; 'I' for Inactive)
REMARK    1  A    between atoms: C_1  and  C_2
REMARK    2  A    between atoms: C_2  and  C_3
REMARK    3  A    between atoms: C_3  and  C_4
REMARK    4  A    between atoms: C_4  and  C_6
REMARK    5  A    between atoms: C_4  and  C_7
REMARK    6  A    between atoms: C_11  and  C_20
REMARK    7  A    between atoms: N_22  and  C_23
REMARK    8  A    between atoms: C_23  and  C_24
REMARK    9  A    between atoms: C_24  and  C_26
REMARK   10  A    between atoms: C_24  and  O_27
REMARK   11  A    between atoms: O_27  and  C_28
REMARK                            x       y       z     vdW  Elec       q    Type
REMARK                         _______ _______ _______ _____ _____    ______ ____
ROOT
ATOM      1  C   UNL     1      -2.770  -2.568   0.126  0.00  0.00    +0.218 C 
ATOM      2  O   UNL     1      -3.692  -1.787   0.226  0.00  0.00    -0.275 OA
ATOM      3  N   UNL     1      -3.006  -3.895   0.149  0.00  0.00    -0.300 N 
ATOM      4  C   UNL     1      -2.017  -4.995   0.048  0.00  0.00    +0.121 C 
ATOM      5  C   UNL     1      -2.515  -6.060   1.051  0.00  0.00    +0.100 C 
ATOM      6  C   UNL     1      -4.021  -5.787   1.198  0.00  0.00    -0.004 C 
ATOM      7  C   UNL     1      -4.311  -4.584   0.289  0.00  0.00    +0.115 C 
ATOM      8  C   UNL     1      -4.355  -5.438   2.646  0.00  0.00    -0.010 C 
ATOM      9  C   UNL     1      -5.866  -5.227   2.779  0.00  0.00    -0.082 C 
ATOM     10  N   UNL     1      -6.571  -6.449   2.374  0.00  0.00    +0.379 N 
ATOM     11  C   UNL     1      -6.318  -6.726   0.955  0.00  0.00    -0.082 C 
ATOM     12  C   UNL     1      -4.826  -7.000   0.744  0.00  0.00    -0.010 C 
ATOM     13  H   UNL     1      -6.243  -7.224   2.930  0.00  0.00    -0.086 HD
ATOM     14  H   UNL     1      -7.562  -6.328   2.520  0.00  0.00    -0.086 HD
ENDROOT
BRANCH   5  15
ATOM     15  C   UNL     1      -2.282  -7.445   0.503  0.00  0.00    +0.218 C 
ATOM     16  O   UNL     1      -2.378  -7.650  -0.688  0.00  0.00    -0.275 OA
ATOM     17  N   UNL     1      -1.967  -8.455   1.338  0.00  0.00    -0.312 N 
ATOM     18  H   UNL     1      -1.890  -8.291   2.291  0.00  0.00    +0.149 HD
BRANCH  17  19
ATOM     19  C   UNL     1      -1.740  -9.801   0.806  0.00  0.00    +0.148 C 
BRANCH  19  20
ATOM     20  C   UNL     1      -1.401 -10.753   1.954  0.00  0.00    +0.187 C 
ATOM     21  C   UNL     1      -1.164 -12.159   1.399  0.00  0.00    +0.053 C 
BRANCH  20  22
ATOM     22  O   UNL     1      -0.219 -10.298   2.617  0.00  0.00    -0.488 OA
BRANCH  22  23
ATOM     23  C   UNL     1      -0.057 -10.669   3.914  0.00  0.00    +0.121 A 
ATOM     24  C   UNL     1       1.003 -10.165   4.653  0.00  0.00    +0.048 A 
ATOM     25  C   UNL     1       1.167 -10.544   5.972  0.00  0.00    +0.042 A 
ATOM     26  C   UNL     1       0.274 -11.426   6.556  0.00  0.00    +0.124 A 
ATOM     27  C   UNL     1      -0.785 -11.930   5.819  0.00  0.00    +0.042 A 
ATOM     28  C   UNL     1      -0.955 -11.549   4.502  0.00  0.00    +0.048 A 
ATOM     29  F   UNL     1       0.435 -11.796   7.845  0.00  0.00    -0.205 F 
ENDBRANCH  22  23
ENDBRANCH  20  22
ENDBRANCH  19  20
ENDBRANCH  17  19
ENDBRANCH   5  15
BRANCH   1  30
ATOM     30  C   UNL     1      -1.361  -2.056  -0.025  0.00  0.00    +0.072 C 
ATOM     31  C   UNL     1      -0.774  -2.558  -1.345  0.00  0.00    +0.017 C 
BRANCH  30  32
ATOM     32  C   UNL     1      -1.372  -0.526  -0.021  0.00  0.00    +0.012 C 
BRANCH  32  34
ATOM     33  C   UNL     1       0.055   1.525  -0.045  0.00  0.00    +0.004 C 
ATOM     34  C   UNL     1       0.066  -0.005  -0.049  0.00  0.00    -0.003 C 
ENDBRANCH  32  34
ENDBRANCH  30  32
ENDBRANCH   1  30
TORSDOF 8
