REMARK  Name = ZINC39522410
REMARK  6 active torsions:
REMARK  status: ('A' for Active; 'I' for Inactive)
REMARK    1  A    between atoms: C_1  and  C_2
REMARK    2  A    between atoms: N_7  and  C_10
REMARK    3  A    between atoms: C_12  and  C_13
REMARK    4  A    between atoms: N_15  and  C_16
REMARK    5  A    between atoms: C_16  and  C_18
REMARK    6  A    between atoms: C_16  and  C_19
REMARK                            x       y       z     vdW  Elec       q    Type
REMARK                         _______ _______ _______ _____ _____    ______ ____
ROOT
ATOM      1  C   UNL     1      -0.018   1.503   0.010  0.00  0.00    +0.046 C 
ATOM      2  C   UNL     1       0.002  -0.004   0.002  0.00  0.00    -0.017 A 
ATOM      3  C   UNL     1       0.005  -0.697  -1.210  0.00  0.00    +0.076 A 
ATOM      4  C   UNL     1       0.025  -2.107  -1.113  0.00  0.00    +0.116 A 
ATOM      5  N   UNL     1       0.029  -2.884  -2.189  0.00  0.00    -0.230 NA
ATOM      6  C   UNL     1       0.015  -2.382  -3.395  0.00  0.00    +0.203 A 
ATOM      7  N   UNL     1      -0.004  -1.044  -3.614  0.00  0.00    -0.302 N 
ATOM      8  C   UNL     1      -0.009  -0.166  -2.592  0.00  0.00    +0.262 A 
ATOM      9  O   UNL     1      -0.027   1.034  -2.800  0.00  0.00    -0.267 OA
ATOM     10  C   UNL     1      -0.018  -0.543  -4.991  0.00  0.00    +0.153 C 
ATOM     11  S   UNL     1       0.038  -2.395   0.638  0.00  0.00    -0.064 S 
ATOM     12  C   UNL     1       0.023  -0.694   1.179  0.00  0.00    +0.079 A 
ENDROOT
BRANCH  12  13
ATOM     13  C   UNL     1       0.030  -0.168   2.547  0.00  0.00    +0.252 C 
ATOM     14  O   UNL     1       0.015   1.034   2.738  0.00  0.00    -0.270 OA
ATOM     15  N   UNL     1       0.051  -1.016   3.595  0.00  0.00    -0.301 N 
ATOM     16  H   UNL     1       0.063  -1.974   3.443  0.00  0.00    +0.150 HD
BRANCH  15  17
ATOM     17  C   UNL     1       0.058  -0.491   4.963  0.00  0.00    +0.136 C 
ATOM     18  C   UNL     1       1.495  -0.172   5.379  0.00  0.00    +0.036 C 
BRANCH  17  19
ATOM     19  C   UNL     1      -0.519  -1.522   5.899  0.00  0.00    +0.125 A 
ATOM     20  C   UNL     1      -1.348  -1.272   6.928  0.00  0.00    +0.046 A 
ATOM     21  C   UNL     1      -1.638  -2.517   7.532  0.00  0.00    +0.041 A 
ATOM     22  C   UNL     1      -0.970  -3.453   6.835  0.00  0.00    +0.195 A 
ATOM     23  O   UNL     1      -0.298  -2.845   5.843  0.00  0.00    -0.466 OA
ENDBRANCH  17  19
ENDBRANCH  15  17
ENDBRANCH  12  13
TORSDOF 3
