REMARK  Name = ZINC66968169
REMARK  11 active torsions:
REMARK  status: ('A' for Active; 'I' for Inactive)
REMARK    1  A    between atoms: C_1  and  C_2
REMARK    2  A    between atoms: C_2  and  C_3
REMARK    3  A    between atoms: C_3  and  N_4
REMARK    4  A    between atoms: C_10  and  N_13
REMARK    5  A    between atoms: N_13  and  C_14
REMARK    6  A    between atoms: C_14  and  C_16
REMARK    7  A    between atoms: C_14  and  C_17
REMARK    8  A    between atoms: N_19  and  C_20
REMARK    9  A    between atoms: C_20  and  C_21
REMARK   10  A    between atoms: C_21  and  C_23
REMARK   11  A    between atoms: C_21  and  C_24
REMARK                            x       y       z     vdW  Elec       q    Type
REMARK                         _______ _______ _______ _____ _____    ______ ____
ROOT
ATOM      1  N   UNL     1       2.008  -2.753  -5.457  0.00  0.00    -0.333 N 
ATOM      2  H   UNL     1       2.778  -2.648  -4.876  0.00  0.00    +0.147 HD
ENDROOT
BRANCH   1   9
ATOM      3  N   UNL     1       0.738  -1.966  -1.265  0.00  0.00    +0.385 N 
ATOM      4  C   UNL     1      -0.620  -2.503  -1.509  0.00  0.00    -0.042 C 
ATOM      5  C   UNL     1      -0.732  -2.663  -3.008  0.00  0.00    -0.061 A 
ATOM      6  C   UNL     1      -1.828  -2.812  -3.838  0.00  0.00    +0.002 A 
ATOM      7  C   UNL     1      -1.653  -2.942  -5.204  0.00  0.00    +0.002 A 
ATOM      8  C   UNL     1      -0.382  -2.922  -5.744  0.00  0.00    +0.023 A 
ATOM      9  C   UNL     1       0.721  -2.772  -4.914  0.00  0.00    +0.029 A 
ATOM     10  C   UNL     1       0.543  -2.643  -3.543  0.00  0.00    -0.042 A 
ATOM     11  C   UNL     1       1.530  -2.469  -2.411  0.00  0.00    -0.040 C 
ATOM     12  H   UNL     1       1.110  -2.320  -0.396  0.00  0.00    -0.081 HD
BRANCH   3  13
ATOM     13  C   UNL     1       0.718  -0.497  -1.257  0.00  0.00    -0.078 C 
BRANCH  13  15
ATOM     14  C   UNL     1      -0.019   1.526   0.010  0.00  0.00    +0.002 C 
ATOM     15  C   UNL     1       0.002  -0.004   0.002  0.00  0.00    -0.022 C 
ENDBRANCH  13  15
ENDBRANCH   3  13
ENDBRANCH   1   9
BRANCH   1  16
ATOM     16  C   UNL     1       2.195  -2.890  -6.904  0.00  0.00    +0.154 C 
ATOM     17  C   UNL     1       2.219  -4.374  -7.276  0.00  0.00    +0.038 C 
BRANCH  16  18
ATOM     18  C   UNL     1       3.499  -2.251  -7.305  0.00  0.00    +0.233 C 
ATOM     19  O   UNL     1       4.203  -1.731  -6.465  0.00  0.00    -0.274 OA
ATOM     20  N   UNL     1       3.882  -2.256  -8.597  0.00  0.00    -0.313 N 
ATOM     21  H   UNL     1       3.319  -2.671  -9.268  0.00  0.00    +0.149 HD
BRANCH  20  22
ATOM     22  C   UNL     1       5.150  -1.634  -8.987  0.00  0.00    +0.112 C 
BRANCH  22  23
ATOM     23  C   UNL     1       5.345  -1.777 -10.497  0.00  0.00    +0.033 C 
ATOM     24  C   UNL     1       4.262  -0.982 -11.229  0.00  0.00    +0.014 C 
BRANCH  23  25
ATOM     25  C   UNL     1       6.703  -1.248 -10.881  0.00  0.00    -0.043 A 
ATOM     26  C   UNL     1       7.030   0.070 -10.621  0.00  0.00    +0.004 A 
ATOM     27  C   UNL     1       8.275   0.556 -10.973  0.00  0.00    +0.000 A 
ATOM     28  C   UNL     1       9.194  -0.277 -11.585  0.00  0.00    +0.000 A 
ATOM     29  C   UNL     1       8.868  -1.595 -11.844  0.00  0.00    +0.000 A 
ATOM     30  C   UNL     1       7.624  -2.081 -11.488  0.00  0.00    +0.004 A 
ENDBRANCH  23  25
ENDBRANCH  22  23
ENDBRANCH  20  22
ENDBRANCH  16  18
ENDBRANCH   1  16
TORSDOF 8
