REMARK  Name = ZINC10233134
REMARK  10 active torsions:
REMARK  status: ('A' for Active; 'I' for Inactive)
REMARK    1  A    between atoms: C_1  and  C_2
REMARK    2  A    between atoms: C_5  and  C_8
REMARK    3  A    between atoms: C_15  and  C_30
REMARK    4  A    between atoms: C_16  and  C_29
REMARK    5  A    between atoms: N_23  and  C_24
REMARK    6  A    between atoms: C_24  and  C_25
REMARK    7  A    between atoms: C_25  and  C_26
REMARK    8  A    between atoms: C_26  and  N_58
REMARK    9  A    between atoms: C_27  and  N_58
REMARK   10  A    between atoms: C_28  and  N_58
REMARK                            x       y       z     vdW  Elec       q    Type
REMARK                         _______ _______ _______ _____ _____    ______ ____
ROOT
ATOM      1  C   UNL     1       0.002  -0.004   0.002  0.00  0.00    +0.144 C 
ATOM      2  C   UNL     1      -0.306  -0.535   1.378  0.00  0.00    +0.072 A 
ATOM      3  C   UNL     1       0.362  -0.383   2.674  0.00  0.00    +0.199 A 
ATOM      4  O   UNL     1       1.377   0.280   2.796  0.00  0.00    -0.287 OA
ATOM      5  C   UNL     1      -0.257  -1.071   3.823  0.00  0.00    +0.065 A 
ATOM      6  C   UNL     1       0.293  -0.994   5.101  0.00  0.00    +0.019 A 
ATOM      7  C   UNL     1      -0.312  -1.647   6.139  0.00  0.00    -0.047 A 
ATOM      8  C   UNL     1      -1.468  -2.385   5.925  0.00  0.00    -0.044 A 
ATOM      9  C   UNL     1      -2.026  -2.472   4.668  0.00  0.00    +0.050 A 
ATOM     10  C   UNL     1      -1.428  -1.816   3.596  0.00  0.00    +0.140 A 
ATOM     11  O   UNL     1      -1.960  -1.891   2.363  0.00  0.00    -0.450 OA
ATOM     12  C   UNL     1      -1.434  -1.281   1.284  0.00  0.00    +0.199 A 
ATOM     13  C   UNL     1      -1.890  -1.262  -0.129  0.00  0.00    +0.283 C 
ATOM     14  O   UNL     1      -2.875  -1.835  -0.549  0.00  0.00    -0.267 OA
ATOM     15  N   UNL     1      -1.055  -0.519  -0.877  0.00  0.00    -0.284 N 
ATOM     16  C   UNL     1      -2.120  -3.098   7.081  0.00  0.00    +0.044 C 
ATOM     17  C   UNL     1       0.280  -1.566   7.523  0.00  0.00    +0.044 C 
ENDROOT
BRANCH   1  22
ATOM     18  C   UNL     1      -0.076   5.774   0.034  0.00  0.00    +0.044 C 
ATOM     19  C   UNL     1      -0.056   4.267   0.025  0.00  0.00    -0.050 A 
ATOM     20  C   UNL     1       1.151   3.592   0.010  0.00  0.00    +0.004 A 
ATOM     21  C   UNL     1       1.169   2.210   0.003  0.00  0.00    +0.006 A 
ATOM     22  C   UNL     1      -0.018   1.503   0.010  0.00  0.00    -0.022 A 
ATOM     23  C   UNL     1      -1.225   2.178   0.020  0.00  0.00    +0.006 A 
ATOM     24  C   UNL     1      -1.244   3.560   0.032  0.00  0.00    +0.004 A 
ENDBRANCH   1  22
BRANCH  15  25
ATOM     25  C   UNL     1      -1.179  -0.268  -2.314  0.00  0.00    +0.107 C 
BRANCH  25  26
ATOM     26  C   UNL     1      -0.425  -1.351  -3.088  0.00  0.00    +0.000 C 
BRANCH  26  27
ATOM     27  C   UNL     1      -0.554  -1.088  -4.590  0.00  0.00    -0.078 C 
BRANCH  27  30
ATOM     28  C   UNL     1      -0.462  -3.442  -5.152  0.00  0.00    -0.097 C 
ATOM     29  C   UNL     1       0.271  -1.784  -6.758  0.00  0.00    -0.097 C 
ATOM     30  N   UNL     1       0.197  -2.130  -5.323  0.00  0.00    +0.376 N 
ATOM     31  H   UNL     1       1.149  -2.183  -4.943  0.00  0.00    -0.083 HD
ENDBRANCH  27  30
ENDBRANCH  26  27
ENDBRANCH  25  26
ENDBRANCH  15  25
TORSDOF 5
