REMARK  Name = ZINC38652866
REMARK  8 active torsions:
REMARK  status: ('A' for Active; 'I' for Inactive)
REMARK    1  A    between atoms: C_1  and  C_2
REMARK    2  A    between atoms: C_5  and  O_32
REMARK    3  A    between atoms: C_16  and  O_31
REMARK    4  A    between atoms: C_19  and  C_30
REMARK    5  A    between atoms: C_24  and  C_25
REMARK    6  A    between atoms: C_24  and  O_29
REMARK    7  A    between atoms: C_25  and  C_27
REMARK    8  A    between atoms: C_27  and  O_28
REMARK                            x       y       z     vdW  Elec       q    Type
REMARK                         _______ _______ _______ _____ _____    ______ ____
ROOT
ATOM      1  C   UNL     1      -0.019   1.537   0.011  0.00  0.00    +0.012 C 
ATOM      2  C   UNL     1       0.002  -0.004   0.002  0.00  0.00    -0.024 C 
ATOM      3  C   UNL     1       0.662  -0.476  -1.184  0.00  0.00    +0.010 C 
ATOM      4  C   UNL     1       2.055   0.054  -1.313  0.00  0.00    +0.032 C 
ATOM      5  C   UNL     1       2.888  -0.345  -0.107  0.00  0.00    +0.115 C 
ATOM      6  C   UNL     1       2.231   0.039   1.155  0.00  0.00    +0.035 C 
ATOM      7  C   UNL     1       0.766  -0.389   1.286  0.00  0.00    -0.002 C 
ATOM      8  C   UNL     1       0.744  -1.880   1.512  0.00  0.00    +0.004 C 
ATOM      9  C   UNL     1      -0.683  -2.316   1.692  0.00  0.00    +0.004 C 
ATOM     10  C   UNL     1      -1.375  -1.963   0.388  0.00  0.00    -0.001 C 
ATOM     11  C   UNL     1      -1.458  -0.487   0.139  0.00  0.00    +0.027 C 
ATOM     12  C   UNL     1      -2.287  -0.232  -0.998  0.00  0.00    +0.119 C 
ATOM     13  C   UNL     1      -3.797  -0.561  -0.689  0.00  0.00    +0.041 C 
ATOM     14  C   UNL     1      -3.882  -1.657   0.320  0.00  0.00    +0.009 C 
ATOM     15  C   UNL     1      -2.706  -2.667   0.158  0.00  0.00    +0.002 C 
ATOM     16  C   UNL     1      -3.114  -3.815   1.068  0.00  0.00    +0.008 C 
ATOM     17  C   UNL     1      -4.647  -3.850   0.914  0.00  0.00    +0.043 C 
ATOM     18  C   UNL     1      -5.078  -2.578   0.158  0.00  0.00    +0.131 C 
ATOM     19  C   UNL     1      -4.027  -1.121   1.732  0.00  0.00    +0.015 C 
ENDROOT
BRANCH  18  20
ATOM     20  C   UNL     1      -5.360  -3.015  -1.283  0.00  0.00    +0.190 C 
ATOM     21  O   UNL     1      -4.452  -3.118  -2.071  0.00  0.00    -0.292 OA
BRANCH  20  22
ATOM     22  C   UNL     1      -6.772  -3.317  -1.716  0.00  0.00    +0.233 C 
BRANCH  22  23
ATOM     23  O   UNL     1      -6.776  -3.701  -3.092  0.00  0.00    -0.387 OA
ATOM     24  H   UNL     1      -7.654  -3.911  -3.439  0.00  0.00    +0.210 HD
ENDBRANCH  22  23
ENDBRANCH  20  22
ENDBRANCH  18  20
BRANCH  18  25
ATOM     25  O   UNL     1      -6.267  -1.979   0.781  0.00  0.00    -0.380 OA
ATOM     26  H   UNL     1      -7.064  -2.522   0.709  0.00  0.00    +0.211 HD
ENDBRANCH  18  25
BRANCH  12  27
ATOM     27  O   UNL     1      -2.268   1.165  -1.478  0.00  0.00    -0.391 OA
ATOM     28  H   UNL     1      -2.832   1.325  -2.247  0.00  0.00    +0.210 HD
ENDBRANCH  12  27
BRANCH   5  29
ATOM     29  O   UNL     1       3.155  -1.720  -0.110  0.00  0.00    -0.392 OA
ATOM     30  H   UNL     1       3.642  -2.024  -0.888  0.00  0.00    +0.210 HD
ENDBRANCH   5  29
TORSDOF 6
