REMARK  Name = ZINC14623579
REMARK  12 active torsions:
REMARK  status: ('A' for Active; 'I' for Inactive)
REMARK    1  A    between atoms: C_1  and  C_2
REMARK    2  A    between atoms: C_2  and  C_3
REMARK    3  A    between atoms: C_3  and  C_4
REMARK    4  A    between atoms: C_4  and  N_5
REMARK    5  A    between atoms: C_6  and  N_30
REMARK    6  A    between atoms: C_7  and  N_14
REMARK    7  A    between atoms: N_14  and  C_15
REMARK    8  A    between atoms: C_15  and  C_16
REMARK    9  A    between atoms: C_16  and  C_17
REMARK   10  A    between atoms: C_17  and  C_18
REMARK   11  A    between atoms: C_17  and  C_19
REMARK   12  A    between atoms: C_20  and  C_22
REMARK                            x       y       z     vdW  Elec       q    Type
REMARK                         _______ _______ _______ _____ _____    ______ ____
ROOT
ATOM      1  N   UNL     1       5.239   6.944  -1.106  0.00  0.00    -0.280 N 
ATOM      2  C   UNL     1       4.133   6.126  -1.091  0.00  0.00    +0.127 A 
ATOM      3  C   UNL     1       3.382   6.029   0.063  0.00  0.00    +0.140 A 
ATOM      4  C   UNL     1       3.770   6.777   1.190  0.00  0.00    +0.277 A 
ATOM      5  O   UNL     1       3.122   6.714   2.221  0.00  0.00    -0.266 OA
ATOM      6  N   UNL     1       4.865   7.559   1.124  0.00  0.00    -0.273 N 
ATOM      7  H   UNL     1       5.147   8.085   1.927  0.00  0.00    +0.173 HD
ATOM      8  C   UNL     1       5.585   7.641  -0.009  0.00  0.00    +0.331 A 
ATOM      9  O   UNL     1       6.566   8.358  -0.042  0.00  0.00    -0.246 OA
ENDROOT
BRANCH   3  10
ATOM     10  N   UNL     1       2.243   5.200   0.110  0.00  0.00    -0.260 N 
ATOM     11  C   UNL     1       2.366   3.873  -0.093  0.00  0.00    +0.252 C 
ATOM     12  O   UNL     1       1.386   3.155  -0.031  0.00  0.00    -0.270 OA
BRANCH  11  13
ATOM     13  C   UNL     1       3.691   3.291  -0.390  0.00  0.00    +0.057 A 
ATOM     14  C   UNL     1       4.846   3.871   0.138  0.00  0.00    +0.029 A 
ATOM     15  C   UNL     1       6.081   3.323  -0.144  0.00  0.00    +0.019 A 
ATOM     16  C   UNL     1       6.175   2.196  -0.944  0.00  0.00    +0.017 A 
ATOM     17  C   UNL     1       5.036   1.620  -1.475  0.00  0.00    +0.022 A 
ATOM     18  C   UNL     1       3.794   2.158  -1.201  0.00  0.00    +0.053 A 
ATOM     19 CL   UNL     1       2.364   1.429  -1.863  0.00  0.00    -0.083 Cl
ATOM     20 BR   UNL     1       7.646   4.107   0.570  0.00  0.00    -0.050 Br
ENDBRANCH  11  13
BRANCH  10  21
ATOM     21  C   UNL     1       0.925   5.780   0.379  0.00  0.00    +0.114 C 
BRANCH  21  22
ATOM     22  C   UNL     1       0.586   5.611   1.861  0.00  0.00    +0.022 C 
BRANCH  22  23
ATOM     23  C   UNL     1      -0.842   6.097   2.117  0.00  0.00    -0.016 C 
ATOM     24  C   UNL     1      -1.225   5.813   3.571  0.00  0.00    +0.007 C 
ATOM     25  C   UNL     1      -0.924   7.602   1.852  0.00  0.00    +0.007 C 
ENDBRANCH  22  23
ENDBRANCH  21  22
ENDBRANCH  10  21
ENDBRANCH   3  10
BRANCH   2  26
ATOM     26  N   UNL     1       3.780   5.413  -2.212  0.00  0.00    -0.343 N 
ATOM     27  H   UNL     1       2.949   4.913  -2.227  0.00  0.00    +0.144 HD
ATOM     28  H   UNL     1       4.362   5.410  -2.988  0.00  0.00    +0.144 HD
ENDBRANCH   2  26
BRANCH   1  29
ATOM     29  C   UNL     1       6.045   7.056  -2.325  0.00  0.00    +0.128 C 
BRANCH  29  30
ATOM     30  C   UNL     1       5.505   8.197  -3.189  0.00  0.00    +0.021 C 
BRANCH  30  32
ATOM     31  C   UNL     1       5.806   9.455  -5.327  0.00  0.00    +0.004 C 
ATOM     32  C   UNL     1       6.346   8.315  -4.462  0.00  0.00    -0.002 C 
ENDBRANCH  30  32
ENDBRANCH  29  30
ENDBRANCH   1  29
TORSDOF 9
