REMARK  Name = ZINC66930974
REMARK  6 active torsions:
REMARK  status: ('A' for Active; 'I' for Inactive)
REMARK    1  A    between atoms: C_10  and  C_11
REMARK    2  A    between atoms: C_10  and  O_25
REMARK    3  A    between atoms: C_11  and  N_12
REMARK    4  A    between atoms: C_13  and  C_15
REMARK    5  A    between atoms: C_18  and  N_24
REMARK    6  A    between atoms: C_19  and  N_21
REMARK                            x       y       z     vdW  Elec       q    Type
REMARK                         _______ _______ _______ _____ _____    ______ ____
ROOT
ATOM      1  N   UNL     1       4.550   1.605   0.921  0.00  0.00    -0.308 N 
ATOM      2  C   UNL     1       5.361   2.485   1.542  0.00  0.00    +0.244 C 
ATOM      3  O   UNL     1       5.822   2.220   2.635  0.00  0.00    -0.270 OA
ATOM      4  H   UNL     1       4.183   1.817   0.049  0.00  0.00    +0.149 HD
ENDROOT
BRANCH   2   5
ATOM      5  C   UNL     1       5.691   3.768   0.894  0.00  0.00    +0.039 A 
ATOM      6  C   UNL     1       5.157   4.077  -0.361  0.00  0.00    +0.015 A 
ATOM      7  C   UNL     1       5.466   5.275  -0.963  0.00  0.00    +0.026 A 
ATOM      8  C   UNL     1       6.309   6.180  -0.324  0.00  0.00    +0.055 A 
ATOM      9  C   UNL     1       6.842   5.876   0.926  0.00  0.00    +0.147 A 
ATOM     10  C   UNL     1       6.532   4.682   1.536  0.00  0.00    +0.047 A 
BRANCH   9  11
ATOM     11  N   UNL     1       7.738   6.840   1.602  0.00  0.00    +0.058 N 
ATOM     12  O   UNL     1       8.686   6.441   2.238  0.00  0.00    -0.126 OA
ATOM     13  O   UNL     1       7.523   8.027   1.518  0.00  0.00    -0.126 OA
ENDBRANCH   9  11
BRANCH   8  14
ATOM     14  N   UNL     1       6.619   7.390  -0.934  0.00  0.00    -0.356 N 
ATOM     15  H   UNL     1       6.155   7.659  -1.742  0.00  0.00    +0.142 HD
ATOM     16  H   UNL     1       7.301   7.965  -0.553  0.00  0.00    +0.142 HD
ENDBRANCH   8  14
ENDBRANCH   2   5
BRANCH   1  17
ATOM     17  C   UNL     1       4.223   0.331   1.565  0.00  0.00    +0.144 C 
BRANCH  17  27
ATOM     18  C   UNL     1       2.619  -4.277   2.512  0.00  0.00    +0.000 A 
ATOM     19  C   UNL     1       2.542  -3.092   3.221  0.00  0.00    +0.000 A 
ATOM     20  C   UNL     1       2.800  -1.895   2.584  0.00  0.00    +0.007 A 
ATOM     21  C   UNL     1       3.139  -1.871   1.238  0.00  0.00    -0.011 A 
ATOM     22  C   UNL     1       3.221  -3.051   0.533  0.00  0.00    -0.041 A 
ATOM     23  C   UNL     1       2.957  -4.255   1.175  0.00  0.00    +0.004 A 
ATOM     24  C   UNL     1       3.598  -3.101  -0.924  0.00  0.00    +0.035 C 
ATOM     25  C   UNL     1       3.431  -1.727  -1.570  0.00  0.00    +0.008 C 
ATOM     26  C   UNL     1       4.165  -0.694  -0.707  0.00  0.00    +0.041 C 
ATOM     27  C   UNL     1       3.399  -0.529   0.604  0.00  0.00    +0.107 C 
BRANCH  27  28
ATOM     28  O   UNL     1       2.153   0.119   0.343  0.00  0.00    -0.382 OA
ATOM     29  H   UNL     1       1.617   0.273   1.133  0.00  0.00    +0.211 HD
ENDBRANCH  27  28
ENDBRANCH  17  27
ENDBRANCH   1  17
TORSDOF 6
