REMARK  Name = ZINC09504909
REMARK  3 active torsions:
REMARK  status: ('A' for Active; 'I' for Inactive)
REMARK    1  A    between atoms: C_12  and  C_14
REMARK    2  A    between atoms: N_17  and  S_20
REMARK    3  A    between atoms: S_20  and  C_23
REMARK                            x       y       z     vdW  Elec       q    Type
REMARK                         _______ _______ _______ _____ _____    ______ ____
ROOT
ATOM      1  C   UNL     1      -1.419  10.435  -6.882  0.00  0.00    +0.002 A 
ATOM      2  C   UNL     1      -0.524   9.442  -6.526  0.00  0.00    +0.017 A 
ATOM      3  C   UNL     1      -0.778   8.665  -5.424  0.00  0.00    +0.042 A 
ATOM      4  C   UNL     1      -1.929   8.833  -4.620  0.00  0.00    +0.094 A 
ATOM      5  C   UNL     1      -2.821   9.858  -5.013  0.00  0.00    +0.044 A 
ATOM      6  C   UNL     1      -2.559  10.629  -6.117  0.00  0.00    +0.017 A 
ATOM      7 BR   UNL     1      -4.392  10.167  -4.008  0.00  0.00    -0.048 Br
ATOM      8  N   UNL     1      -2.037   7.991  -3.569  0.00  0.00    -0.223 NA
ATOM      9  C   UNL     1      -1.136   7.074  -3.305  0.00  0.00    +0.165 A 
ATOM     10  S   UNL     1       0.058   7.325  -4.610  0.00  0.00    -0.052 S 
ATOM     11  N   UNL     1      -1.114   6.150  -2.273  0.00  0.00    -0.264 N 
ATOM     12  C   UNL     1      -0.090   5.280  -2.169  0.00  0.00    +0.222 C 
ATOM     13  O   UNL     1       0.812   5.306  -2.979  0.00  0.00    -0.275 OA
ATOM     14  H   UNL     1      -1.836   6.129  -1.625  0.00  0.00    +0.157 HD
ENDROOT
BRANCH  12  15
ATOM     15  C   UNL     1      -0.066   4.275  -1.046  0.00  0.00    +0.078 C 
ATOM     16  C   UNL     1       1.195   3.415  -1.159  0.00  0.00    +0.030 C 
ATOM     17  C   UNL     1       1.234   2.417   0.003  0.00  0.00    +0.110 C 
ATOM     18  N   UNL     1      -0.020   1.652   0.011  0.00  0.00    -0.176 NA
ATOM     19  C   UNL     1      -1.295   2.383   0.021  0.00  0.00    +0.110 C 
ATOM     20  C   UNL     1      -1.305   3.381  -1.136  0.00  0.00    +0.030 C 
BRANCH  18  21
ATOM     21  S   UNL     1       0.002  -0.004   0.002  0.00  0.00    +0.067 S 
ATOM     22  O   UNL     1      -1.243  -0.424  -0.539  0.00  0.00    -0.152 OA
ATOM     23  O   UNL     1       1.248  -0.390  -0.563  0.00  0.00    -0.152 OA
BRANCH  21  24
ATOM     24  C   UNL     1       0.025  -0.534   1.682  0.00  0.00    +0.143 A 
ATOM     25  C   UNL     1      -1.016  -0.800   2.508  0.00  0.00    +0.036 A 
ATOM     26  C   UNL     1      -0.758  -1.211   3.802  0.00  0.00    +0.010 A 
ATOM     27  C   UNL     1       0.529  -1.326   4.211  0.00  0.00    +0.047 A 
ATOM     28  S   UNL     1       1.427  -0.853   2.741  0.00  0.00    -0.077 S 
ENDBRANCH  21  24
ENDBRANCH  18  21
ENDBRANCH  12  15
TORSDOF 3
