REMARK  Name = ZINC21863246
REMARK  11 active torsions:
REMARK  status: ('A' for Active; 'I' for Inactive)
REMARK    1  A    between atoms: C_1  and  C_2
REMARK    2  A    between atoms: C_2  and  N_3
REMARK    3  A    between atoms: N_3  and  C_4
REMARK    4  A    between atoms: N_3  and  C_6
REMARK    5  A    between atoms: C_4  and  C_5
REMARK    6  A    between atoms: C_6  and  C_7
REMARK    7  A    between atoms: C_7  and  N_8
REMARK    8  A    between atoms: C_14  and  C_28
REMARK    9  A    between atoms: C_17  and  C_18
REMARK   10  A    between atoms: C_17  and  C_19
REMARK   11  A    between atoms: N_21  and  C_22
REMARK                            x       y       z     vdW  Elec       q    Type
REMARK                         _______ _______ _______ _____ _____    ______ ____
ROOT
ATOM      1  N   UNL     1      -1.123   0.513  -1.073  0.00  0.00    -0.282 N 
ATOM      2  C   UNL     1      -0.953   1.567  -1.905  0.00  0.00    +0.264 C 
ATOM      3  O   UNL     1      -0.000   2.319  -1.802  0.00  0.00    -0.268 OA
ATOM      4  C   UNL     1      -1.977   1.756  -2.938  0.00  0.00    +0.105 A 
ATOM      5  C   UNL     1      -2.013   2.590  -4.020  0.00  0.00    +0.033 A 
ATOM      6  C   UNL     1      -3.223   2.365  -4.679  0.00  0.00    +0.032 A 
ATOM      7  C   UNL     1      -3.914   1.393  -3.973  0.00  0.00    +0.085 A 
ATOM      8  N   UNL     1      -3.163   1.031  -2.904  0.00  0.00    -0.331 N 
ATOM      9  C   UNL     1      -3.447   0.071  -1.833  0.00  0.00    +0.157 C 
ATOM     10  C   UNL     1      -2.126  -0.515  -1.326  0.00  0.00    +0.128 C 
ATOM     11  C   UNL     1      -2.390  -1.279  -0.027  0.00  0.00    +0.043 C 
ENDROOT
BRANCH   7  12
ATOM     12  C   UNL     1      -5.234   0.849  -4.323  0.00  0.00    +0.151 A 
ATOM     13  C   UNL     1      -5.951   1.145  -5.444  0.00  0.00    +0.051 A 
ATOM     14  C   UNL     1      -7.143   0.402  -5.371  0.00  0.00    +0.042 A 
ATOM     15  C   UNL     1      -7.104  -0.297  -4.218  0.00  0.00    +0.196 A 
ATOM     16  O   UNL     1      -5.950  -0.025  -3.588  0.00  0.00    -0.461 OA
ENDBRANCH   7  12
BRANCH  10  17
ATOM     17  C   UNL     1      -1.587  -1.478  -2.353  0.00  0.00    +0.238 C 
ATOM     18  O   UNL     1      -1.865  -2.656  -2.284  0.00  0.00    -0.273 OA
ATOM     19  N   UNL     1      -0.797  -1.029  -3.348  0.00  0.00    -0.311 N 
ATOM     20  H   UNL     1      -0.545   0.040  -3.411  0.00  0.00    +0.149 HD
BRANCH  19  21
ATOM     21  C   UNL     1      -0.274  -1.965  -4.347  0.00  0.00    +0.073 C 
ATOM     22  C   UNL     1       1.008  -2.610  -3.818  0.00  0.00    +0.022 C 
ATOM     23  C   UNL     1       1.554  -3.587  -4.861  0.00  0.00    +0.002 C 
ATOM     24  C   UNL     1       1.860  -2.833  -6.157  0.00  0.00    +0.000 C 
ATOM     25  C   UNL     1       0.577  -2.187  -6.685  0.00  0.00    +0.002 C 
ATOM     26  C   UNL     1       0.031  -1.210  -5.642  0.00  0.00    +0.022 C 
ENDBRANCH  19  21
ENDBRANCH  10  17
BRANCH   1  27
ATOM     27  C   UNL     1      -0.272   0.400   0.114  0.00  0.00    +0.091 C 
BRANCH  27  28
ATOM     28  C   UNL     1      -0.937   1.119   1.290  0.00  0.00    -0.060 C 
BRANCH  28  29
ATOM     29  N   UNL     1      -0.084   1.005   2.480  0.00  0.00    +0.380 N 
ATOM     30  H   UNL     1       0.158  -0.059   2.622  0.00  0.00    -0.082 HD
BRANCH  29  32
ATOM     31  C   UNL     1       0.882   3.218   2.070  0.00  0.00    -0.017 C 
ATOM     32  C   UNL     1       1.178   1.733   2.294  0.00  0.00    -0.082 C 
ENDBRANCH  29  32
BRANCH  29  33
ATOM     33  C   UNL     1      -0.789   1.472   3.680  0.00  0.00    -0.082 C 
ATOM     34  C   UNL     1      -0.048   0.988   4.928  0.00  0.00    -0.017 C 
ENDBRANCH  29  33
ENDBRANCH  28  29
ENDBRANCH  27  28
ENDBRANCH   1  27
TORSDOF 8
