REMARK  Name = ZINC37263998
REMARK  12 active torsions:
REMARK  status: ('A' for Active; 'I' for Inactive)
REMARK    1  A    between atoms: C_1  and  C_2
REMARK    2  A    between atoms: C_2  and  C_3
REMARK    3  A    between atoms: C_3  and  N_4
REMARK    4  A    between atoms: C_5  and  C_7
REMARK    5  A    between atoms: C_7  and  N_8
REMARK    6  A    between atoms: C_11  and  C_21
REMARK    7  A    between atoms: N_13  and  C_14
REMARK    8  A    between atoms: C_17  and  C_20
REMARK    9  A    between atoms: C_21  and  C_22
REMARK   10  A    between atoms: C_21  and  C_23
REMARK   11  A    between atoms: C_21  and  C_24
REMARK   12  A    between atoms: C_25  and  C_31
REMARK                            x       y       z     vdW  Elec       q    Type
REMARK                         _______ _______ _______ _____ _____    ______ ____
ROOT
ATOM      1  N   UNL     1      -2.592  -6.206  -4.875  0.00  0.00    -0.246 N 
ATOM      2  C   UNL     1      -1.769  -6.109  -6.007  0.00  0.00    +0.136 A 
ATOM      3  C   UNL     1      -0.908  -5.089  -6.228  0.00  0.00    +0.034 A 
ATOM      4  C   UNL     1      -0.259  -5.330  -7.439  0.00  0.00    +0.075 A 
ATOM      5  N   UNL     1      -0.716  -6.456  -7.933  0.00  0.00    -0.169 NA
ATOM      6  N   UNL     1      -1.677  -6.970  -7.048  0.00  0.00    -0.218 N 
ATOM      7  C   UNL     1      -0.714  -3.912  -5.306  0.00  0.00    +0.115 C 
ATOM      8  S   UNL     1       0.212  -4.472  -3.832  0.00  0.00    -0.138 S 
ATOM      9  C   UNL     1      -0.555  -6.094  -3.500  0.00  0.00    +0.166 C 
ATOM     10  C   UNL     1      -2.044  -6.016  -3.671  0.00  0.00    +0.231 C 
ATOM     11  O   UNL     1      -2.752  -5.785  -2.714  0.00  0.00    -0.274 OA
ENDROOT
BRANCH   7  12
ATOM     12  C   UNL     1       0.064  -2.835  -6.018  0.00  0.00    +0.005 A 
ATOM     13  C   UNL     1      -0.595  -1.921  -6.818  0.00  0.00    +0.010 A 
ATOM     14  C   UNL     1       0.117  -0.933  -7.471  0.00  0.00    +0.039 A 
ATOM     15  C   UNL     1       1.492  -0.858  -7.324  0.00  0.00    +0.126 A 
ATOM     16  C   UNL     1       2.153  -1.773  -6.523  0.00  0.00    +0.077 A 
ATOM     17  C   UNL     1       1.438  -2.759  -5.865  0.00  0.00    +0.131 A 
ATOM     18  F   UNL     1       2.081  -3.649  -5.078  0.00  0.00    -0.205 F 
ATOM     19  F   UNL     1       2.188   0.108  -7.963  0.00  0.00    -0.205 F 
ENDBRANCH   7  12
BRANCH   6  20
ATOM     20  C   UNL     1      -2.405  -8.156  -7.212  0.00  0.00    +0.067 A 
ATOM     21  C   UNL     1      -2.739  -8.926  -6.105  0.00  0.00    +0.028 A 
ATOM     22  C   UNL     1      -3.457 -10.095  -6.269  0.00  0.00    +0.005 A 
ATOM     23  C   UNL     1      -3.843 -10.498  -7.534  0.00  0.00    -0.050 A 
ATOM     24  C   UNL     1      -3.512  -9.734  -8.638  0.00  0.00    +0.005 A 
ATOM     25  C   UNL     1      -2.800  -8.561  -8.480  0.00  0.00    +0.028 A 
ATOM     26  C   UNL     1      -4.625 -11.774  -7.710  0.00  0.00    +0.044 C 
ENDBRANCH   6  20
BRANCH   4  27
ATOM     27  C   UNL     1       0.788  -4.449  -8.072  0.00  0.00    +0.007 C 
ATOM     28  C   UNL     1       1.917  -4.200  -7.070  0.00  0.00    +0.017 C 
ATOM     29  C   UNL     1       1.352  -5.139  -9.315  0.00  0.00    +0.017 C 
ATOM     30  C   UNL     1       0.157  -3.114  -8.471  0.00  0.00    +0.017 C 
ENDBRANCH   4  27
BRANCH   1  31
ATOM     31  C   UNL     1      -4.021  -6.502  -5.010  0.00  0.00    +0.210 C 
BRANCH  31  33
ATOM     32  N   UNL     1      -6.130  -5.241  -5.286  0.00  0.00    -0.314 N 
ATOM     33  C   UNL     1      -4.790  -5.214  -5.148  0.00  0.00    +0.231 C 
ATOM     34  O   UNL     1      -4.203  -4.152  -5.135  0.00  0.00    -0.274 OA
ATOM     35  H   UNL     1      -6.600  -6.089  -5.296  0.00  0.00    +0.149 HD
BRANCH  32  36
ATOM     36  C   UNL     1      -6.878  -3.988  -5.420  0.00  0.00    +0.104 C 
BRANCH  36  38
ATOM     37  C   UNL     1      -9.151  -2.989  -5.700  0.00  0.00    +0.005 C 
ATOM     38  C   UNL     1      -8.370  -4.298  -5.561  0.00  0.00    +0.015 C 
ENDBRANCH  36  38
ENDBRANCH  32  36
ENDBRANCH  31  33
ENDBRANCH   1  31
TORSDOF 7
