REMARK  Name = ZINC19372115
REMARK  9 active torsions:
REMARK  status: ('A' for Active; 'I' for Inactive)
REMARK    1  A    between atoms: C_2  and  C_3
REMARK    2  A    between atoms: C_3  and  C_4
REMARK    3  A    between atoms: C_8  and  C_11
REMARK    4  A    between atoms: C_9  and  O_10
REMARK    5  A    between atoms: N_12  and  N_13
REMARK    6  A    between atoms: C_14  and  C_16
REMARK    7  A    between atoms: C_16  and  N_17
REMARK    8  A    between atoms: N_20  and  C_23
REMARK    9  A    between atoms: C_23  and  C_24
REMARK                            x       y       z     vdW  Elec       q    Type
REMARK                         _______ _______ _______ _____ _____    ______ ____
ROOT
ATOM      1  N   UNL     1       4.955  -2.646  -0.058  0.00  0.00    -0.209 N 
ATOM      2  C   UNL     1       4.982  -3.993  -0.065  0.00  0.00    +0.216 C 
ATOM      3  O   UNL     1       3.944  -4.621  -0.059  0.00  0.00    -0.276 OA
ATOM      4  H   UNL     1       5.897  -2.077  -0.064  0.00  0.00    +0.177 HD
ENDROOT
BRANCH   1   6
ATOM      5  C   UNL     1       3.702  -0.672  -0.037  0.00  0.00    +0.142 C 
ATOM      6  N   UNL     1       3.728  -1.970  -0.043  0.00  0.00    -0.188 NA
BRANCH   5  11
ATOM      7  C   UNL     1       0.002  -0.004   0.002  0.00  0.00    -0.002 A 
ATOM      8  C   UNL     1      -0.017   1.378   0.010  0.00  0.00    +0.007 A 
ATOM      9  C   UNL     1       1.168   2.094   0.002  0.00  0.00    +0.001 A 
ATOM     10  C   UNL     1       2.379   1.435  -0.013  0.00  0.00    +0.013 A 
ATOM     11  C   UNL     1       2.412   0.039  -0.021  0.00  0.00    +0.036 A 
ATOM     12  C   UNL     1       1.210  -0.682  -0.013  0.00  0.00    +0.129 A 
BRANCH  12  13
ATOM     13  O   UNL     1       1.229  -2.040  -0.020  0.00  0.00    -0.506 OA
ATOM     14  H   UNL     1       2.189  -2.576  -0.032  0.00  0.00    +0.292 HD
ENDBRANCH  12  13
BRANCH   7  15
ATOM     15  C   UNL     1      -1.293  -0.774   0.010  0.00  0.00    +0.065 C 
BRANCH  15  17
ATOM     16  C   UNL     1      -2.815  -0.807   1.919  0.00  0.00    +0.004 C 
ATOM     17  C   UNL     1      -1.649  -1.145   1.427  0.00  0.00    -0.030 C 
ENDBRANCH  15  17
ENDBRANCH   7  15
ENDBRANCH   5  11
ENDBRANCH   1   6
BRANCH   2  18
ATOM     18  C   UNL     1       6.302  -4.721  -0.081  0.00  0.00    +0.020 C 
BRANCH  18  19
ATOM     19  N   UNL     1       6.063  -6.170  -0.086  0.00  0.00    +0.387 N 
ATOM     20  C   UNL     1       5.442  -6.606   1.173  0.00  0.00    -0.063 C 
ATOM     21  C   UNL     1       5.137  -8.103   1.096  0.00  0.00    +0.066 C 
ATOM     22  N   UNL     1       6.382  -8.842   0.843  0.00  0.00    -0.302 NA
ATOM     23  C   UNL     1       7.002  -8.406  -0.416  0.00  0.00    +0.066 C 
ATOM     24  C   UNL     1       7.308  -6.908  -0.340  0.00  0.00    -0.063 C 
ATOM     25  H   UNL     1       5.362  -6.393  -0.905  0.00  0.00    -0.081 HD
BRANCH  22  26
ATOM     26  C   UNL     1       6.143 -10.291   0.838  0.00  0.00    +0.119 C 
BRANCH  26  27
ATOM     27  C   UNL     1       5.739 -10.739   2.219  0.00  0.00    -0.033 A 
ATOM     28  C   UNL     1       6.704 -11.140   3.124  0.00  0.00    +0.006 A 
ATOM     29  C   UNL     1       6.335 -11.545   4.393  0.00  0.00    +0.020 A 
ATOM     30  C   UNL     1       5.000 -11.559   4.754  0.00  0.00    +0.041 A 
ATOM     31  C   UNL     1       4.034 -11.163   3.845  0.00  0.00    +0.020 A 
ATOM     32  C   UNL     1       4.405 -10.753   2.578  0.00  0.00    +0.006 A 
ATOM     33 CL   UNL     1       4.535 -12.074   6.345  0.00  0.00    -0.084 Cl
ENDBRANCH  26  27
ENDBRANCH  22  26
ENDBRANCH  18  19
ENDBRANCH   2  18
TORSDOF 9
