REMARK  Name = ZINC10818492
REMARK  12 active torsions:
REMARK  status: ('A' for Active; 'I' for Inactive)
REMARK    1  A    between atoms: C_1  and  C_2
REMARK    2  A    between atoms: C_2  and  C_3
REMARK    3  A    between atoms: C_2  and  S_4
REMARK    4  A    between atoms: S_4  and  C_7
REMARK    5  A    between atoms: C_10  and  C_13
REMARK    6  A    between atoms: N_15  and  C_16
REMARK    7  A    between atoms: C_16  and  C_17
REMARK    8  A    between atoms: C_17  and  N_60
REMARK    9  A    between atoms: C_18  and  N_60
REMARK   10  A    between atoms: C_19  and  N_60
REMARK   11  A    between atoms: C_25  and  S_29
REMARK   12  A    between atoms: S_29  and  C_32
REMARK                            x       y       z     vdW  Elec       q    Type
REMARK                         _______ _______ _______ _____ _____    ______ ____
ROOT
ATOM      1  C   UNL     1      -2.627   2.855   5.225  0.00  0.00    +0.252 C 
ATOM      2  O   UNL     1      -3.490   2.132   5.684  0.00  0.00    -0.270 OA
ATOM      3  N   UNL     1      -2.339   4.026   5.826  0.00  0.00    -0.248 N 
ATOM      4  C   UNL     1      -2.928   4.345   7.037  0.00  0.00    +0.168 A 
ATOM      5  N   UNL     1      -2.775   5.425   7.768  0.00  0.00    -0.224 NA
ATOM      6  C   UNL     1      -3.419   5.605   8.941  0.00  0.00    +0.080 A 
ATOM      7  C   UNL     1      -3.344   6.712   9.818  0.00  0.00    +0.031 A 
ATOM      8  C   UNL     1      -4.071   6.737  10.979  0.00  0.00    +0.029 A 
ATOM      9  C   UNL     1      -4.901   5.684  11.337  0.00  0.00    +0.089 A 
ATOM     10  C   UNL     1      -4.999   4.585  10.503  0.00  0.00    +0.044 A 
ATOM     11  C   UNL     1      -4.275   4.552   9.338  0.00  0.00    +0.043 A 
ATOM     12  S   UNL     1      -4.096   3.396   8.001  0.00  0.00    -0.052 S 
ENDROOT
BRANCH   1  16
ATOM     13  C   UNL     1      -0.521   1.690   1.725  0.00  0.00    +0.088 A 
ATOM     14  C   UNL     1      -0.706   3.033   2.003  0.00  0.00    +0.028 A 
ATOM     15  C   UNL     1      -1.394   3.418   3.135  0.00  0.00    +0.015 A 
ATOM     16  C   UNL     1      -1.895   2.449   4.007  0.00  0.00    +0.037 A 
ATOM     17  C   UNL     1      -1.700   1.096   3.724  0.00  0.00    +0.015 A 
ATOM     18  C   UNL     1      -1.014   0.725   2.585  0.00  0.00    +0.028 A 
BRANCH  13  19
ATOM     19  S   UNL     1       0.353   1.207   0.273  0.00  0.00    -0.001 S 
ATOM     20  O   UNL     1       0.894  -0.070   0.584  0.00  0.00    -0.169 OA
ATOM     21  O   UNL     1       1.206   2.304  -0.018  0.00  0.00    -0.169 OA
BRANCH  19  23
ATOM     22  C   UNL     1      -1.628   2.394  -1.193  0.00  0.00    +0.032 C 
ATOM     23  C   UNL     1      -0.922   1.049  -1.007  0.00  0.00    +0.130 C 
ATOM     24  C   UNL     1      -0.271   0.629  -2.326  0.00  0.00    +0.032 C 
ENDBRANCH  19  23
ENDBRANCH  13  19
ENDBRANCH   1  16
BRANCH   9  25
ATOM     25  S   UNL     1      -5.822   5.748  12.837  0.00  0.00    -0.006 S 
ATOM     26  O   UNL     1      -5.991   7.134  13.101  0.00  0.00    -0.170 OA
ATOM     27  O   UNL     1      -6.949   4.912  12.607  0.00  0.00    -0.170 OA
ATOM     28  C   UNL     1      -4.736   5.002  14.084  0.00  0.00    +0.200 C 
ENDBRANCH   9  25
BRANCH   3  29
ATOM     29  C   UNL     1      -1.402   4.961   5.198  0.00  0.00    +0.097 C 
BRANCH  29  30
ATOM     30  C   UNL     1      -2.185   6.040   4.448  0.00  0.00    -0.060 C 
BRANCH  30  33
ATOM     31  C   UNL     1      -1.945   7.886   2.899  0.00  0.00    -0.097 C 
ATOM     32  C   UNL     1      -0.495   7.731   4.831  0.00  0.00    -0.097 C 
ATOM     33  N   UNL     1      -1.227   6.963   3.803  0.00  0.00    +0.377 N 
ATOM     34  H   UNL     1      -0.554   6.414   3.254  0.00  0.00    -0.083 HD
ENDBRANCH  30  33
ENDBRANCH  29  30
ENDBRANCH   3  29
TORSDOF 7
