REMARK  Name = ZINC04904452
REMARK  10 active torsions:
REMARK  status: ('A' for Active; 'I' for Inactive)
REMARK    1  A    between atoms: C_1  and  C_2
REMARK    2  A    between atoms: C_2  and  N_3
REMARK    3  A    between atoms: N_3  and  N_4
REMARK    4  A    between atoms: C_5  and  C_7
REMARK    5  A    between atoms: C_12  and  O_13
REMARK    6  A    between atoms: C_15  and  C_16
REMARK    7  A    between atoms: N_18  and  C_19
REMARK    8  A    between atoms: C_19  and  C_20
REMARK    9  A    between atoms: C_19  and  C_21
REMARK   10  A    between atoms: C_19  and  C_22
REMARK                            x       y       z     vdW  Elec       q    Type
REMARK                         _______ _______ _______ _____ _____    ______ ____
ROOT
ATOM      1  N   UNL     1      -0.056   1.873  -2.289  0.00  0.00    -0.268 N 
ATOM      2  H   UNL     1      -0.482   2.256  -3.072  0.00  0.00    +0.170 HD
ENDROOT
BRANCH   1   3
ATOM      3  N   UNL     1       1.312   1.573  -2.312  0.00  0.00    -0.233 N 
ATOM      4  C   UNL     1       2.059   1.912  -3.381  0.00  0.00    +0.264 C 
ATOM      5  O   UNL     1       1.530   2.394  -4.364  0.00  0.00    -0.269 OA
ATOM      6  H   UNL     1       1.722   1.122  -1.557  0.00  0.00    +0.173 HD
BRANCH   4   7
ATOM      7  C   UNL     1       3.518   1.697  -3.360  0.00  0.00    +0.081 A 
ATOM      8  C   UNL     1       4.116   1.042  -2.280  0.00  0.00    +0.036 A 
ATOM      9  C   UNL     1       5.481   0.845  -2.267  0.00  0.00    +0.042 A 
ATOM     10  C   UNL     1       6.263   1.294  -3.320  0.00  0.00    +0.023 A 
ATOM     11  C   UNL     1       5.684   1.943  -4.392  0.00  0.00    +0.047 A 
ATOM     12  C   UNL     1       4.312   2.144  -4.425  0.00  0.00    +0.129 A 
ATOM     13 CL   UNL     1       6.223   0.031  -0.925  0.00  0.00    -0.084 Cl
BRANCH  12  14
ATOM     14  O   UNL     1       3.741   2.777  -5.481  0.00  0.00    -0.506 OA
ATOM     15  H   UNL     1       3.684   3.737  -5.380  0.00  0.00    +0.292 HD
ENDBRANCH  12  14
ENDBRANCH   4   7
ENDBRANCH   1   3
BRANCH   1  17
ATOM     16  C   UNL     1      -0.108   1.159   0.095  0.00  0.00    +0.062 C 
ATOM     17  C   UNL     1      -0.792   1.625  -1.164  0.00  0.00    +0.024 C 
ATOM     18  C   UNL     1      -2.130   1.797  -1.182  0.00  0.00    +0.087 C 
BRANCH  18  19
ATOM     19  C   UNL     1      -2.757   2.346  -2.324  0.00  0.00    +0.239 C 
ATOM     20  O   UNL     1      -2.108   2.560  -3.332  0.00  0.00    -0.271 OA
ATOM     21  N   UNL     1      -4.074   2.634  -2.297  0.00  0.00    -0.307 N 
ATOM     22  H   UNL     1      -4.577   2.525  -1.475  0.00  0.00    +0.150 HD
BRANCH  21  23
ATOM     23  C   UNL     1      -4.744   3.111  -3.509  0.00  0.00    +0.026 C 
ATOM     24  C   UNL     1      -4.693   2.022  -4.582  0.00  0.00    +0.031 C 
ATOM     25  C   UNL     1      -6.203   3.442  -3.188  0.00  0.00    +0.031 C 
ATOM     26  C   UNL     1      -4.037   4.367  -4.022  0.00  0.00    +0.031 C 
ENDBRANCH  21  23
ENDBRANCH  18  19
ENDBRANCH   1  17
TORSDOF 6
