REMARK  Name = ZINC39727230
REMARK  6 active torsions:
REMARK  status: ('A' for Active; 'I' for Inactive)
REMARK    1  A    between atoms: C_8  and  C_13
REMARK    2  A    between atoms: C_13  and  C_14
REMARK    3  A    between atoms: C_14  and  C_15
REMARK    4  A    between atoms: N_20  and  C_23
REMARK    5  A    between atoms: C_23  and  C_24
REMARK    6  A    between atoms: C_23  and  C_31
REMARK                            x       y       z     vdW  Elec       q    Type
REMARK                         _______ _______ _______ _____ _____    ______ ____
ROOT
ATOM      1  C   UNL     1       1.397  -4.814   2.570  0.00  0.00    +0.216 C 
ATOM      2  O   UNL     1       2.186  -4.469   3.424  0.00  0.00    -0.276 OA
ATOM      3  N   UNL     1       0.637  -5.911   2.759  0.00  0.00    -0.299 N 
ATOM      4  C   UNL     1      -0.322  -6.350   1.734  0.00  0.00    +0.123 C 
ATOM      5  C   UNL     1      -1.686  -6.558   2.401  0.00  0.00    +0.104 C 
ATOM      6  N   UNL     1      -1.535  -7.470   3.542  0.00  0.00    -0.289 NA
ATOM      7  C   UNL     1      -0.661  -6.894   4.573  0.00  0.00    +0.104 C 
ATOM      8  C   UNL     1       0.749  -6.704   3.992  0.00  0.00    +0.123 C 
ENDROOT
BRANCH   1   9
ATOM      9  C   UNL     1       1.266  -4.016   1.298  0.00  0.00    +0.098 C 
BRANCH   9  10
ATOM     10  C   UNL     1       2.233  -2.831   1.338  0.00  0.00    +0.043 C 
BRANCH  10  18
ATOM     11  C   UNL     1      -1.206   1.453  -0.381  0.00  0.00    +0.002 A 
ATOM     12  C   UNL     1      -0.163   2.393  -0.350  0.00  0.00    +0.002 A 
ATOM     13  C   UNL     1       1.138   2.040  -0.234  0.00  0.00    +0.025 A 
ATOM     14  C   UNL     1       1.504   0.678  -0.137  0.00  0.00    +0.057 A 
ATOM     15  N   UNL     1       2.777   0.339  -0.023  0.00  0.00    -0.282 N 
ATOM     16  C   UNL     1       3.155  -0.938   0.071  0.00  0.00    +0.240 C 
ATOM     17  O   UNL     1       4.330  -1.226   0.176  0.00  0.00    -0.273 OA
ATOM     18  C   UNL     1       2.100  -2.021   0.047  0.00  0.00    +0.166 C 
ATOM     19  N   UNL     1       0.693  -1.610  -0.081  0.00  0.00    -0.372 N 
ATOM     20  C   UNL     1       0.423  -0.339  -0.166  0.00  0.00    +0.057 A 
ATOM     21  C   UNL     1      -0.968   0.126  -0.295  0.00  0.00    +0.027 A 
ATOM     22  H   UNL     1      -0.017  -2.270  -0.101  0.00  0.00    +0.160 HD
ATOM     23  H   UNL     1       3.452   1.034  -0.007  0.00  0.00    +0.155 HD
ENDBRANCH  10  18
ENDBRANCH   9  10
ENDBRANCH   1   9
BRANCH   6  24
ATOM     24  C   UNL     1      -2.844  -7.831   4.103  0.00  0.00    +0.117 C 
BRANCH  24  25
ATOM     25  C   UNL     1      -3.699  -8.449   3.027  0.00  0.00    -0.026 A 
ATOM     26  C   UNL     1      -3.157  -9.384   2.166  0.00  0.00    +0.008 A 
ATOM     27  C   UNL     1      -3.940  -9.952   1.179  0.00  0.00    +0.038 A 
ATOM     28  C   UNL     1      -5.269  -9.583   1.053  0.00  0.00    +0.123 A 
ATOM     29  C   UNL     1      -5.811  -8.646   1.916  0.00  0.00    +0.038 A 
ATOM     30  C   UNL     1      -5.027  -8.084   2.906  0.00  0.00    +0.008 A 
ATOM     31  F   UNL     1      -6.035 -10.137   0.088  0.00  0.00    -0.205 F 
ENDBRANCH  24  25
BRANCH  24  32
ATOM     32  C   UNL     1      -2.654  -8.821   5.224  0.00  0.00    -0.026 A 
ATOM     33  C   UNL     1      -1.783  -9.883   5.068  0.00  0.00    +0.008 A 
ATOM     34  C   UNL     1      -1.608 -10.790   6.095  0.00  0.00    +0.038 A 
ATOM     35  C   UNL     1      -2.305 -10.636   7.281  0.00  0.00    +0.123 A 
ATOM     36  C   UNL     1      -3.178  -9.572   7.436  0.00  0.00    +0.038 A 
ATOM     37  C   UNL     1      -3.347  -8.663   6.410  0.00  0.00    +0.008 A 
ATOM     38  F   UNL     1      -2.135 -11.523   8.285  0.00  0.00    -0.205 F 
ENDBRANCH  24  32
ENDBRANCH   6  24
TORSDOF 6
