REMARK  Name = ZINC21881384
REMARK  6 active torsions:
REMARK  status: ('A' for Active; 'I' for Inactive)
REMARK    1  A    between atoms: C_1  and  C_2
REMARK    2  A    between atoms: C_6  and  C_11
REMARK    3  A    between atoms: C_16  and  C_19
REMARK    4  A    between atoms: N_21  and  C_22
REMARK    5  A    between atoms: C_22  and  C_23
REMARK    6  A    between atoms: C_23  and  C_24
REMARK                            x       y       z     vdW  Elec       q    Type
REMARK                         _______ _______ _______ _____ _____    ______ ____
ROOT
ATOM      1  C   UNL     1       0.042   4.647   2.207  0.00  0.00    +0.070 C 
ATOM      2  C   UNL     1       0.639   3.680   3.197  0.00  0.00    +0.093 A 
ATOM      3  C   UNL     1       0.567   2.221   3.166  0.00  0.00    +0.103 A 
ATOM      4  C   UNL     1       0.013   1.230   2.352  0.00  0.00    +0.138 A 
ATOM      5  N   UNL     1       0.188  -0.043   2.706  0.00  0.00    -0.217 NA
ATOM      6  C   UNL     1       0.875  -0.357   3.789  0.00  0.00    +0.132 A 
ATOM      7  N   UNL     1       1.412   0.547   4.583  0.00  0.00    -0.195 NA
ATOM      8  C   UNL     1       1.288   1.840   4.317  0.00  0.00    +0.263 A 
ATOM      9  O   UNL     1       1.687   2.989   4.880  0.00  0.00    -0.334 OA
ATOM     10  N   UNL     1       1.329   3.967   4.264  0.00  0.00    -0.080 NA
ATOM     11  C   UNL     1       1.045  -1.813   4.137  0.00  0.00    +0.088 C 
ATOM     12  N   UNL     1      -0.700   1.559   1.216  0.00  0.00    -0.314 N 
ATOM     13  C   UNL     1      -2.095   1.116   1.325  0.00  0.00    +0.106 C 
ATOM     14  C   UNL     1      -2.888   1.624   0.118  0.00  0.00    +0.020 C 
ATOM     15  C   UNL     1      -2.258   1.078  -1.166  0.00  0.00    +0.016 C 
ATOM     16  C   UNL     1      -0.791   1.513  -1.231  0.00  0.00    +0.092 C 
ATOM     17  C   UNL     1      -0.059   1.009   0.015  0.00  0.00    +0.119 C 
ENDROOT
BRANCH  16  18
ATOM     18  C   UNL     1      -0.147   0.931  -2.463  0.00  0.00    +0.218 C 
ATOM     19  O   UNL     1       0.804   0.186  -2.356  0.00  0.00    -0.275 OA
ATOM     20  N   UNL     1      -0.628   1.239  -3.684  0.00  0.00    -0.315 N 
ATOM     21  H   UNL     1      -1.491   1.915  -3.781  0.00  0.00    +0.149 HD
BRANCH  20  22
ATOM     22  C   UNL     1      -0.002   0.673  -4.881  0.00  0.00    +0.109 C 
BRANCH  22  23
ATOM     23  C   UNL     1      -0.735   1.178  -6.126  0.00  0.00    +0.055 C 
BRANCH  23  24
ATOM     24  C   UNL     1      -0.091   0.596  -7.358  0.00  0.00    -0.028 A 
ATOM     25  C   UNL     1       0.870   1.316  -8.042  0.00  0.00    +0.005 A 
ATOM     26  C   UNL     1       1.464   0.781  -9.169  0.00  0.00    +0.000 A 
ATOM     27  C   UNL     1       1.090  -0.472  -9.620  0.00  0.00    +0.001 A 
ATOM     28  C   UNL     1       0.126  -1.191  -8.940  0.00  0.00    +0.020 A 
ATOM     29  C   UNL     1      -0.466  -0.658  -7.808  0.00  0.00    +0.044 A 
ATOM     30 CL   UNL     1      -1.677  -1.561  -6.953  0.00  0.00    -0.083 Cl
ENDBRANCH  23  24
ENDBRANCH  22  23
ENDBRANCH  20  22
ENDBRANCH  16  18
TORSDOF 4
