REMARK  Name = ZINC35401440
REMARK  5 active torsions:
REMARK  status: ('A' for Active; 'I' for Inactive)
REMARK    1  A    between atoms: C_1  and  C_2
REMARK    2  A    between atoms: C_5  and  C_8
REMARK    3  A    between atoms: C_8  and  C_9
REMARK    4  A    between atoms: C_18  and  C_20
REMARK    5  A    between atoms: N_22  and  C_23
REMARK                            x       y       z     vdW  Elec       q    Type
REMARK                         _______ _______ _______ _____ _____    ______ ____
ROOT
ATOM      1  C   UNL     1       1.487  -4.759  -0.032  0.00  0.00    +0.145 A 
ATOM      2  N   UNL     1       2.121  -4.965  -1.165  0.00  0.00    -0.208 NA
ATOM      3  C   UNL     1       3.372  -5.390  -1.100  0.00  0.00    +0.181 A 
ATOM      4  S   UNL     1       3.635  -5.493   0.557  0.00  0.00    +0.049 S 
ATOM      5  N   UNL     1       2.130  -4.981   1.087  0.00  0.00    -0.192 NA
ATOM      6  N   UNL     1       4.244  -5.678  -2.135  0.00  0.00    -0.297 N 
ATOM      7  C   UNL     1       3.941  -5.557  -3.572  0.00  0.00    +0.108 C 
ATOM      8  C   UNL     1       5.320  -5.374  -4.254  0.00  0.00    +0.021 C 
ATOM      9  C   UNL     1       6.216  -6.310  -3.400  0.00  0.00    +0.033 C 
ATOM     10  C   UNL     1       5.629  -6.148  -1.982  0.00  0.00    +0.161 C 
ENDROOT
BRANCH  10  11
ATOM     11  C   UNL     1       6.431  -5.138  -1.205  0.00  0.00    +0.234 C 
ATOM     12  O   UNL     1       6.032  -3.997  -1.100  0.00  0.00    -0.274 OA
ATOM     13  N   UNL     1       7.592  -5.501  -0.625  0.00  0.00    -0.302 N 
ATOM     14  H   UNL     1       7.912  -6.413  -0.708  0.00  0.00    +0.150 HD
BRANCH  13  15
ATOM     15  C   UNL     1       8.373  -4.518   0.131  0.00  0.00    +0.159 C 
ATOM     16  C   UNL     1       9.251  -5.238   1.157  0.00  0.00    +0.032 C 
ATOM     17  C   UNL     1       9.591  -4.317   2.315  0.00  0.00    +0.004 C 
ATOM     18  C   UNL     1      10.483  -3.152   1.929  0.00  0.00    +0.019 C 
ATOM     19  C   UNL     1       9.748  -2.187   0.997  0.00  0.00    +0.104 C 
ATOM     20  N   UNL     1       9.911  -2.656  -0.389  0.00  0.00    -0.314 N 
ATOM     21  C   UNL     1       9.267  -3.743  -0.814  0.00  0.00    +0.233 C 
ATOM     22  O   UNL     1       9.402  -4.115  -1.960  0.00  0.00    -0.274 OA
ATOM     23  H   UNL     1      10.488  -2.169  -0.998  0.00  0.00    +0.149 HD
ENDBRANCH  13  15
ENDBRANCH  10  11
BRANCH   1  24
ATOM     24  C   UNL     1       0.059  -4.275  -0.021  0.00  0.00    +0.112 C 
BRANCH  24  29
ATOM     25  C   UNL     1      -0.018   1.503   0.010  0.00  0.00    +0.044 C 
ATOM     26  C   UNL     1       0.002  -0.004   0.002  0.00  0.00    -0.050 A 
ATOM     27  C   UNL     1       0.006  -0.689  -1.199  0.00  0.00    +0.003 A 
ATOM     28  C   UNL     1       0.025  -2.071  -1.206  0.00  0.00    +0.004 A 
ATOM     29  C   UNL     1       0.040  -2.768  -0.013  0.00  0.00    -0.040 A 
ATOM     30  C   UNL     1       0.037  -2.084   1.188  0.00  0.00    +0.004 A 
ATOM     31  C   UNL     1       0.023  -0.702   1.195  0.00  0.00    +0.003 A 
ENDBRANCH  24  29
ENDBRANCH   1  24
TORSDOF 4
