REMARK  Name = ZINC39490137
REMARK  8 active torsions:
REMARK  status: ('A' for Active; 'I' for Inactive)
REMARK    1  A    between atoms: C_1  and  C_2
REMARK    2  A    between atoms: C_2  and  C_3
REMARK    3  A    between atoms: C_2  and  C_4
REMARK    4  A    between atoms: C_2  and  C_5
REMARK    5  A    between atoms: C_5  and  N_6
REMARK    6  A    between atoms: N_15  and  C_17
REMARK    7  A    between atoms: C_17  and  C_18
REMARK    8  A    between atoms: C_21  and  C_23
REMARK                            x       y       z     vdW  Elec       q    Type
REMARK                         _______ _______ _______ _____ _____    ______ ____
ROOT
ATOM      1  N   UNL     1       2.093   0.010  -1.267  0.00  0.00    -0.301 N 
ATOM      2  C   UNL     1       2.343   1.298  -1.901  0.00  0.00    +0.108 C 
ATOM      3  C   UNL     1       3.663   1.893  -1.411  0.00  0.00    +0.020 C 
ATOM      4  C   UNL     1       4.766   0.837  -1.561  0.00  0.00    +0.016 C 
ATOM      5  C   UNL     1       4.473  -0.307  -0.594  0.00  0.00    +0.031 C 
ATOM      6  C   UNL     1       3.040  -0.734  -0.691  0.00  0.00    +0.220 C 
ATOM      7  O   UNL     1       2.727  -1.810  -0.227  0.00  0.00    -0.275 OA
ATOM      8  C   UNL     1       4.792   0.135   0.849  0.00  0.00    -0.004 C 
ATOM      9  C   UNL     1       5.444  -1.132   1.460  0.00  0.00    -0.077 C 
ATOM     10  N   UNL     1       6.238  -1.685   0.333  0.00  0.00    +0.385 N 
ATOM     11  C   UNL     1       5.409  -1.491  -0.878  0.00  0.00    -0.062 C 
ATOM     12  H   UNL     1       7.109  -1.185   0.243  0.00  0.00    -0.081 HD
ENDROOT
BRANCH   1  13
ATOM     13  C   UNL     1       0.718  -0.497  -1.257  0.00  0.00    +0.113 C 
BRANCH  13  15
ATOM     14  C   UNL     1      -0.019   1.526   0.010  0.00  0.00    +0.012 C 
ATOM     15  C   UNL     1       0.002  -0.004   0.002  0.00  0.00    -0.022 C 
ATOM     16  C   UNL     1       0.742  -0.511   1.242  0.00  0.00    +0.012 C 
ATOM     17  C   UNL     1      -1.433  -0.534   0.013  0.00  0.00    +0.012 C 
ENDBRANCH  13  15
ENDBRANCH   1  13
BRANCH  10  18
ATOM     18  C   UNL     1       6.493  -3.116   0.548  0.00  0.00    -0.003 C 
BRANCH  18  19
ATOM     19  C   UNL     1       7.394  -3.291   1.744  0.00  0.00    +0.089 A 
ATOM     20  C   UNL     1       6.989  -3.447   3.017  0.00  0.00    +0.043 A 
ATOM     21  C   UNL     1       8.157  -3.576   3.805  0.00  0.00    +0.047 A 
ATOM     22  C   UNL     1       9.204  -3.491   2.965  0.00  0.00    +0.135 A 
ATOM     23  O   UNL     1       8.736  -3.325   1.718  0.00  0.00    -0.464 OA
BRANCH  22  24
ATOM     24  C   UNL     1      10.657  -3.575   3.358  0.00  0.00    +0.218 C 
ATOM     25  C   UNL     1      11.287  -2.193   3.383  0.00  0.00    +0.030 C 
ATOM     26  C   UNL     1      12.248  -2.261   2.459  0.00  0.00    +0.133 C 
ATOM     27  N   UNL     1      12.279  -3.486   1.889  0.00  0.00    -0.162 NA
ATOM     28  N   UNL     1      11.436  -4.279   2.325  0.00  0.00    -0.172 NA
ENDBRANCH  22  24
ENDBRANCH  18  19
ENDBRANCH  10  18
TORSDOF 5
