REMARK  Name = ZINC40002477
REMARK  4 active torsions:
REMARK  status: ('A' for Active; 'I' for Inactive)
REMARK    1  A    between atoms: C_4  and  C_7
REMARK    2  A    between atoms: C_7  and  C_9
REMARK    3  A    between atoms: C_7  and  N_15
REMARK    4  A    between atoms: C_16  and  C_18
REMARK                            x       y       z     vdW  Elec       q    Type
REMARK                         _______ _______ _______ _____ _____    ______ ____
ROOT
ATOM      1  N   UNL     1       3.587  -1.754   0.991  0.00  0.00    -0.303 N 
ATOM      2  C   UNL     1       4.641  -2.124   1.746  0.00  0.00    +0.245 C 
ATOM      3  O   UNL     1       5.697  -1.531   1.647  0.00  0.00    -0.270 OA
ATOM      4  H   UNL     1       2.724  -2.175   1.124  0.00  0.00    +0.150 HD
ENDROOT
BRANCH   2   5
ATOM      5  C   UNL     1       4.511  -3.250   2.692  0.00  0.00    +0.039 A 
ATOM      6  C   UNL     1       3.293  -3.937   2.800  0.00  0.00    +0.015 A 
ATOM      7  C   UNL     1       3.161  -4.977   3.669  0.00  0.00    +0.030 A 
ATOM      8  C   UNL     1       4.238  -5.369   4.461  0.00  0.00    +0.086 A 
ATOM      9  C   UNL     1       5.468  -4.693   4.367  0.00  0.00    +0.113 A 
ATOM     10  C   UNL     1       5.599  -3.629   3.469  0.00  0.00    +0.044 A 
ATOM     11  N   UNL     1       6.324  -5.277   5.239  0.00  0.00    -0.130 NA
ATOM     12  N   UNL     1       5.738  -6.243   5.854  0.00  0.00    -0.067 NA
ATOM     13  N   UNL     1       4.414  -6.350   5.404  0.00  0.00    -0.257 N 
ATOM     14  H   UNL     1       3.752  -6.993   5.702  0.00  0.00    +0.191 HD
ENDBRANCH   2   5
BRANCH   1  15
ATOM     15  C   UNL     1       3.746  -0.716  -0.031  0.00  0.00    +0.117 C 
BRANCH  15  19
ATOM     16  C   UNL     1       0.064   1.398  -0.500  0.00  0.00    +0.000 A 
ATOM     17  C   UNL     1       1.264   2.085  -0.523  0.00  0.00    +0.000 A 
ATOM     18  C   UNL     1       2.455   1.401  -0.371  0.00  0.00    +0.005 A 
ATOM     19  C   UNL     1       2.447   0.030  -0.195  0.00  0.00    -0.026 A 
ATOM     20  C   UNL     1       1.248  -0.657  -0.171  0.00  0.00    +0.005 A 
ATOM     21  C   UNL     1       0.057   0.027  -0.325  0.00  0.00    +0.000 A 
ENDBRANCH  15  19
BRANCH  15  22
ATOM     22  C   UNL     1       4.135  -1.364  -1.361  0.00  0.00    +0.079 C 
ATOM     23  C   UNL     1       4.574  -0.303  -2.404  0.00  0.00    +0.044 C 
ATOM     24  C   UNL     1       5.726  -0.803  -3.215  0.00  0.00    -0.019 C 
ATOM     25  C   UNL     1       6.447  -1.816  -2.776  0.00  0.00    +0.036 C 
ATOM     26  S   UNL     1       5.716  -2.299  -1.221  0.00  0.00    -0.127 S 
ENDBRANCH  15  22
ENDBRANCH   1  15
TORSDOF 4
