REMARK  Name = ZINC36805757
REMARK  6 active torsions:
REMARK  status: ('A' for Active; 'I' for Inactive)
REMARK    1  A    between atoms: C_1  and  C_2
REMARK    2  A    between atoms: C_2  and  C_4
REMARK    3  A    between atoms: C_2  and  O_15
REMARK    4  A    between atoms: O_15  and  C_16
REMARK    5  A    between atoms: C_16  and  C_18
REMARK    6  A    between atoms: N_20  and  C_25
REMARK                            x       y       z     vdW  Elec       q    Type
REMARK                         _______ _______ _______ _____ _____    ______ ____
ROOT
ATOM      1  C   UNL     1       2.420  -0.396  -1.196  0.00  0.00    +0.356 C 
ATOM      2  O   UNL     1       3.066   0.023  -0.254  0.00  0.00    -0.244 OA
ENDROOT
BRANCH   1   3
ATOM      3  C   UNL     1       3.023  -1.347  -2.132  0.00  0.00    +0.144 C 
ATOM      4  N   UNL     1       2.328  -1.785  -3.137  0.00  0.00    -0.170 NA
ATOM      5  N   UNL     1       2.870  -2.695  -4.050  0.00  0.00    -0.160 N 
ATOM      6  C   UNL     1       3.952  -3.428  -3.721  0.00  0.00    +0.240 C 
ATOM      7  O   UNL     1       4.415  -4.219  -4.515  0.00  0.00    -0.273 OA
ATOM      8  C   UNL     1       4.585  -3.261  -2.363  0.00  0.00    +0.104 C 
ATOM      9  C   UNL     1       4.443  -1.800  -1.919  0.00  0.00    +0.074 C 
BRANCH   5  10
ATOM     10  C   UNL     1       2.285  -2.846  -5.313  0.00  0.00    +0.060 A 
ATOM     11  C   UNL     1       0.912  -3.022  -5.427  0.00  0.00    +0.025 A 
ATOM     12  C   UNL     1       0.338  -3.170  -6.674  0.00  0.00    +0.002 A 
ATOM     13  C   UNL     1       1.128  -3.144  -7.809  0.00  0.00    +0.000 A 
ATOM     14  C   UNL     1       2.495  -2.970  -7.698  0.00  0.00    +0.002 A 
ATOM     15  C   UNL     1       3.075  -2.815  -6.454  0.00  0.00    +0.025 A 
ENDBRANCH   5  10
ENDBRANCH   1   3
BRANCH   1  16
ATOM     16  O   UNL     1       1.149   0.016  -1.377  0.00  0.00    -0.448 OA
BRANCH  16  18
ATOM     17  C   UNL     1       0.909   2.373  -0.897  0.00  0.00    +0.062 C 
ATOM     18  C   UNL     1       0.625   0.945  -0.426  0.00  0.00    +0.259 C 
BRANCH  18  19
ATOM     19  C   UNL     1      -0.863   0.746  -0.296  0.00  0.00    +0.260 C 
ATOM     20  O   UNL     1      -1.458   0.072  -1.110  0.00  0.00    -0.271 OA
ATOM     21  N   UNL     1      -1.533   1.316   0.725  0.00  0.00    -0.268 N 
ATOM     22  C   UNL     1      -0.946   2.230   1.708  0.00  0.00    +0.118 C 
ATOM     23  C   UNL     1      -2.100   2.601   2.654  0.00  0.00    +0.056 C 
ATOM     24  C   UNL     1      -3.292   1.843   2.115  0.00  0.00    -0.024 A 
ATOM     25  C   UNL     1      -2.891   1.128   0.998  0.00  0.00    +0.040 A 
ATOM     26  C   UNL     1      -3.830   0.348   0.320  0.00  0.00    +0.024 A 
ATOM     27  C   UNL     1      -5.137   0.297   0.756  0.00  0.00    +0.002 A 
ATOM     28  C   UNL     1      -5.527   1.017   1.870  0.00  0.00    +0.000 A 
ATOM     29  C   UNL     1      -4.601   1.785   2.552  0.00  0.00    +0.005 A 
ENDBRANCH  18  19
ENDBRANCH  16  18
ENDBRANCH   1  16
TORSDOF 5
