REMARK  Name = ZINC31054632
REMARK  7 active torsions:
REMARK  status: ('A' for Active; 'I' for Inactive)
REMARK    1  A    between atoms: C_1  and  C_2
REMARK    2  A    between atoms: C_2  and  O_3
REMARK    3  A    between atoms: O_3  and  C_4
REMARK    4  A    between atoms: C_12  and  C_14
REMARK    5  A    between atoms: N_19  and  C_21
REMARK    6  A    between atoms: C_21  and  C_22
REMARK    7  A    between atoms: C_24  and  C_27
REMARK                            x       y       z     vdW  Elec       q    Type
REMARK                         _______ _______ _______ _____ _____    ______ ____
ROOT
ATOM      1  C   UNL     1      -0.926   5.371  -1.896  0.00  0.00    +0.059 C 
ATOM      2  C   UNL     1      -2.444   5.527  -1.766  0.00  0.00    +0.009 C 
ATOM      3  C   UNL     1      -2.792   7.017  -1.708  0.00  0.00    -0.018 C 
ATOM      4  C   UNL     1      -2.259   7.711  -2.963  0.00  0.00    -0.078 C 
ATOM      5  N   UNL     1      -0.803   7.532  -3.042  0.00  0.00    +0.386 N 
ATOM      6  C   UNL     1      -0.447   6.112  -3.147  0.00  0.00    -0.065 C 
ATOM      7  H   UNL     1      -0.367   7.919  -2.109  0.00  0.00    -0.081 HD
ENDROOT
BRANCH   1  16
ATOM      8  C   UNL     1       0.963   1.193   2.259  0.00  0.00    +0.403 C 
ATOM      9  O   UNL     1       1.165  -0.001   2.159  0.00  0.00    -0.226 OA
ATOM     10  N   UNL     1       0.866   1.954   1.151  0.00  0.00    -0.264 N 
ATOM     11  C   UNL     1       1.002   1.354  -0.184  0.00  0.00    +0.130 C 
ATOM     12  C   UNL     1      -0.241   1.702  -1.011  0.00  0.00    +0.127 C 
ATOM     13  N   UNL     1      -0.486   3.147  -0.906  0.00  0.00    -0.298 N 
ATOM     14  C   UNL     1      -0.626   3.747   0.428  0.00  0.00    +0.127 C 
ATOM     15  C   UNL     1       0.618   3.400   1.255  0.00  0.00    +0.130 C 
ATOM     16  C   UNL     1      -0.580   3.909  -2.014  0.00  0.00    +0.217 C 
ATOM     17  O   UNL     1      -0.385   3.418  -3.106  0.00  0.00    -0.275 OA
BRANCH   8  18
ATOM     18  O   UNL     1       0.837   1.755   3.475  0.00  0.00    -0.451 OA
BRANCH  18  20
ATOM     19  C   UNL     1       0.782   1.688   5.909  0.00  0.00    +0.048 C 
ATOM     20  C   UNL     1       0.952   0.875   4.624  0.00  0.00    +0.230 C 
ENDBRANCH  18  20
ENDBRANCH   8  18
ENDBRANCH   1  16
BRANCH   5  21
ATOM     21  C   UNL     1      -0.238   8.301  -4.159  0.00  0.00    +0.022 C 
BRANCH  21  22
ATOM     22  C   UNL     1      -0.410   9.774  -3.893  0.00  0.00    +0.211 A 
ATOM     23  N   UNL     1       0.432  10.555  -3.265  0.00  0.00    -0.193 NA
ATOM     24  C   UNL     1      -0.137  11.782  -3.270  0.00  0.00    +0.203 A 
ATOM     25  N   UNL     1      -1.284  11.673  -3.888  0.00  0.00    -0.056 NA
ATOM     26  O   UNL     1      -1.455  10.528  -4.251  0.00  0.00    -0.340 OA
BRANCH  24  27
ATOM     27  C   UNL     1       0.432  13.019  -2.680  0.00  0.00    +0.041 A 
ATOM     28  C   UNL     1       1.671  12.984  -2.043  0.00  0.00    +0.014 A 
ATOM     29  C   UNL     1       2.198  14.138  -1.501  0.00  0.00    +0.021 A 
ATOM     30  C   UNL     1       1.494  15.328  -1.579  0.00  0.00    +0.042 A 
ATOM     31  C   UNL     1       0.260  15.368  -2.205  0.00  0.00    +0.040 A 
ATOM     32  C   UNL     1      -0.274  14.219  -2.756  0.00  0.00    +0.053 A 
ATOM     33 CL   UNL     1      -1.822  14.269  -3.540  0.00  0.00    -0.083 Cl
ATOM     34 CL   UNL     1       2.160  16.775  -0.889  0.00  0.00    -0.083 Cl
ENDBRANCH  24  27
ENDBRANCH  21  22
ENDBRANCH   5  21
TORSDOF 6
