REMARK  Name = ZINC62926129
REMARK  4 active torsions:
REMARK  status: ('A' for Active; 'I' for Inactive)
REMARK    1  A    between atoms: C_1  and  C_2
REMARK    2  A    between atoms: C_2  and  C_19
REMARK    3  A    between atoms: N_9  and  C_10
REMARK    4  A    between atoms: C_16  and  N_18
REMARK                            x       y       z     vdW  Elec       q    Type
REMARK                         _______ _______ _______ _____ _____    ______ ____
ROOT
ATOM      1  C   UNL     1      -0.019   1.526   0.010  0.00  0.00    +0.024 C 
ATOM      2  C   UNL     1       0.002  -0.004   0.002  0.00  0.00    +0.086 C 
ATOM      3  C   UNL     1      -1.435  -0.573   0.140  0.00  0.00    +0.038 C 
ATOM      4  C   UNL     1      -1.645  -0.518   1.673  0.00  0.00    +0.110 C 
ATOM      5  N   UNL     1      -0.332  -0.863   2.247  0.00  0.00    -0.285 N 
ATOM      6  C   UNL     1       0.711  -0.547   1.260  0.00  0.00    +0.127 C 
ATOM      7  C   UNL     1      -0.122  -1.380   3.474  0.00  0.00    +0.302 C 
ATOM      8  O   UNL     1       1.010  -1.626   3.845  0.00  0.00    -0.253 OA
ATOM      9  N   UNL     1      -1.166  -1.625   4.290  0.00  0.00    -0.298 N 
ATOM     10  H   UNL     1      -2.069  -1.429   3.994  0.00  0.00    +0.150 HD
ENDROOT
BRANCH   9  11
ATOM     11  C   UNL     1      -0.938  -2.187   5.623  0.00  0.00    +0.060 C 
ATOM     12  C   UNL     1      -0.624  -1.058   6.606  0.00  0.00    +0.021 C 
ATOM     13  C   UNL     1      -0.385  -1.645   7.999  0.00  0.00    +0.002 C 
ATOM     14  C   UNL     1      -1.640  -2.388   8.460  0.00  0.00    -0.001 C 
ATOM     15  C   UNL     1      -1.955  -3.518   7.478  0.00  0.00    -0.014 C 
ATOM     16  C   UNL     1      -2.193  -2.930   6.085  0.00  0.00    -0.054 C 
BRANCH  16  17
ATOM     17  N   UNL     1      -2.495  -4.015   5.141  0.00  0.00    +0.381 N 
ATOM     18  H   UNL     1      -1.717  -4.657   5.107  0.00  0.00    -0.090 HD
ATOM     19  H   UNL     1      -3.323  -4.505   5.446  0.00  0.00    -0.090 HD
ATOM     20  H   UNL     1      -2.652  -3.628   4.223  0.00  0.00    -0.090 HD
ENDBRANCH  16  17
ENDBRANCH   9  11
BRANCH   2  21
ATOM     21  C   UNL     1       0.666  -0.519  -1.249  0.00  0.00    +0.363 C 
ATOM     22  O   UNL     1       1.820  -0.213  -1.497  0.00  0.00    -0.246 OA
ATOM     23  O   UNL     1       0.050  -1.243  -2.012  0.00  0.00    -0.246 OA
ENDBRANCH   2  21
TORSDOF 3
