REMARK  Name = ZINC06869505
REMARK  11 active torsions:
REMARK  status: ('A' for Active; 'I' for Inactive)
REMARK    1  A    between atoms: C_1  and  C_2
REMARK    2  A    between atoms: C_2  and  N_60
REMARK    3  A    between atoms: C_3  and  C_4
REMARK    4  A    between atoms: C_3  and  N_60
REMARK    5  A    between atoms: C_5  and  C_6
REMARK    6  A    between atoms: C_5  and  N_60
REMARK    7  A    between atoms: C_6  and  N_7
REMARK    8  A    between atoms: C_8  and  C_23
REMARK    9  A    between atoms: C_26  and  N_29
REMARK   10  A    between atoms: N_29  and  C_30
REMARK   11  A    between atoms: N_29  and  C_31
REMARK                            x       y       z     vdW  Elec       q    Type
REMARK                         _______ _______ _______ _____ _____    ______ ____
ROOT
ATOM      1  N   UNL     1       3.661  -2.131  -0.735  0.00  0.00    -0.285 N 
ATOM      2  C   UNL     1       2.203  -2.072  -0.893  0.00  0.00    +0.144 C 
ATOM      3  C   UNL     1       1.865  -0.617  -1.092  0.00  0.00    +0.072 A 
ATOM      4  C   UNL     1       0.598   0.088  -1.304  0.00  0.00    +0.199 A 
ATOM      5  O   UNL     1      -0.465  -0.505  -1.347  0.00  0.00    -0.287 OA
ATOM      6  C   UNL     1       0.674   1.554  -1.462  0.00  0.00    +0.064 A 
ATOM      7  C   UNL     1      -0.468   2.324  -1.674  0.00  0.00    +0.015 A 
ATOM      8  C   UNL     1      -0.354   3.680  -1.810  0.00  0.00    +0.001 A 
ATOM      9  C   UNL     1       0.891   4.288  -1.749  0.00  0.00    +0.004 A 
ATOM     10  C   UNL     1       2.032   3.543  -1.546  0.00  0.00    +0.047 A 
ATOM     11  C   UNL     1       1.940   2.161  -1.399  0.00  0.00    +0.139 A 
ATOM     12  O   UNL     1       3.044   1.419  -1.199  0.00  0.00    -0.450 OA
ATOM     13  C   UNL     1       3.027   0.080  -1.050  0.00  0.00    +0.199 A 
ATOM     14  C   UNL     1       4.139  -0.878  -0.826  0.00  0.00    +0.283 C 
ATOM     15  O   UNL     1       5.311  -0.573  -0.739  0.00  0.00    -0.267 OA
ENDROOT
BRANCH   2  16
ATOM     16  C   UNL     1       1.779  -2.873  -2.097  0.00  0.00    -0.022 A 
ATOM     17  C   UNL     1       2.553  -2.859  -3.242  0.00  0.00    +0.007 A 
ATOM     18  C   UNL     1       2.170  -3.597  -4.345  0.00  0.00    +0.023 A 
ATOM     19  C   UNL     1       1.000  -4.343  -4.307  0.00  0.00    +0.029 A 
ATOM     20  C   UNL     1       0.221  -4.350  -3.157  0.00  0.00    +0.023 A 
ATOM     21  C   UNL     1       0.613  -3.615  -2.055  0.00  0.00    +0.007 A 
BRANCH  19  22
ATOM     22  N   UNL     1       0.607  -5.086  -5.423  0.00  0.00    -0.336 N 
ATOM     23  C   UNL     1      -0.693  -5.763  -5.432  0.00  0.00    +0.129 C 
ATOM     24  C   UNL     1       1.494  -5.189  -6.584  0.00  0.00    +0.129 C 
ENDBRANCH  19  22
ENDBRANCH   2  16
BRANCH   1  25
ATOM     25  C   UNL     1       4.456  -3.342  -0.515  0.00  0.00    +0.090 C 
BRANCH  25  26
ATOM     26  C   UNL     1       4.584  -3.602   0.987  0.00  0.00    -0.060 C 
BRANCH  26  27
ATOM     27  N   UNL     1       5.405  -4.814   1.193  0.00  0.00    +0.380 N 
ATOM     28  H   UNL     1       6.280  -4.717   0.664  0.00  0.00    -0.082 HD
BRANCH  27  30
ATOM     29  C   UNL     1       6.835  -3.980   2.992  0.00  0.00    -0.017 C 
ATOM     30  C   UNL     1       5.726  -4.969   2.627  0.00  0.00    -0.082 C 
ENDBRANCH  27  30
BRANCH  27  31
ATOM     31  C   UNL     1       4.679  -6.005   0.706  0.00  0.00    -0.082 C 
ATOM     32  C   UNL     1       5.670  -7.163   0.569  0.00  0.00    -0.017 C 
ENDBRANCH  27  31
ENDBRANCH  26  27
ENDBRANCH  25  26
ENDBRANCH   1  25
TORSDOF 7
