REMARK  Name = ZINC09092356
REMARK  7 active torsions:
REMARK  status: ('A' for Active; 'I' for Inactive)
REMARK    1  A    between atoms: C_1  and  C_2
REMARK    2  A    between atoms: C_5  and  C_27
REMARK    3  A    between atoms: C_10  and  C_12
REMARK    4  A    between atoms: C_12  and  S_13
REMARK    5  A    between atoms: S_13  and  C_14
REMARK    6  A    between atoms: C_17  and  C_20
REMARK    7  A    between atoms: N_18  and  N_19
REMARK                            x       y       z     vdW  Elec       q    Type
REMARK                         _______ _______ _______ _____ _____    ______ ____
ROOT
ATOM      1  C   UNL     1       5.882  -2.455   1.765  0.00  0.00    +0.209 A 
ATOM      2  N   UNL     1       6.021  -1.163   1.565  0.00  0.00    -0.121 NA
ATOM      3  N   UNL     1       7.266  -0.845   1.591  0.00  0.00    -0.127 NA
ATOM      4  C   UNL     1       7.998  -1.913   1.809  0.00  0.00    +0.183 A 
ATOM      5  N   UNL     1       7.133  -2.976   1.933  0.00  0.00    -0.224 N 
ENDROOT
BRANCH   4   6
ATOM      6  C   UNL     1       9.472  -1.963   1.908  0.00  0.00    +0.035 A 
ATOM      7  C   UNL     1      10.189  -2.931   1.204  0.00  0.00    +0.013 A 
ATOM      8  C   UNL     1      11.565  -2.972   1.300  0.00  0.00    +0.001 A 
ATOM      9  C   UNL     1      12.234  -2.056   2.093  0.00  0.00    +0.001 A 
ATOM     10  C   UNL     1      11.530  -1.094   2.793  0.00  0.00    +0.016 A 
ATOM     11  C   UNL     1      10.153  -1.038   2.702  0.00  0.00    +0.029 A 
ATOM     12 BR   UNL     1       9.192   0.283   3.654  0.00  0.00    -0.050 Br
ENDBRANCH   4   6
BRANCH   5  13
ATOM     13  N   UNL     1       7.458  -4.281   2.171  0.00  0.00    -0.295 N 
ATOM     14  H   UNL     1       7.688  -4.759   1.312  0.00  0.00    +0.163 HD
ATOM     15  H   UNL     1       8.214  -4.349   2.836  0.00  0.00    +0.163 HD
ENDBRANCH   5  13
BRANCH   1  16
ATOM     16  S   UNL     1       4.363  -3.347   1.815  0.00  0.00    -0.075 S 
BRANCH  16  17
ATOM     17  C   UNL     1       3.100  -2.078   1.522  0.00  0.00    +0.173 C 
BRANCH  17  25
ATOM     18  C   UNL     1       0.006   1.357  -0.371  0.00  0.00    +0.009 C 
ATOM     19  C   UNL     1       0.010  -0.161  -0.183  0.00  0.00    +0.004 C 
ATOM     20  C   UNL     1      -1.431  -0.669  -0.094  0.00  0.00    +0.009 C 
ATOM     21  C   UNL     1      -1.429  -2.192   0.061  0.00  0.00    +0.004 C 
ATOM     22  C   UNL     1      -0.703  -2.568   1.356  0.00  0.00    +0.111 C 
ATOM     23  N   UNL     1       0.635  -1.961   1.342  0.00  0.00    -0.300 N 
ATOM     24  C   UNL     1       0.753  -0.515   1.109  0.00  0.00    +0.111 C 
ATOM     25  C   UNL     1       1.734  -2.716   1.539  0.00  0.00    +0.226 C 
ATOM     26  O   UNL     1       1.624  -3.908   1.730  0.00  0.00    -0.275 OA
ATOM     27  C   UNL     1      -2.870  -2.701   0.116  0.00  0.00    +0.009 C 
ENDBRANCH  17  25
ENDBRANCH  16  17
ENDBRANCH   1  16
TORSDOF 5
