REMARK  Name = ZINC63794995
REMARK  6 active torsions:
REMARK  status: ('A' for Active; 'I' for Inactive)
REMARK    1  A    between atoms: C_1  and  C_2
REMARK    2  A    between atoms: C_3  and  C_24
REMARK    3  A    between atoms: C_7  and  C_9
REMARK    4  A    between atoms: C_9  and  C_10
REMARK    5  A    between atoms: C_10  and  C_16
REMARK    6  A    between atoms: C_16  and  N_17
REMARK                            x       y       z     vdW  Elec       q    Type
REMARK                         _______ _______ _______ _____ _____    ______ ____
ROOT
ATOM      1  C   UNL     1      -7.360   2.518  -0.315  0.00  0.00    -0.007 C 
ATOM      2  C   UNL     1      -7.266   0.992  -0.252  0.00  0.00    +0.009 C 
ATOM      3  C   UNL     1      -8.002   0.386  -1.448  0.00  0.00    +0.001 C 
ATOM      4  C   UNL     1      -9.472   0.809  -1.411  0.00  0.00    +0.000 C 
ATOM      5  C   UNL     1      -9.565   2.334  -1.474  0.00  0.00    +0.001 C 
ATOM      6  C   UNL     1      -8.830   2.941  -0.277  0.00  0.00    +0.009 C 
ENDROOT
BRANCH   1   7
ATOM      7  C   UNL     1      -6.719   3.015  -1.612  0.00  0.00    +0.104 C 
BRANCH   7  14
ATOM      8  C   UNL     1      -0.486   0.615  -1.103  0.00  0.00    +0.066 C 
ATOM      9  C   UNL     1      -1.290   1.345  -2.148  0.00  0.00    +0.050 A 
ATOM     10  C   UNL     1      -0.755   1.673  -3.350  0.00  0.00    +0.011 A 
ATOM     11  S   UNL     1      -2.144   2.489  -4.120  0.00  0.00    -0.057 S 
ATOM     12  C   UNL     1      -3.240   2.329  -2.852  0.00  0.00    +0.165 A 
ATOM     13  N   UNL     1      -4.559   2.764  -2.790  0.00  0.00    -0.265 N 
ATOM     14  C   UNL     1      -5.289   2.543  -1.680  0.00  0.00    +0.219 C 
ATOM     15  O   UNL     1      -4.796   1.966  -0.734  0.00  0.00    -0.275 OA
ATOM     16  N   UNL     1      -2.547   1.688  -1.937  0.00  0.00    -0.230 NA
ATOM     17  H   UNL     1      -4.953   3.226  -3.547  0.00  0.00    +0.157 HD
ATOM     18  C   UNL     1       0.629   1.420  -3.888  0.00  0.00    +0.053 C 
ENDBRANCH   7  14
ENDBRANCH   1   7
BRANCH   1  19
ATOM     19  C   UNL     1      -6.624   3.124   0.882  0.00  0.00    +0.109 C 
BRANCH  19  20
ATOM     20  N   UNL     1      -7.253   2.665   2.127  0.00  0.00    -0.242 NA
ATOM     21  C   UNL     1      -6.792   3.469   3.283  0.00  0.00    +0.168 C 
ATOM     22  N   UNL     1      -6.711   2.484   4.394  0.00  0.00    -0.335 NA
ATOM     23  N   UNL     1      -6.224   1.271   3.719  0.00  0.00    +0.408 N 
ATOM     24  N   UNL     1      -6.894   1.278   2.416  0.00  0.00    -0.281 NA
ATOM     25  H   UNL     1      -6.060   2.790   5.102  0.00  0.00    +0.105 HD
ATOM     26  H   UNL     1      -5.223   1.313   3.599  0.00  0.00    -0.032 HD
ATOM     27  H   UNL     1      -6.292   0.903   1.698  0.00  0.00    +0.121 HD
ATOM     28  H   UNL     1      -6.482   0.449   4.243  0.00  0.00    -0.032 HD
ENDBRANCH  19  20
ENDBRANCH   1  19
TORSDOF 4
