REMARK  Name = ZINC36500782
REMARK  14 active torsions:
REMARK  status: ('A' for Active; 'I' for Inactive)
REMARK    1  A    between atoms: C_1  and  C_2
REMARK    2  A    between atoms: C_2  and  C_3
REMARK    3  A    between atoms: C_2  and  C_4
REMARK    4  A    between atoms: C_2  and  N_5
REMARK    5  A    between atoms: C_6  and  C_8
REMARK    6  A    between atoms: C_8  and  C_10
REMARK    7  A    between atoms: C_8  and  N_22
REMARK    8  A    between atoms: C_19  and  O_20
REMARK    9  A    between atoms: O_20  and  C_21
REMARK   10  A    between atoms: N_22  and  C_23
REMARK   11  A    between atoms: C_23  and  C_24
REMARK   12  A    between atoms: C_29  and  C_31
REMARK   13  A    between atoms: C_35  and  O_38
REMARK   14  A    between atoms: C_36  and  O_37
REMARK                            x       y       z     vdW  Elec       q    Type
REMARK                         _______ _______ _______ _____ _____    ______ ____
ROOT
ATOM      1  C   UNL     1       0.666  -1.690   0.278  0.00  0.00    +0.197 C 
ENDROOT
BRANCH   1   2
ATOM      2  C   UNL     1       1.841  -2.610   0.069  0.00  0.00    +0.031 A 
ATOM      3  C   UNL     1       2.327  -3.388   1.133  0.00  0.00    -0.009 A 
ATOM      4  C   UNL     1       1.736  -3.331   2.407  0.00  0.00    +0.009 A 
ATOM      5  C   UNL     1       2.233  -4.099   3.414  0.00  0.00    +0.001 A 
ATOM      6  C   UNL     1       3.321  -4.944   3.203  0.00  0.00    +0.001 A 
ATOM      7  C   UNL     1       3.918  -5.026   1.982  0.00  0.00    +0.008 A 
ATOM      8  C   UNL     1       3.433  -4.248   0.917  0.00  0.00    -0.017 A 
ATOM      9  C   UNL     1       4.024  -4.307  -0.357  0.00  0.00    +0.012 A 
ATOM     10  C   UNL     1       3.531  -3.541  -1.366  0.00  0.00    +0.046 A 
ATOM     11  C   UNL     1       2.436  -2.696  -1.157  0.00  0.00    +0.126 A 
BRANCH  11  12
ATOM     12  O   UNL     1       1.962  -1.946  -2.187  0.00  0.00    -0.495 OA
ATOM     13  C   UNL     1       2.686  -2.002  -3.417  0.00  0.00    +0.277 C 
ENDBRANCH  11  12
ENDBRANCH   1   2
BRANCH   1  15
ATOM     14  N   UNL     1      -1.115  -3.384  -0.001  0.00  0.00    -0.309 N 
ATOM     15  C   UNL     1      -0.540  -2.245  -0.435  0.00  0.00    +0.239 C 
ATOM     16  O   UNL     1      -0.993  -1.667  -1.400  0.00  0.00    -0.273 OA
ATOM     17  H   UNL     1      -0.752  -3.847   0.771  0.00  0.00    +0.149 HD
BRANCH  14  19
ATOM     18  C   UNL     1      -1.925  -4.225  -2.150  0.00  0.00    +0.031 C 
ATOM     19  C   UNL     1      -2.287  -3.924  -0.694  0.00  0.00    +0.026 C 
ATOM     20  C   UNL     1      -3.421  -2.898  -0.652  0.00  0.00    +0.031 C 
ATOM     21  C   UNL     1      -2.739  -5.213  -0.004  0.00  0.00    +0.031 C 
ENDBRANCH  14  19
ENDBRANCH   1  15
BRANCH   1  22
ATOM     22  N   UNL     1       0.982  -0.364  -0.257  0.00  0.00    -0.274 N 
ATOM     23  C   UNL     1      -0.007   0.519  -0.499  0.00  0.00    +0.252 C 
ATOM     24  O   UNL     1       0.237   1.564  -1.070  0.00  0.00    -0.270 OA
BRANCH  23  25
ATOM     25  C   UNL     1      -1.387   0.216  -0.072  0.00  0.00    +0.082 A 
ATOM     26  C   UNL     1      -1.633  -0.840   0.811  0.00  0.00    +0.017 A 
ATOM     27  C   UNL     1      -2.922  -1.119   1.208  0.00  0.00    +0.005 A 
ATOM     28  C   UNL     1      -3.980  -0.357   0.738  0.00  0.00    +0.049 A 
ATOM     29  C   UNL     1      -3.752   0.691  -0.137  0.00  0.00    +0.159 A 
ATOM     30  C   UNL     1      -2.455   0.989  -0.543  0.00  0.00    +0.171 A 
BRANCH  30  31
ATOM     31  O   UNL     1      -2.227   2.020  -1.396  0.00  0.00    -0.503 OA
ATOM     32  H   UNL     1      -2.253   1.771  -2.330  0.00  0.00    +0.292 HD
ENDBRANCH  30  31
BRANCH  29  33
ATOM     33  O   UNL     1      -4.795   1.434  -0.595  0.00  0.00    -0.503 OA
ATOM     34  H   UNL     1      -5.005   2.199  -0.043  0.00  0.00    +0.292 HD
ENDBRANCH  29  33
ENDBRANCH  23  25
BRANCH  22  35
ATOM     35  C   UNL     1       2.374   0.003  -0.530  0.00  0.00    +0.183 C 
BRANCH  35  36
ATOM     36  C   UNL     1       3.025   0.485   0.741  0.00  0.00    +0.122 A 
ATOM     37  C   UNL     1       3.746  -0.269   1.590  0.00  0.00    +0.046 A 
ATOM     38  C   UNL     1       4.163   0.581   2.640  0.00  0.00    +0.041 A 
ATOM     39  C   UNL     1       3.671   1.804   2.370  0.00  0.00    +0.195 A 
ATOM     40  O   UNL     1       2.988   1.741   1.215  0.00  0.00    -0.466 OA
ENDBRANCH  35  36
ENDBRANCH  22  35
ENDBRANCH   1  22
TORSDOF 10
