REMARK  Name = ZINC09667718
REMARK  10 active torsions:
REMARK  status: ('A' for Active; 'I' for Inactive)
REMARK    1  A    between atoms: C_1  and  C_2
REMARK    2  A    between atoms: C_5  and  S_8
REMARK    3  A    between atoms: S_8  and  N_11
REMARK    4  A    between atoms: N_11  and  C_12
REMARK    5  A    between atoms: N_11  and  C_19
REMARK    6  A    between atoms: C_12  and  C_13
REMARK    7  A    between atoms: C_19  and  C_20
REMARK    8  A    between atoms: N_22  and  C_23
REMARK    9  A    between atoms: C_27  and  N_30
REMARK   10  A    between atoms: C_28  and  C_29
REMARK                            x       y       z     vdW  Elec       q    Type
REMARK                         _______ _______ _______ _____ _____    ______ ____
ROOT
ATOM      1  N   UNL     1      -1.873   1.317   1.598  0.00  0.00    -0.163 NA
ENDROOT
BRANCH   1   2
ATOM      2  S   UNL     1      -3.528   1.327   1.540  0.00  0.00    +0.062 S 
ATOM      3  O   UNL     1      -3.970   2.076   2.664  0.00  0.00    -0.153 OA
ATOM      4  O   UNL     1      -3.885   1.670   0.208  0.00  0.00    -0.153 OA
BRANCH   2   9
ATOM      5  C   UNL     1      -5.381  -4.348   2.414  0.00  0.00    +0.044 C 
ATOM      6  C   UNL     1      -4.919  -2.930   2.196  0.00  0.00    -0.050 A 
ATOM      7  C   UNL     1      -4.746  -2.085   3.276  0.00  0.00    +0.005 A 
ATOM      8  C   UNL     1      -4.322  -0.785   3.076  0.00  0.00    +0.029 A 
ATOM      9  C   UNL     1      -4.069  -0.330   1.795  0.00  0.00    +0.106 A 
ATOM     10  C   UNL     1      -4.246  -1.174   0.714  0.00  0.00    +0.029 A 
ATOM     11  C   UNL     1      -4.667  -2.475   0.915  0.00  0.00    +0.005 A 
ENDBRANCH   2   9
ENDBRANCH   1   2
BRANCH   1  12
ATOM     12  C   UNL     1      -1.184   1.519   2.875  0.00  0.00    +0.145 C 
BRANCH  12  13
ATOM     13  C   UNL     1      -0.821   2.974   3.025  0.00  0.00    -0.032 A 
ATOM     14  C   UNL     1       0.398   3.433   2.565  0.00  0.00    +0.005 A 
ATOM     15  C   UNL     1       0.729   4.769   2.698  0.00  0.00    +0.000 A 
ATOM     16  C   UNL     1      -0.156   5.643   3.301  0.00  0.00    +0.000 A 
ATOM     17  C   UNL     1      -1.373   5.182   3.767  0.00  0.00    +0.000 A 
ATOM     18  C   UNL     1      -1.706   3.848   3.629  0.00  0.00    +0.005 A 
ENDBRANCH  12  13
ENDBRANCH   1  12
BRANCH   1  19
ATOM     19  C   UNL     1      -1.098   1.105   0.373  0.00  0.00    +0.205 C 
BRANCH  19  20
ATOM     20  C   UNL     1      -0.745  -0.354   0.248  0.00  0.00    +0.233 C 
ATOM     21  O   UNL     1      -1.105  -1.141   1.099  0.00  0.00    -0.274 OA
ATOM     22  N   UNL     1      -0.029  -0.786  -0.809  0.00  0.00    -0.284 N 
ATOM     23  H   UNL     1       0.196  -0.173  -1.526  0.00  0.00    +0.155 HD
BRANCH  22  24
ATOM     24  C   UNL     1       0.392  -2.119  -0.872  0.00  0.00    +0.039 A 
ATOM     25  C   UNL     1       0.451  -2.886   0.285  0.00  0.00    +0.024 A 
ATOM     26  C   UNL     1       0.866  -4.201   0.220  0.00  0.00    +0.004 A 
ATOM     27  C   UNL     1       1.223  -4.755  -0.996  0.00  0.00    +0.033 A 
ATOM     28  C   UNL     1       1.165  -3.995  -2.149  0.00  0.00    +0.131 A 
ATOM     29  C   UNL     1       0.746  -2.681  -2.092  0.00  0.00    +0.001 A 
ATOM     30  C   UNL     1       0.677  -1.855  -3.350  0.00  0.00    +0.048 C 
BRANCH  28  31
ATOM     31  N   UNL     1       1.549  -4.592  -3.448  0.00  0.00    +0.057 N 
ATOM     32  O   UNL     1       1.783  -5.785  -3.525  0.00  0.00    -0.126 OA
ATOM     33  O   UNL     1       1.631  -3.891  -4.441  0.00  0.00    -0.126 OA
ENDBRANCH  28  31
ENDBRANCH  22  24
ENDBRANCH  19  20
ENDBRANCH   1  19
TORSDOF 8
