REMARK  Name = ZINC65834566
REMARK  6 active torsions:
REMARK  status: ('A' for Active; 'I' for Inactive)
REMARK    1  A    between atoms: C_3  and  C_6
REMARK    2  A    between atoms: C_9  and  C_14
REMARK    3  A    between atoms: N_16  and  C_17
REMARK    4  A    between atoms: C_17  and  C_18
REMARK    5  A    between atoms: C_21  and  S_24
REMARK    6  A    between atoms: S_24  and  N_27
REMARK                            x       y       z     vdW  Elec       q    Type
REMARK                         _______ _______ _______ _____ _____    ______ ____
ROOT
ATOM      1  C   UNL     1       7.784   0.484  -0.070  0.00  0.00    +0.250 C 
ATOM      2  O   UNL     1       8.434   1.509  -0.160  0.00  0.00    -0.270 OA
ATOM      3  N   UNL     1       8.411  -0.706   0.013  0.00  0.00    -0.307 N 
ATOM      4  H   UNL     1       7.894  -1.528   0.011  0.00  0.00    +0.149 HD
ENDROOT
BRANCH   1   8
ATOM      5  C   UNL     1       3.560   0.618  -0.023  0.00  0.00    +0.085 A 
ATOM      6  C   UNL     1       4.277   1.808   0.000  0.00  0.00    +0.030 A 
ATOM      7  C   UNL     1       5.661   1.779  -0.015  0.00  0.00    +0.020 A 
ATOM      8  C   UNL     1       6.318   0.544  -0.053  0.00  0.00    +0.101 A 
ATOM      9  C   UNL     1       5.552  -0.648  -0.075  0.00  0.00    +0.261 A 
ATOM     10  O   UNL     1       6.112  -1.730  -0.108  0.00  0.00    -0.267 OA
ATOM     11  N   UNL     1       4.208  -0.587  -0.054  0.00  0.00    -0.319 N 
ATOM     12  H   UNL     1       3.691  -1.408  -0.066  0.00  0.00    +0.169 HD
BRANCH   5  15
ATOM     13  C   UNL     1      -0.016   1.348   0.030  0.00  0.00    +0.042 A 
ATOM     14  C   UNL     1       1.320   1.779   0.025  0.00  0.00    +0.051 A 
ATOM     15  C   UNL     1       2.096   0.654  -0.007  0.00  0.00    +0.151 A 
ATOM     16  O   UNL     1       1.277  -0.417  -0.020  0.00  0.00    -0.461 OA
ATOM     17  C   UNL     1       0.002  -0.003   0.002  0.00  0.00    +0.196 A 
ENDBRANCH   5  15
ENDBRANCH   1   8
BRANCH   3  18
ATOM     18  C   UNL     1       9.872  -0.760   0.109  0.00  0.00    +0.139 C 
BRANCH  18  19
ATOM     19  C   UNL     1      10.318  -2.197   0.190  0.00  0.00    -0.030 A 
ATOM     20  C   UNL     1      10.440  -2.814   1.421  0.00  0.00    +0.007 A 
ATOM     21  C   UNL     1      10.849  -4.132   1.496  0.00  0.00    +0.029 A 
ATOM     22  C   UNL     1      11.135  -4.834   0.339  0.00  0.00    +0.105 A 
ATOM     23  C   UNL     1      11.012  -4.217  -0.891  0.00  0.00    +0.029 A 
ATOM     24  C   UNL     1      10.598  -2.900  -0.966  0.00  0.00    +0.007 A 
BRANCH  22  25
ATOM     25  S   UNL     1      11.657  -6.514   0.434  0.00  0.00    +0.056 S 
ATOM     26  O   UNL     1      12.387  -6.780  -0.755  0.00  0.00    -0.153 OA
ATOM     27  O   UNL     1      12.218  -6.692   1.728  0.00  0.00    -0.153 OA
BRANCH  25  28
ATOM     28  N   UNL     1      10.296  -7.454   0.375  0.00  0.00    -0.204 NA
ATOM     29  H   UNL     1       9.422  -7.039   0.301  0.00  0.00    +0.144 HD
ATOM     30  H   UNL     1      10.371  -8.420   0.415  0.00  0.00    +0.144 HD
ENDBRANCH  25  28
ENDBRANCH  22  25
ENDBRANCH  18  19
ENDBRANCH   3  18
TORSDOF 6
