REMARK  Name = ZINC43254847
REMARK  9 active torsions:
REMARK  status: ('A' for Active; 'I' for Inactive)
REMARK    1  A    between atoms: C_6  and  C_7
REMARK    2  A    between atoms: C_7  and  N_8
REMARK    3  A    between atoms: C_12  and  C_36
REMARK    4  A    between atoms: C_16  and  C_17
REMARK    5  A    between atoms: C_17  and  C_19
REMARK    6  A    between atoms: C_17  and  N_26
REMARK    7  A    between atoms: C_19  and  C_20
REMARK    8  A    between atoms: C_27  and  C_29
REMARK    9  A    between atoms: C_29  and  C_30
REMARK                            x       y       z     vdW  Elec       q    Type
REMARK                         _______ _______ _______ _____ _____    ______ ____
ROOT
ATOM      1  N   UNL     1      -1.726  -1.017  -1.368  0.00  0.00    -0.322 N 
ATOM      2  C   UNL     1      -2.530  -0.196  -2.126  0.00  0.00    +0.069 A 
ATOM      3  C   UNL     1      -3.155   1.025  -1.891  0.00  0.00    +0.029 A 
ATOM      4  C   UNL     1      -3.910   1.607  -2.866  0.00  0.00    +0.017 A 
ATOM      5  C   UNL     1      -4.063   0.984  -4.114  0.00  0.00    +0.065 A 
ATOM      6  C   UNL     1      -3.444  -0.238  -4.367  0.00  0.00    +0.045 A 
ATOM      7  C   UNL     1      -2.673  -0.835  -3.371  0.00  0.00    +0.090 A 
ATOM      8  N   UNL     1      -1.961  -1.991  -3.307  0.00  0.00    -0.230 NA
ATOM      9  C   UNL     1      -1.403  -2.093  -2.136  0.00  0.00    +0.132 A 
ENDROOT
BRANCH   5  10
ATOM     10  C   UNL     1      -4.881   1.624  -5.159  0.00  0.00    +0.387 C 
ATOM     11  O   UNL     1      -5.426   2.696  -4.938  0.00  0.00    -0.241 OA
ATOM     12  O   UNL     1      -5.016   1.082  -6.247  0.00  0.00    -0.241 OA
ENDBRANCH   5  10
BRANCH   1  13
ATOM     13  C   UNL     1      -1.293  -0.775   0.011  0.00  0.00    +0.158 C 
BRANCH  13  19
ATOM     14  C   UNL     1      -0.017   1.378   0.010  0.00  0.00    +0.007 A 
ATOM     15  C   UNL     1       1.171   2.086   0.002  0.00  0.00    +0.020 A 
ATOM     16  C   UNL     1       2.378   1.410  -0.013  0.00  0.00    +0.041 A 
ATOM     17  C   UNL     1       2.396   0.027  -0.021  0.00  0.00    +0.020 A 
ATOM     18  C   UNL     1       1.208  -0.679  -0.013  0.00  0.00    +0.007 A 
ATOM     19  C   UNL     1       0.002  -0.004   0.002  0.00  0.00    -0.028 A 
ATOM     20 CL   UNL     1       3.870   2.298  -0.023  0.00  0.00    -0.084 Cl
ENDBRANCH  13  19
ENDBRANCH   1  13
BRANCH   9  21
ATOM     21  C   UNL     1      -0.530  -3.239  -1.694  0.00  0.00    +0.145 C 
BRANCH  21  22
ATOM     22  N   UNL     1      -1.148  -4.506  -2.093  0.00  0.00    -0.305 N 
ATOM     23  C   UNL     1      -0.865  -5.636  -1.415  0.00  0.00    +0.214 C 
ATOM     24  O   UNL     1      -0.100  -5.604  -0.475  0.00  0.00    -0.276 OA
ATOM     25  H   UNL     1      -1.760  -4.532  -2.845  0.00  0.00    +0.149 HD
BRANCH  23  26
ATOM     26  C   UNL     1      -1.501  -6.940  -1.825  0.00  0.00    +0.099 C 
BRANCH  26  27
ATOM     27  C   UNL     1      -1.016  -8.057  -0.900  0.00  0.00    -0.002 C 
ATOM     28  C   UNL     1       0.488  -8.262  -1.092  0.00  0.00    +0.004 C 
ATOM     29  C   UNL     1       0.974  -9.380  -0.167  0.00  0.00    +0.000 C 
ATOM     30  C   UNL     1       0.235 -10.677  -0.503  0.00  0.00    +0.000 C 
ATOM     31  C   UNL     1      -1.269 -10.472  -0.310  0.00  0.00    +0.000 C 
ATOM     32  C   UNL     1      -1.754  -9.354  -1.236  0.00  0.00    +0.004 C 
ENDBRANCH  26  27
ENDBRANCH  23  26
ENDBRANCH  21  22
BRANCH  21  33
ATOM     33  C   UNL     1       0.847  -3.114  -2.350  0.00  0.00    +0.084 C 
BRANCH  33  34
ATOM     34  C   UNL     1       1.758  -4.188  -1.814  0.00  0.00    +0.035 A 
ATOM     35  C   UNL     1       2.485  -4.132  -0.682  0.00  0.00    +0.105 A 
ATOM     36  N   UNL     1       3.158  -5.286  -0.564  0.00  0.00    -0.352 N 
ATOM     37  H   UNL     1       1.619  -5.748  -3.206  0.00  0.00    +0.166 HD
ATOM     38  C   UNL     1       2.876  -6.055  -1.580  0.00  0.00    +0.171 A 
ATOM     39  N   UNL     1       2.001  -5.410  -2.381  0.00  0.00    -0.350 N 
ATOM     40  H   UNL     1       3.760  -5.514   0.162  0.00  0.00    +0.166 HD
ENDBRANCH  33  34
ENDBRANCH  21  33
ENDBRANCH   9  21
TORSDOF 9
