REMARK  Name = ZINC08779884
REMARK  12 active torsions:
REMARK  status: ('A' for Active; 'I' for Inactive)
REMARK    1  A    between atoms: C_1  and  C_2
REMARK    2  A    between atoms: C_2  and  O_3
REMARK    3  A    between atoms: O_3  and  C_4
REMARK    4  A    between atoms: C_7  and  C_10
REMARK    5  A    between atoms: C_12  and  C_22
REMARK    6  A    between atoms: C_13  and  O_21
REMARK    7  A    between atoms: N_16  and  C_17
REMARK    8  A    between atoms: C_17  and  C_18
REMARK    9  A    between atoms: C_18  and  N_55
REMARK   10  A    between atoms: C_19  and  N_55
REMARK   11  A    between atoms: C_20  and  N_55
REMARK   12  A    between atoms: C_22  and  C_24
REMARK                            x       y       z     vdW  Elec       q    Type
REMARK                         _______ _______ _______ _____ _____    ______ ____
ROOT
ATOM      1  C   UNL     1      -0.407  -0.507   5.360  0.00  0.00    +0.144 C 
ATOM      2  C   UNL     1       0.565  -0.304   6.499  0.00  0.00    +0.071 C 
ATOM      3  C   UNL     1       1.140   0.906   6.311  0.00  0.00    +0.188 C 
ATOM      4  C   UNL     1       0.591   1.519   5.083  0.00  0.00    +0.282 C 
ATOM      5  O   UNL     1       0.909   2.607   4.644  0.00  0.00    -0.267 OA
ATOM      6  N   UNL     1      -0.311   0.694   4.522  0.00  0.00    -0.285 N 
ENDROOT
BRANCH   1  10
ATOM      7  C   UNL     1       0.687  -3.966   3.101  0.00  0.00    +0.121 A 
ATOM      8  C   UNL     1      -0.481  -3.965   3.850  0.00  0.00    +0.046 A 
ATOM      9  C   UNL     1      -0.832  -2.846   4.579  0.00  0.00    +0.009 A 
ATOM     10  C   UNL     1      -0.021  -1.726   4.564  0.00  0.00    -0.022 A 
ATOM     11  C   UNL     1       1.141  -1.722   3.814  0.00  0.00    +0.009 A 
ATOM     12  C   UNL     1       1.500  -2.841   3.087  0.00  0.00    +0.046 A 
BRANCH   7  13
ATOM     13  O   UNL     1       1.036  -5.066   2.383  0.00  0.00    -0.492 OA
BRANCH  13  15
ATOM     14  C   UNL     1       2.475  -6.316   0.899  0.00  0.00    +0.048 C 
ATOM     15  C   UNL     1       2.252  -4.994   1.636  0.00  0.00    +0.225 C 
ENDBRANCH  13  15
ENDBRANCH   7  13
ENDBRANCH   1  10
BRANCH   3  16
ATOM     16  O   UNL     1       2.070   1.467   7.119  0.00  0.00    -0.502 OA
ATOM     17  H   UNL     1       2.330   2.362   6.757  0.00  0.00    +0.292 HD
ENDBRANCH   3  16
BRANCH   2  18
ATOM     18  C   UNL     1       0.830  -1.237   7.599  0.00  0.00    +0.195 C 
ATOM     19  O   UNL     1       1.923  -1.759   7.703  0.00  0.00    -0.287 OA
BRANCH  18  20
ATOM     20  C   UNL     1      -0.232  -1.542   8.581  0.00  0.00    +0.022 A 
ATOM     21  C   UNL     1      -1.503  -0.980   8.436  0.00  0.00    +0.013 A 
ATOM     22  C   UNL     1      -2.491  -1.274   9.352  0.00  0.00    +0.016 A 
ATOM     23  C   UNL     1      -2.222  -2.113  10.421  0.00  0.00    +0.018 A 
ATOM     24  C   UNL     1      -0.962  -2.669  10.572  0.00  0.00    +0.016 A 
ATOM     25  C   UNL     1       0.033  -2.389   9.660  0.00  0.00    +0.013 A 
ATOM     26 BR   UNL     1      -3.580  -2.504  11.677  0.00  0.00    -0.050 Br
ENDBRANCH  18  20
ENDBRANCH   2  18
BRANCH   6  27
ATOM     27  C   UNL     1      -1.070   0.952   3.295  0.00  0.00    +0.090 C 
BRANCH  27  28
ATOM     28  C   UNL     1      -0.287   0.423   2.091  0.00  0.00    -0.060 C 
BRANCH  28  31
ATOM     29  C   UNL     1      -0.448  -0.015  -0.284  0.00  0.00    -0.097 C 
ATOM     30  C   UNL     1      -1.155   2.124   0.602  0.00  0.00    -0.097 C 
ATOM     31  N   UNL     1      -1.074   0.672   0.865  0.00  0.00    +0.377 N 
ATOM     32  H   UNL     1      -2.023   0.303   0.998  0.00  0.00    -0.083 HD
ENDBRANCH  28  31
ENDBRANCH  27  28
ENDBRANCH   6  27
TORSDOF 9
