REMARK  Name = ZINC35784590
REMARK  11 active torsions:
REMARK  status: ('A' for Active; 'I' for Inactive)
REMARK    1  A    between atoms: C_1  and  C_2
REMARK    2  A    between atoms: C_5  and  C_9
REMARK    3  A    between atoms: C_7  and  C_8
REMARK    4  A    between atoms: C_12  and  C_15
REMARK    5  A    between atoms: N_19  and  C_20
REMARK    6  A    between atoms: C_21  and  C_23
REMARK    7  A    between atoms: C_23  and  N_24
REMARK    8  A    between atoms: N_24  and  C_25
REMARK    9  A    between atoms: N_24  and  C_26
REMARK   10  A    between atoms: C_26  and  C_27
REMARK   11  A    between atoms: C_26  and  C_28
REMARK                            x       y       z     vdW  Elec       q    Type
REMARK                         _______ _______ _______ _____ _____    ______ ____
ROOT
ATOM      1  C   UNL     1       0.398  -4.831   0.630  0.00  0.00    +0.069 C 
ATOM      2  N   UNL     1       0.347  -5.776   1.503  0.00  0.00    -0.181 NA
ATOM      3  N   UNL     1       0.236  -7.052   0.955  0.00  0.00    -0.185 N 
ATOM      4  C   UNL     1       0.209  -6.939  -0.512  0.00  0.00    +0.153 C 
ATOM      5  C   UNL     1       0.312  -5.421  -0.760  0.00  0.00    +0.088 C 
ATOM      6  C   UNL     1       0.165  -8.202   1.654  0.00  0.00    +0.219 C 
ATOM      7  O   UNL     1       0.070  -9.262   1.071  0.00  0.00    -0.276 OA
ENDROOT
BRANCH   1  12
ATOM      8  C   UNL     1       0.853   0.776   1.830  0.00  0.00    +0.044 C 
ATOM      9  C   UNL     1       0.734  -0.693   1.515  0.00  0.00    -0.048 A 
ATOM     10  C   UNL     1       0.665  -1.112   0.198  0.00  0.00    +0.004 A 
ATOM     11  C   UNL     1       0.555  -2.455  -0.097  0.00  0.00    +0.010 A 
ATOM     12  C   UNL     1       0.515  -3.393   0.937  0.00  0.00    -0.002 A 
ATOM     13  C   UNL     1       0.586  -2.963   2.264  0.00  0.00    +0.013 A 
ATOM     14  C   UNL     1       0.701  -1.617   2.545  0.00  0.00    -0.047 A 
ATOM     15  C   UNL     1       0.783  -1.152   3.975  0.00  0.00    +0.044 C 
ENDBRANCH   1  12
BRANCH   4  16
ATOM     16  C   UNL     1      -1.087  -7.477  -1.062  0.00  0.00    +0.041 A 
ATOM     17  C   UNL     1      -2.276  -7.477  -0.426  0.00  0.00    +0.025 A 
ATOM     18  C   UNL     1      -3.217  -8.069  -1.291  0.00  0.00    +0.019 A 
ATOM     19  C   UNL     1      -2.567  -8.409  -2.422  0.00  0.00    +0.085 A 
ATOM     20  N   UNL     1      -1.261  -8.043  -2.290  0.00  0.00    -0.352 N 
ATOM     21  C   UNL     1      -0.215  -8.230  -3.299  0.00  0.00    +0.148 C 
ENDBRANCH   4  16
BRANCH   6  22
ATOM     22  C   UNL     1       0.203  -8.172   3.160  0.00  0.00    +0.021 C 
BRANCH  22  23
ATOM     23  N   UNL     1       0.111  -9.543   3.680  0.00  0.00    +0.385 N 
ATOM     24  C   UNL     1      -1.200 -10.110   3.336  0.00  0.00    -0.095 C 
ATOM     25  H   UNL     1       0.840 -10.107   3.271  0.00  0.00    -0.081 HD
BRANCH  23  26
ATOM     26  C   UNL     1       0.269  -9.524   5.141  0.00  0.00    -0.075 C 
ATOM     27  C   UNL     1       0.172 -10.951   5.683  0.00  0.00    -0.014 C 
ATOM     28  C   UNL     1       1.633  -8.933   5.499  0.00  0.00    -0.014 C 
ENDBRANCH  23  26
ENDBRANCH  22  23
ENDBRANCH   6  22
TORSDOF 5
