REMARK  Name = ZINC38888065
REMARK  8 active torsions:
REMARK  status: ('A' for Active; 'I' for Inactive)
REMARK    1  A    between atoms: C_1  and  C_2
REMARK    2  A    between atoms: C_6  and  C_8
REMARK    3  A    between atoms: C_10  and  C_13
REMARK    4  A    between atoms: C_13  and  N_14
REMARK    5  A    between atoms: C_18  and  C_21
REMARK    6  A    between atoms: N_23  and  C_24
REMARK    7  A    between atoms: C_24  and  C_25
REMARK    8  A    between atoms: C_25  and  C_26
REMARK                            x       y       z     vdW  Elec       q    Type
REMARK                         _______ _______ _______ _____ _____    ______ ____
ROOT
ATOM      1  N   UNL     1       1.501  -6.360   4.554  0.00  0.00    +0.386 N 
ATOM      2  C   UNL     1       2.156  -6.426   3.242  0.00  0.00    -0.078 C 
ATOM      3  C   UNL     1       3.629  -6.799   3.422  0.00  0.00    -0.018 C 
ATOM      4  C   UNL     1       3.724  -8.164   4.110  0.00  0.00    +0.009 C 
ATOM      5  C   UNL     1       2.973  -8.105   5.444  0.00  0.00    +0.058 C 
ATOM      6  C   UNL     1       1.524  -7.683   5.189  0.00  0.00    -0.065 C 
ATOM      7  H   UNL     1       1.988  -5.699   5.139  0.00  0.00    -0.081 HD
ENDROOT
BRANCH   5   8
ATOM      8  C   UNL     1       2.995  -9.465   6.094  0.00  0.00    +0.214 C 
ATOM      9  O   UNL     1       1.954 -10.039   6.334  0.00  0.00    -0.276 OA
ATOM     10  N   UNL     1       4.172 -10.042   6.409  0.00  0.00    -0.315 N 
ATOM     11  H   UNL     1       5.004  -9.582   6.216  0.00  0.00    +0.149 HD
BRANCH  10  12
ATOM     12  C   UNL     1       4.193 -11.363   7.040  0.00  0.00    +0.108 C 
BRANCH  12  13
ATOM     13  C   UNL     1       5.643 -11.786   7.290  0.00  0.00    +0.049 C 
BRANCH  13  14
ATOM     14  C   UNL     1       5.665 -13.145   7.940  0.00  0.00    -0.072 C 
ATOM     15  C   UNL     1       5.812 -14.180   7.177  0.00  0.00    -0.028 C 
ATOM     16  C   UNL     1       5.843 -15.595   7.677  0.00  0.00    +0.027 C 
ATOM     17  C   UNL     1       6.105 -15.616   9.184  0.00  0.00    +0.004 C 
ATOM     18  C   UNL     1       5.138 -14.635   9.858  0.00  0.00    +0.005 C 
ATOM     19  C   UNL     1       5.521 -13.214   9.432  0.00  0.00    +0.030 C 
ENDBRANCH  13  14
ENDBRANCH  12  13
ENDBRANCH  10  12
ENDBRANCH   5   8
BRANCH   1  20
ATOM     20  C   UNL     1       0.108  -5.926   4.382  0.00  0.00    +0.022 C 
BRANCH  20  23
ATOM     21  C   UNL     1       0.051  -2.846   2.464  0.00  0.00    +0.202 A 
ATOM     22  N   UNL     1       0.075  -4.185   2.585  0.00  0.00    -0.193 NA
ATOM     23  C   UNL     1       0.083  -4.518   3.844  0.00  0.00    +0.211 A 
ATOM     24  O   UNL     1       0.066  -3.400   4.580  0.00  0.00    -0.340 OA
ATOM     25  N   UNL     1       0.051  -2.316   3.662  0.00  0.00    -0.056 NA
BRANCH  21  31
ATOM     26  C   UNL     1      -0.018   1.503   0.010  0.00  0.00    +0.044 C 
ATOM     27  C   UNL     1       0.002  -0.004   0.002  0.00  0.00    -0.050 A 
ATOM     28  C   UNL     1       0.006  -0.688  -1.201  0.00  0.00    +0.003 A 
ATOM     29  C   UNL     1       0.024  -2.071  -1.216  0.00  0.00    +0.001 A 
ATOM     30  C   UNL     1       0.039  -2.776  -0.029  0.00  0.00    +0.012 A 
ATOM     31  C   UNL     1       0.036  -2.092   1.185  0.00  0.00    +0.023 A 
ATOM     32  C   UNL     1       0.023  -0.699   1.194  0.00  0.00    +0.015 A 
ENDBRANCH  21  31
ENDBRANCH  20  23
ENDBRANCH   1  20
TORSDOF 7
