REMARK  Name = ZINC14326602
REMARK  8 active torsions:
REMARK  status: ('A' for Active; 'I' for Inactive)
REMARK    1  A    between atoms: C_1  and  C_2
REMARK    2  A    between atoms: C_2  and  C_4
REMARK    3  A    between atoms: C_2  and  N_51
REMARK    4  A    between atoms: C_7  and  C_9
REMARK    5  A    between atoms: C_16  and  C_19
REMARK    6  A    between atoms: C_19  and  C_21
REMARK    7  A    between atoms: C_24  and  O_27
REMARK    8  A    between atoms: O_27  and  C_28
REMARK                            x       y       z     vdW  Elec       q    Type
REMARK                         _______ _______ _______ _____ _____    ______ ____
ROOT
ATOM      1  C   UNL     1      -6.229   1.430  -0.382  0.00  0.00    -0.077 C 
ATOM      2  C   UNL     1      -4.898   0.677  -0.350  0.00  0.00    -0.007 C 
ATOM      3  C   UNL     1      -3.805   1.603   0.191  0.00  0.00    +0.057 C 
ATOM      4  C   UNL     1      -4.208   2.096   1.583  0.00  0.00    -0.007 C 
ATOM      5  C   UNL     1      -5.560   2.809   1.495  0.00  0.00    -0.077 C 
ATOM      6  N   UNL     1      -6.572   1.857   0.991  0.00  0.00    +0.387 N 
ATOM      7  H   UNL     1      -6.587   1.031   1.602  0.00  0.00    -0.081 HD
ENDROOT
BRANCH   6   9
ATOM      8  C   UNL     1      -8.213   2.976   2.422  0.00  0.00    -0.004 C 
ATOM      9  C   UNL     1      -7.909   2.487   1.005  0.00  0.00    +0.018 C 
BRANCH   9  10
ATOM     10  C   UNL     1      -8.935   1.462   0.596  0.00  0.00    +0.204 A 
ATOM     11  N   UNL     1      -9.010   0.234   1.028  0.00  0.00    -0.114 NA
ATOM     12  N   UNL     1     -10.006  -0.359   0.470  0.00  0.00    -0.107 NA
ATOM     13  C   UNL     1     -10.607   0.479  -0.346  0.00  0.00    +0.255 A 
ATOM     14  O   UNL     1      -9.942   1.650  -0.276  0.00  0.00    -0.421 OA
BRANCH  13  15
ATOM     15  C   UNL     1     -11.788   0.194  -1.175  0.00  0.00    +0.076 A 
ATOM     16  C   UNL     1     -12.510  -0.980  -1.290  0.00  0.00    +0.021 A 
ATOM     17  C   UNL     1     -13.592  -1.002  -2.139  0.00  0.00    +0.008 A 
ATOM     18  C   UNL     1     -13.910   0.117  -2.840  0.00  0.00    +0.046 A 
ATOM     19  S   UNL     1     -12.659   1.271  -2.301  0.00  0.00    -0.092 S 
ENDBRANCH  13  15
ENDBRANCH   9  10
ENDBRANCH   6   9
BRANCH   3  20
ATOM     20  C   UNL     1      -2.504   0.849   0.281  0.00  0.00    +0.166 C 
ATOM     21  O   UNL     1      -2.510  -0.359   0.395  0.00  0.00    -0.292 OA
BRANCH  20  22
ATOM     22  C   UNL     1      -1.229   1.575   0.231  0.00  0.00    +0.018 A 
ATOM     23  C   UNL     1      -0.018   0.876   0.315  0.00  0.00    +0.015 A 
ATOM     24  C   UNL     1       1.170   1.559   0.261  0.00  0.00    +0.046 A 
ATOM     25  C   UNL     1       1.174   2.943   0.130  0.00  0.00    +0.120 A 
ATOM     26  C   UNL     1      -0.026   3.643   0.052  0.00  0.00    +0.046 A 
ATOM     27  C   UNL     1      -1.219   2.970   0.105  0.00  0.00    +0.015 A 
BRANCH  25  28
ATOM     28  O   UNL     1       2.352   3.614   0.077  0.00  0.00    -0.495 OA
ATOM     29  C   UNL     1       2.284   5.035  -0.058  0.00  0.00    +0.277 C 
ENDBRANCH  25  28
ENDBRANCH  20  22
ENDBRANCH   3  20
TORSDOF 6
