REMARK  Name = ZINC10063652
REMARK  10 active torsions:
REMARK  status: ('A' for Active; 'I' for Inactive)
REMARK    1  A    between atoms: C_3  and  C_10
REMARK    2  A    between atoms: C_5  and  N_7
REMARK    3  A    between atoms: C_10  and  S_11
REMARK    4  A    between atoms: S_11  and  C_12
REMARK    5  A    between atoms: C_15  and  C_29
REMARK    6  A    between atoms: N_16  and  C_17
REMARK    7  A    between atoms: C_17  and  C_18
REMARK    8  A    between atoms: N_20  and  C_21
REMARK    9  A    between atoms: C_21  and  C_22
REMARK   10  A    between atoms: C_29  and  O_30
REMARK                            x       y       z     vdW  Elec       q    Type
REMARK                         _______ _______ _______ _____ _____    ______ ____
ROOT
ATOM      1  C   UNL     1       0.002  -0.004   0.002  0.00  0.00    +0.170 A 
ATOM      2  N   UNL     1       1.077  -0.757  -0.018  0.00  0.00    -0.230 NA
ATOM      3  C   UNL     1       0.713  -2.051  -0.016  0.00  0.00    +0.137 A 
ATOM      4  C   UNL     1      -0.629  -2.112  -0.003  0.00  0.00    +0.065 A 
ATOM      5  N   UNL     1      -1.091  -0.815   0.008  0.00  0.00    -0.312 N 
ENDROOT
BRANCH   1   6
ATOM      6  S   UNL     1      -0.022   1.758   0.012  0.00  0.00    -0.083 S 
BRANCH   6   7
ATOM      7  C   UNL     1       1.756   2.096  -0.004  0.00  0.00    +0.112 C 
BRANCH   7  10
ATOM      8  C   UNL     1       2.309   5.629   1.207  0.00  0.00    +0.003 A 
ATOM      9  C   UNL     1       2.100   4.263   1.202  0.00  0.00    +0.004 A 
ATOM     10  C   UNL     1       1.984   3.586   0.002  0.00  0.00    -0.035 A 
ATOM     11  C   UNL     1       2.083   4.275  -1.192  0.00  0.00    +0.037 A 
ATOM     12  C   UNL     1       2.287   5.642  -1.187  0.00  0.00    +0.126 A 
ATOM     13  C   UNL     1       2.403   6.319   0.013  0.00  0.00    +0.033 A 
BRANCH  12  14
ATOM     14  N   UNL     1       2.387   6.380  -2.466  0.00  0.00    +0.056 N 
ATOM     15  O   UNL     1       2.572   7.584  -2.461  0.00  0.00    -0.126 OA
ATOM     16  O   UNL     1       2.285   5.784  -3.523  0.00  0.00    -0.126 OA
ENDBRANCH  12  14
ENDBRANCH   7  10
ENDBRANCH   6   7
ENDBRANCH   1   6
BRANCH   5  17
ATOM     17  C   UNL     1      -2.492  -0.389   0.024  0.00  0.00    +0.219 C 
BRANCH  17  18
ATOM     18  C   UNL     1      -2.987  -0.235  -1.391  0.00  0.00    +0.233 C 
ATOM     19  O   UNL     1      -2.242  -0.460  -2.321  0.00  0.00    -0.274 OA
ATOM     20  N   UNL     1      -4.257   0.151  -1.623  0.00  0.00    -0.310 N 
ATOM     21  H   UNL     1      -4.853   0.331  -0.879  0.00  0.00    +0.149 HD
BRANCH  20  22
ATOM     22  C   UNL     1      -4.738   0.301  -2.998  0.00  0.00    +0.139 C 
BRANCH  22  23
ATOM     23  C   UNL     1      -6.180   0.739  -2.982  0.00  0.00    -0.030 A 
ATOM     24  C   UNL     1      -7.189  -0.205  -2.983  0.00  0.00    +0.008 A 
ATOM     25  C   UNL     1      -8.511   0.195  -2.963  0.00  0.00    +0.038 A 
ATOM     26  C   UNL     1      -8.825   1.544  -2.953  0.00  0.00    +0.123 A 
ATOM     27  C   UNL     1      -7.814   2.489  -2.957  0.00  0.00    +0.038 A 
ATOM     28  C   UNL     1      -6.492   2.086  -2.972  0.00  0.00    +0.008 A 
ATOM     29  F   UNL     1     -10.118   1.937  -2.938  0.00  0.00    -0.205 F 
ENDBRANCH  22  23
ENDBRANCH  20  22
ENDBRANCH  17  18
ENDBRANCH   5  17
BRANCH   4  30
ATOM     30  C   UNL     1      -1.470  -3.363  -0.002  0.00  0.00    +0.210 C 
BRANCH  30  31
ATOM     31  O   UNL     1      -0.617  -4.510  -0.016  0.00  0.00    -0.389 OA
ATOM     32  H   UNL     1      -1.091  -5.353  -0.016  0.00  0.00    +0.210 HD
ENDBRANCH  30  31
ENDBRANCH   4  30
TORSDOF 10
