REMARK  Name = ZINC35745980
REMARK  14 active torsions:
REMARK  status: ('A' for Active; 'I' for Inactive)
REMARK    1  A    between atoms: C_1  and  C_2
REMARK    2  A    between atoms: C_2  and  C_3
REMARK    3  A    between atoms: C_2  and  C_4
REMARK    4  A    between atoms: C_4  and  O_5
REMARK    5  A    between atoms: O_5  and  C_6
REMARK    6  A    between atoms: C_6  and  C_7
REMARK    7  A    between atoms: C_7  and  C_9
REMARK    8  A    between atoms: C_7  and  O_36
REMARK    9  A    between atoms: C_9  and  N_10
REMARK   10  A    between atoms: N_10  and  C_11
REMARK   11  A    between atoms: N_10  and  C_17
REMARK   12  A    between atoms: C_11  and  C_12
REMARK   13  A    between atoms: C_17  and  C_18
REMARK   14  A    between atoms: C_24  and  C_29
REMARK                            x       y       z     vdW  Elec       q    Type
REMARK                         _______ _______ _______ _____ _____    ______ ____
ROOT
ATOM      1  C   UNL     1      -7.436  -0.326  -4.045  0.00  0.00    -0.003 C 
ENDROOT
BRANCH   1   2
ATOM      2  C   UNL     1      -7.989   0.177  -5.353  0.00  0.00    +0.094 A 
ATOM      3  N   UNL     1      -9.316   0.052  -5.608  0.00  0.00    -0.312 N 
ATOM      4  H   UNL     1      -9.892  -0.359  -4.944  0.00  0.00    +0.170 HD
ATOM      5  C   UNL     1      -9.851   0.488  -6.764  0.00  0.00    +0.260 A 
ATOM      6  O   UNL     1     -11.045   0.369  -6.978  0.00  0.00    -0.267 OA
ATOM      7  C   UNL     1      -8.995   1.094  -7.739  0.00  0.00    +0.080 A 
ATOM      8  C   UNL     1      -9.330   1.639  -9.049  0.00  0.00    +0.004 A 
ATOM      9  C   UNL     1      -8.339   2.170  -9.806  0.00  0.00    +0.056 A 
ATOM     10  S   UNL     1      -6.889   1.966  -8.791  0.00  0.00    -0.076 S 
ATOM     11  C   UNL     1      -7.638   1.180  -7.387  0.00  0.00    +0.116 A 
ATOM     12  N   UNL     1      -7.184   0.730  -6.221  0.00  0.00    -0.229 NA
BRANCH   8  13
ATOM     13  C   UNL     1     -10.727   1.611  -9.544  0.00  0.00    -0.016 A 
ATOM     14  C   UNL     1     -11.462   0.428  -9.498  0.00  0.00    +0.010 A 
ATOM     15  C   UNL     1     -12.762   0.408  -9.959  0.00  0.00    +0.020 A 
ATOM     16  C   UNL     1     -13.337   1.561 -10.467  0.00  0.00    +0.041 A 
ATOM     17  C   UNL     1     -12.611   2.739 -10.516  0.00  0.00    +0.020 A 
ATOM     18  C   UNL     1     -11.312   2.771 -10.052  0.00  0.00    +0.010 A 
ATOM     19 CL   UNL     1     -14.973   1.529 -11.046  0.00  0.00    -0.084 Cl
ENDBRANCH   8  13
ENDBRANCH   1   2
BRANCH   1  20
ATOM     20  N   UNL     1      -5.989  -0.076  -3.997  0.00  0.00    +0.391 N 
ATOM     21  H   UNL     1      -5.551  -0.478  -4.812  0.00  0.00    -0.080 HD
BRANCH  20  22
ATOM     22  C   UNL     1      -5.426  -0.689  -2.787  0.00  0.00    -0.044 C 
BRANCH  22  23
ATOM     23  C   UNL     1      -5.505  -2.213  -2.903  0.00  0.00    +0.124 C 
BRANCH  23  24
ATOM     24  O   UNL     1      -6.872  -2.624  -2.847  0.00  0.00    -0.391 OA
ATOM     25  H   UNL     1      -7.325  -2.377  -2.029  0.00  0.00    +0.210 HD
ENDBRANCH  23  24
BRANCH  23  26
ATOM     26  C   UNL     1      -4.732  -2.853  -1.748  0.00  0.00    +0.189 C 
BRANCH  26  27
ATOM     27  O   UNL     1      -4.708  -4.272  -1.920  0.00  0.00    -0.377 OA
BRANCH  27  28
ATOM     28  C   UNL     1      -4.006  -4.970  -0.889  0.00  0.00    +0.163 C 
BRANCH  28  30
ATOM     29  C   UNL     1      -3.270  -6.767  -2.461  0.00  0.00    +0.009 C 
ATOM     30  C   UNL     1      -4.044  -6.473  -1.175  0.00  0.00    +0.009 C 
ATOM     31  C   UNL     1      -3.403  -7.229  -0.009  0.00  0.00    +0.009 C 
ENDBRANCH  28  30
ENDBRANCH  27  28
ENDBRANCH  26  27
ENDBRANCH  23  26
ENDBRANCH  22  23
ENDBRANCH  20  22
BRANCH  20  32
ATOM     32  C   UNL     1      -5.742   1.372  -3.972  0.00  0.00    -0.002 C 
BRANCH  32  33
ATOM     33  C   UNL     1      -4.261   1.631  -4.069  0.00  0.00    +0.089 A 
ATOM     34  C   UNL     1      -3.579   1.891  -5.199  0.00  0.00    +0.042 A 
ATOM     35  C   UNL     1      -2.226   2.068  -4.831  0.00  0.00    +0.041 A 
ATOM     36  C   UNL     1      -2.161   1.905  -3.497  0.00  0.00    +0.195 A 
ATOM     37  O   UNL     1      -3.397   1.647  -3.040  0.00  0.00    -0.470 OA
ENDBRANCH  32  33
ENDBRANCH  20  32
ENDBRANCH   1  20
TORSDOF 12
