REMARK  Name = ZINC34761794
REMARK  11 active torsions:
REMARK  status: ('A' for Active; 'I' for Inactive)
REMARK    1  A    between atoms: C_1  and  C_2
REMARK    2  A    between atoms: C_2  and  C_3
REMARK    3  A    between atoms: C_4  and  C_36
REMARK    4  A    between atoms: C_8  and  N_21
REMARK    5  A    between atoms: C_10  and  S_12
REMARK    6  A    between atoms: S_12  and  C_13
REMARK    7  A    between atoms: C_13  and  C_14
REMARK    8  A    between atoms: N_24  and  C_27
REMARK    9  A    between atoms: C_27  and  C_28
REMARK   10  A    between atoms: C_30  and  C_35
REMARK   11  A    between atoms: C_33  and  C_34
REMARK                            x       y       z     vdW  Elec       q    Type
REMARK                         _______ _______ _______ _____ _____    ______ ____
ROOT
ATOM      1  C   UNL     1      -0.717   1.873   3.632  0.00  0.00    -0.025 A 
ATOM      2  C   UNL     1      -0.071   2.638   4.524  0.00  0.00    -0.007 A 
ATOM      3  S   UNL     1       0.860   1.461   5.486  0.00  0.00    -0.073 S 
ATOM      4  C   UNL     1       0.356  -0.028   4.665  0.00  0.00    +0.115 A 
ATOM      5  C   UNL     1      -0.529   0.432   3.665  0.00  0.00    +0.051 A 
ATOM      6  C   UNL     1      -1.099  -0.577   2.840  0.00  0.00    +0.134 A 
ATOM      7  N   UNL     1      -0.781  -1.843   3.053  0.00  0.00    -0.206 NA
ATOM      8  C   UNL     1       0.057  -2.208   4.016  0.00  0.00    +0.191 A 
ATOM      9  N   UNL     1       0.626  -1.310   4.809  0.00  0.00    -0.215 NA
ATOM     10  C   UNL     1      -0.120   4.137   4.676  0.00  0.00    +0.052 C 
ENDROOT
BRANCH   6  11
ATOM     11  N   UNL     1      -1.977  -0.237   1.827  0.00  0.00    -0.318 N 
ATOM     12  C   UNL     1      -1.495  -0.003   0.457  0.00  0.00    +0.088 C 
ATOM     13  C   UNL     1      -2.349  -0.834  -0.507  0.00  0.00    -0.059 C 
ATOM     14  N   UNL     1      -3.768  -0.517  -0.300  0.00  0.00    +0.384 N 
ATOM     15  C   UNL     1      -4.181  -0.927   1.048  0.00  0.00    -0.059 C 
ATOM     16  C   UNL     1      -3.419  -0.106   2.087  0.00  0.00    +0.088 C 
ATOM     17  H   UNL     1      -3.908   0.477  -0.406  0.00  0.00    -0.081 HD
BRANCH  14  18
ATOM     18  C   UNL     1      -4.577  -1.231  -1.297  0.00  0.00    -0.043 C 
BRANCH  18  19
ATOM     19  C   UNL     1      -6.019  -0.813  -1.166  0.00  0.00    -0.061 A 
ATOM     20  C   UNL     1      -6.913  -1.617  -0.484  0.00  0.00    +0.005 A 
ATOM     21  C   UNL     1      -8.235  -1.234  -0.364  0.00  0.00    -0.050 A 
ATOM     22  C   UNL     1      -8.664  -0.045  -0.925  0.00  0.00    +0.003 A 
ATOM     23  C   UNL     1      -7.770   0.760  -1.605  0.00  0.00    +0.004 A 
ATOM     24  C   UNL     1      -6.447   0.378  -1.722  0.00  0.00    -0.049 A 
ATOM     25  C   UNL     1      -5.471   1.259  -2.460  0.00  0.00    +0.044 C 
ATOM     26  C   UNL     1      -9.210  -2.112   0.378  0.00  0.00    +0.044 C 
ENDBRANCH  18  19
ENDBRANCH  14  18
ENDBRANCH   6  11
BRANCH   1  28
ATOM     27  C   UNL     1      -3.013   2.719   3.233  0.00  0.00    +0.009 C 
ATOM     28  C   UNL     1      -1.632   2.499   2.612  0.00  0.00    +0.033 C 
ENDBRANCH   1  28
BRANCH   8  29
ATOM     29  S   UNL     1       0.429  -3.916   4.235  0.00  0.00    -0.081 S 
BRANCH  29  30
ATOM     30  C   UNL     1       1.587  -3.936   5.631  0.00  0.00    +0.112 C 
BRANCH  30  31
ATOM     31  C   UNL     1       1.992  -5.357   5.928  0.00  0.00    -0.037 A 
ATOM     32  C   UNL     1       1.255  -6.113   6.820  0.00  0.00    +0.007 A 
ATOM     33  C   UNL     1       1.625  -7.417   7.093  0.00  0.00    +0.038 A 
ATOM     34  C   UNL     1       2.734  -7.965   6.471  0.00  0.00    +0.123 A 
ATOM     35  C   UNL     1       3.471  -7.207   5.578  0.00  0.00    +0.038 A 
ATOM     36  C   UNL     1       3.096  -5.906   5.303  0.00  0.00    +0.007 A 
ATOM     37  F   UNL     1       3.096  -9.239   6.737  0.00  0.00    -0.205 F 
ENDBRANCH  30  31
ENDBRANCH  29  30
ENDBRANCH   8  29
TORSDOF 7
