REMARK  Name = ZINC00196152
REMARK  3 active torsions:
REMARK  status: ('A' for Active; 'I' for Inactive)
REMARK    1  A    between atoms: C_1  and  C_2
REMARK    2  A    between atoms: N_7  and  C_16
REMARK    3  A    between atoms: C_16  and  C_17
REMARK                            x       y       z     vdW  Elec       q    Type
REMARK                         _______ _______ _______ _____ _____    ______ ____
ROOT
ATOM      1  C   UNL     1      -0.018   1.503   0.010  0.00  0.00    +0.073 C 
ATOM      2  C   UNL     1       0.002  -0.004   0.002  0.00  0.00    +0.125 A 
ATOM      3  C   UNL     1       0.006  -0.743  -1.263  0.00  0.00    +0.296 A 
ATOM      4  O   UNL     1      -0.007  -0.142  -2.327  0.00  0.00    -0.264 OA
ATOM      5  N   UNL     1       0.025  -2.078  -1.244  0.00  0.00    -0.172 NA
ATOM      6  C   UNL     1       0.040  -2.740  -0.098  0.00  0.00    +0.236 A 
ATOM      7  N   UNL     1       0.060  -4.088   0.148  0.00  0.00    -0.304 N 
ATOM      8  C   UNL     1       0.070  -4.280   1.524  0.00  0.00    +0.071 A 
ATOM      9  C   UNL     1       0.090  -5.416   2.322  0.00  0.00    +0.028 A 
ATOM     10  C   UNL     1       0.095  -5.291   3.696  0.00  0.00    +0.002 A 
ATOM     11  C   UNL     1       0.080  -4.037   4.284  0.00  0.00    +0.002 A 
ATOM     12  C   UNL     1       0.059  -2.901   3.500  0.00  0.00    +0.030 A 
ATOM     13  C   UNL     1       0.055  -3.016   2.117  0.00  0.00    +0.093 A 
ATOM     14  N   UNL     1       0.036  -2.077   1.089  0.00  0.00    -0.197 N 
ATOM     15  N   UNL     1       0.022  -0.675   1.122  0.00  0.00    -0.163 NA
ENDROOT
BRANCH   7  16
ATOM     16  C   UNL     1       0.070  -5.145  -0.866  0.00  0.00    +0.160 C 
BRANCH  16  17
ATOM     17  C   UNL     1       1.494  -5.488  -1.221  0.00  0.00    -0.028 A 
ATOM     18  C   UNL     1       2.133  -4.812  -2.244  0.00  0.00    +0.005 A 
ATOM     19  C   UNL     1       3.439  -5.127  -2.569  0.00  0.00    +0.000 A 
ATOM     20  C   UNL     1       4.106  -6.116  -1.871  0.00  0.00    +0.000 A 
ATOM     21  C   UNL     1       3.467  -6.791  -0.848  0.00  0.00    +0.000 A 
ATOM     22  C   UNL     1       2.163  -6.473  -0.519  0.00  0.00    +0.005 A 
ENDBRANCH  16  17
ENDBRANCH   7  16
TORSDOF 2
