REMARK  Name = ZINC36656450
REMARK  8 active torsions:
REMARK  status: ('A' for Active; 'I' for Inactive)
REMARK    1  A    between atoms: C_3  and  N_21
REMARK    2  A    between atoms: C_6  and  C_7
REMARK    3  A    between atoms: C_7  and  C_9
REMARK    4  A    between atoms: C_10  and  C_11
REMARK    5  A    between atoms: C_13  and  N_18
REMARK    6  A    between atoms: C_16  and  O_17
REMARK    7  A    between atoms: N_21  and  C_22
REMARK    8  A    between atoms: C_22  and  C_23
REMARK                            x       y       z     vdW  Elec       q    Type
REMARK                         _______ _______ _______ _____ _____    ______ ____
ROOT
ATOM      1  C   UNL     1      -0.017   1.394   0.010  0.00  0.00    +0.013 A 
ATOM      2  C   UNL     1       1.166   2.097   0.002  0.00  0.00    +0.023 A 
ATOM      3  C   UNL     1       2.381   1.417  -0.013  0.00  0.00    +0.027 A 
ATOM      4  C   UNL     1       2.404   0.025  -0.022  0.00  0.00    +0.023 A 
ATOM      5  C   UNL     1       1.224  -0.684  -0.014  0.00  0.00    +0.013 A 
ATOM      6  C   UNL     1       0.002  -0.004   0.002  0.00  0.00    +0.022 A 
ENDROOT
BRANCH   6   7
ATOM      7  C   UNL     1      -1.265  -0.761   0.010  0.00  0.00    +0.186 C 
ATOM      8  O   UNL     1      -2.329  -0.168   0.023  0.00  0.00    -0.287 OA
BRANCH   7   9
ATOM      9  C   UNL     1      -1.244  -2.222   0.002  0.00  0.00    +0.052 C 
ATOM     10  C   UNL     1      -2.405  -2.915   0.009  0.00  0.00    +0.015 C 
BRANCH  10  11
ATOM     11  C   UNL     1      -2.383  -4.384   0.001  0.00  0.00    +0.019 A 
ATOM     12  C   UNL     1      -1.163  -5.070  -0.008  0.00  0.00    +0.044 A 
ATOM     13  C   UNL     1      -1.151  -6.447  -0.016  0.00  0.00    +0.127 A 
ATOM     14  C   UNL     1      -2.341  -7.158  -0.014  0.00  0.00    +0.036 A 
ATOM     15  C   UNL     1      -3.552  -6.494  -0.005  0.00  0.00    +0.048 A 
ATOM     16  C   UNL     1      -3.586  -5.108   0.009  0.00  0.00    +0.124 A 
BRANCH  13  17
ATOM     17  N   UNL     1       0.140  -7.173  -0.026  0.00  0.00    +0.056 N 
ATOM     18  O   UNL     1       1.179  -6.556  -0.028  0.00  0.00    -0.126 OA
ATOM     19  O   UNL     1       0.154  -8.381  -0.033  0.00  0.00    -0.126 OA
ENDBRANCH  13  17
BRANCH  16  20
ATOM     20  O   UNL     1      -4.775  -4.455   0.024  0.00  0.00    -0.506 OA
ATOM     21  H   UNL     1      -5.128  -4.261  -0.855  0.00  0.00    +0.292 HD
ENDBRANCH  16  20
ENDBRANCH  10  11
ENDBRANCH   7   9
ENDBRANCH   6   7
BRANCH   3  22
ATOM     22  N   UNL     1       3.575   2.130  -0.022  0.00  0.00    -0.344 N 
ATOM     23  H   UNL     1       3.561   3.100  -0.016  0.00  0.00    +0.146 HD
BRANCH  22  24
ATOM     24  C   UNL     1       4.854   1.416  -0.038  0.00  0.00    +0.103 C 
BRANCH  24  25
ATOM     25  C   UNL     1       6.003   2.428  -0.044  0.00  0.00    -0.008 C 
ATOM     26  C   UNL     1       5.966   3.231  -1.346  0.00  0.00    +0.002 C 
ATOM     27  C   UNL     1       6.186   2.271  -2.520  0.00  0.00    -0.018 C 
ATOM     28  C   UNL     1       7.523   1.555  -2.329  0.00  0.00    -0.078 C 
ATOM     29  N   UNL     1       7.511   0.785  -1.076  0.00  0.00    +0.382 N 
ATOM     30  C   UNL     1       7.337   1.684   0.068  0.00  0.00    -0.064 C 
ATOM     31  C   UNL     1       7.326   0.877   1.370  0.00  0.00    -0.015 C 
ATOM     32  C   UNL     1       8.636   0.100   1.510  0.00  0.00    -0.003 C 
ATOM     33  C   UNL     1       8.806  -0.801   0.282  0.00  0.00    -0.019 C 
ATOM     34  C   UNL     1       8.790   0.069  -0.970  0.00  0.00    -0.078 C 
ATOM     35  H   UNL     1       6.753   0.119  -1.098  0.00  0.00    -0.081 HD
ENDBRANCH  24  25
ENDBRANCH  22  24
ENDBRANCH   3  22
TORSDOF 8
