REMARK  Name = ZINC44514213
REMARK  6 active torsions:
REMARK  status: ('A' for Active; 'I' for Inactive)
REMARK    1  A    between atoms: C_1  and  C_2
REMARK    2  A    between atoms: N_10  and  N_11
REMARK    3  A    between atoms: N_11  and  C_12
REMARK    4  A    between atoms: C_14  and  N_15
REMARK    5  A    between atoms: C_22  and  C_24
REMARK    6  A    between atoms: C_22  and  C_25
REMARK                            x       y       z     vdW  Elec       q    Type
REMARK                         _______ _______ _______ _____ _____    ______ ____
ROOT
ATOM      1  C   UNL     1       4.851  -2.478  -0.035  0.00  0.00    +0.042 C 
ATOM      2  C   UNL     1       6.095  -1.683  -0.030  0.00  0.00    +0.041 C 
ATOM      3  C   UNL     1       7.234  -2.241  -0.420  0.00  0.00    -0.007 C 
ATOM      4  C   UNL     1       7.261  -3.678  -0.869  0.00  0.00    +0.059 C 
ATOM      5  C   UNL     1       6.260  -4.498  -0.055  0.00  0.00    -0.010 C 
ATOM      6  C   UNL     1       4.920  -3.812  -0.042  0.00  0.00    +0.004 C 
ATOM      7  C   UNL     1       6.768  -4.638   1.382  0.00  0.00    +0.015 C 
ATOM      8  C   UNL     1       6.117  -5.888  -0.678  0.00  0.00    +0.015 C 
ENDROOT
BRANCH   3   9
ATOM      9  N   UNL     1       8.414  -1.492  -0.414  0.00  0.00    -0.393 NA
ATOM     10  C   UNL     1       8.963  -1.431  -1.776  0.00  0.00    +0.113 C 
ATOM     11  C   UNL     1      10.255  -0.610  -1.767  0.00  0.00    +0.177 C 
ATOM     12  O   UNL     1      11.182  -1.201  -0.853  0.00  0.00    -0.377 OA
ATOM     13  C   UNL     1      10.684  -1.305   0.484  0.00  0.00    +0.177 C 
ATOM     14  C   UNL     1       9.393  -2.127   0.479  0.00  0.00    +0.113 C 
ATOM     15  H   UNL     1       8.218  -0.558  -0.088  0.00  0.00    +0.126 HD
ENDBRANCH   3   9
BRANCH   1  16
ATOM     16  N   UNL     1       3.610  -1.839  -0.025  0.00  0.00    -0.265 N 
ATOM     17  H   UNL     1       3.563  -0.870  -0.020  0.00  0.00    +0.170 HD
BRANCH  16  27
ATOM     18  C   UNL     1      -0.018   1.503   0.010  0.00  0.00    +0.066 C 
ATOM     19  C   UNL     1       0.002  -0.004   0.002  0.00  0.00    +0.047 A 
ATOM     20  C   UNL     1      -1.171  -0.701   0.004  0.00  0.00    +0.093 A 
ATOM     21  C   UNL     1      -1.126  -2.107  -0.004  0.00  0.00    +0.253 A 
ATOM     22  O   UNL     1      -2.156  -2.762  -0.003  0.00  0.00    -0.268 OA
ATOM     23  N   UNL     1       0.078  -2.717  -0.013  0.00  0.00    -0.294 N 
ATOM     24  H   UNL     1       0.132  -3.686  -0.019  0.00  0.00    +0.172 HD
ATOM     25  C   UNL     1       1.215  -1.970  -0.015  0.00  0.00    +0.212 A 
ATOM     26  N   UNL     1       1.164  -0.653  -0.013  0.00  0.00    -0.220 NA
ATOM     27  N   UNL     1       2.432  -2.597  -0.024  0.00  0.00    -0.236 N 
ATOM     28  H   UNL     1       2.478  -3.566  -0.029  0.00  0.00    +0.173 HD
ENDBRANCH  16  27
ENDBRANCH   1  16
TORSDOF 3
