REMARK  Name = ZINC35778604
REMARK  18 active torsions:
REMARK  status: ('A' for Active; 'I' for Inactive)
REMARK    1  A    between atoms: C_1  and  C_2
REMARK    2  A    between atoms: C_2  and  C_3
REMARK    3  A    between atoms: C_2  and  C_4
REMARK    4  A    between atoms: C_2  and  O_5
REMARK    5  A    between atoms: O_5  and  C_6
REMARK    6  A    between atoms: C_6  and  C_7
REMARK    7  A    between atoms: C_7  and  C_9
REMARK    8  A    between atoms: C_7  and  O_36
REMARK    9  A    between atoms: C_9  and  N_10
REMARK   10  A    between atoms: N_10  and  C_11
REMARK   11  A    between atoms: N_10  and  C_15
REMARK   12  A    between atoms: C_11  and  C_12
REMARK   13  A    between atoms: C_12  and  O_13
REMARK   14  A    between atoms: O_13  and  C_14
REMARK   15  A    between atoms: C_15  and  C_16
REMARK   16  A    between atoms: C_26  and  C_28
REMARK   17  A    between atoms: C_28  and  O_29
REMARK   18  A    between atoms: O_29  and  C_30
REMARK                            x       y       z     vdW  Elec       q    Type
REMARK                         _______ _______ _______ _____ _____    ______ ____
ROOT
ATOM      1  C   UNL     1       6.650  -1.275  -5.217  0.00  0.00    +0.200 C 
ATOM      2  O   UNL     1       5.924  -1.880  -5.978  0.00  0.00    -0.278 OA
ATOM      3  N   UNL     1       7.975  -1.215  -5.455  0.00  0.00    -0.292 N 
ATOM      4  C   UNL     1       8.865  -0.489  -4.536  0.00  0.00    +0.113 C 
ATOM      5  C   UNL     1       9.820  -1.503  -3.889  0.00  0.00    +0.061 C 
ATOM      6  C   UNL     1      10.305  -2.445  -4.942  0.00  0.00    -0.004 A 
ATOM      7  C   UNL     1       9.780  -2.658  -6.179  0.00  0.00    -0.014 A 
ATOM      8  C   UNL     1      10.420  -3.605  -6.976  0.00  0.00    +0.013 A 
ATOM      9  C   UNL     1      11.510  -4.256  -6.510  0.00  0.00    +0.046 A 
ATOM     10  S   UNL     1      11.694  -3.546  -4.881  0.00  0.00    -0.101 S 
ATOM     11  C   UNL     1       8.552  -1.878  -6.632  0.00  0.00    +0.144 C 
ENDROOT
BRANCH   1  12
ATOM     12  C   UNL     1       6.069  -0.591  -4.007  0.00  0.00    +0.019 C 
BRANCH  12  13
ATOM     13  N   UNL     1       4.616  -0.803  -3.974  0.00  0.00    +0.389 N 
ATOM     14  H   UNL     1       4.212  -0.502  -4.848  0.00  0.00    -0.081 HD
BRANCH  13  15
ATOM     15  C   UNL     1       4.032  -0.027  -2.872  0.00  0.00    -0.044 C 
BRANCH  15  16
ATOM     16  C   UNL     1       4.154   1.467  -3.180  0.00  0.00    +0.124 C 
BRANCH  16  17
ATOM     17  O   UNL     1       5.528   1.854  -3.126  0.00  0.00    -0.391 OA
ATOM     18  H   UNL     1       5.946   1.705  -2.267  0.00  0.00    +0.210 HD
ENDBRANCH  16  17
BRANCH  16  19
ATOM     19  C   UNL     1       3.358   2.267  -2.146  0.00  0.00    +0.189 C 
BRANCH  19  20
ATOM     20  O   UNL     1       3.375   3.651  -2.500  0.00  0.00    -0.372 OA
BRANCH  20  22
ATOM     21  C   UNL     1       3.268   4.375  -0.197  0.00  0.00    +0.041 C 
ATOM     22  C   UNL     1       2.657   4.492  -1.595  0.00  0.00    +0.061 C 
ATOM     23  C   UNL     1       1.191   4.055  -1.548  0.00  0.00    +0.041 C 
ATOM     24  C   UNL     1       2.742   5.944  -2.069  0.00  0.00    +0.041 C 
ENDBRANCH  20  22
ENDBRANCH  19  20
ENDBRANCH  16  19
ENDBRANCH  15  16
ENDBRANCH  13  15
BRANCH  13  25
ATOM     25  C   UNL     1       4.334  -2.230  -3.771  0.00  0.00    -0.050 C 
BRANCH  25  26
ATOM     26  C   UNL     1       2.828  -2.474  -3.887  0.00  0.00    +0.141 C 
BRANCH  26  27
ATOM     27  O   UNL     1       2.404  -2.208  -5.225  0.00  0.00    -0.385 OA
ATOM     28  C   UNL     1       1.006  -2.407  -5.442  0.00  0.00    +0.193 C 
ENDBRANCH  26  27
ENDBRANCH  25  26
ENDBRANCH  13  25
ENDBRANCH  12  13
ENDBRANCH   1  12
BRANCH  11  29
ATOM     29  C   UNL     1       8.962  -0.830  -7.668  0.00  0.00    +0.256 C 
BRANCH  29  30
ATOM     30  O   UNL     1      10.016  -0.024  -7.138  0.00  0.00    -0.490 OA
BRANCH  30  31
ATOM     31  C   UNL     1      10.500   0.963  -7.938  0.00  0.00    +0.121 A 
ATOM     32  C   UNL     1       9.967   1.154  -9.205  0.00  0.00    +0.045 A 
ATOM     33  C   UNL     1      10.460   2.158 -10.016  0.00  0.00    +0.004 A 
ATOM     34  C   UNL     1      11.485   2.971  -9.566  0.00  0.00    +0.000 A 
ATOM     35  C   UNL     1      12.018   2.781  -8.305  0.00  0.00    +0.004 A 
ATOM     36  C   UNL     1      11.524   1.783  -7.488  0.00  0.00    +0.045 A 
ENDBRANCH  30  31
ENDBRANCH  29  30
ENDBRANCH  11  29
TORSDOF 14
