REMARK  Name = ZINC35455440
REMARK  14 active torsions:
REMARK  status: ('A' for Active; 'I' for Inactive)
REMARK    1  A    between atoms: C_1  and  C_2
REMARK    2  A    between atoms: C_2  and  O_4
REMARK    3  A    between atoms: O_4  and  C_5
REMARK    4  A    between atoms: C_9  and  C_32
REMARK    5  A    between atoms: C_9  and  C_33
REMARK    6  A    between atoms: C_12  and  C_31
REMARK    7  A    between atoms: C_15  and  O_18
REMARK    8  A    between atoms: O_18  and  C_19
REMARK    9  A    between atoms: C_19  and  C_21
REMARK   10  A    between atoms: C_22  and  O_30
REMARK   11  A    between atoms: C_24  and  C_27
REMARK   12  A    between atoms: C_24  and  C_28
REMARK   13  A    between atoms: C_33  and  O_35
REMARK   14  A    between atoms: O_35  and  C_36
REMARK                            x       y       z     vdW  Elec       q    Type
REMARK                         _______ _______ _______ _____ _____    ______ ____
ROOT
ATOM      1  C   UNL     1      -1.447  -2.175  -0.269  0.00  0.00    +0.187 C 
ATOM      2  C   UNL     1      -1.398  -2.778   1.137  0.00  0.00    +0.046 C 
ATOM      3  C   UNL     1      -2.614  -2.344   1.945  0.00  0.00    +0.022 C 
ATOM      4  C   UNL     1      -3.929  -2.734   1.262  0.00  0.00    +0.069 C 
ATOM      5  C   UNL     1      -3.936  -2.300  -0.187  0.00  0.00    +0.023 C 
ATOM      6  C   UNL     1      -2.702  -2.669  -0.985  0.00  0.00    +0.030 C 
ATOM      7  C   UNL     1      -2.795  -2.055  -2.376  0.00  0.00    -0.055 C 
ATOM      8  C   UNL     1      -3.938  -1.722  -2.897  0.00  0.00    -0.001 C 
ATOM      9  C   UNL     1      -5.271  -1.895  -2.198  0.00  0.00    +0.205 C 
ATOM     10  C   UNL     1      -5.163  -2.786  -0.960  0.00  0.00    +0.055 C 
ATOM     11  C   UNL     1      -4.048  -1.122  -4.285  0.00  0.00    +0.154 C 
ATOM     12  C   UNL     1      -2.828  -1.448  -5.135  0.00  0.00    +0.016 C 
ATOM     13  C   UNL     1      -1.578  -1.046  -4.350  0.00  0.00    +0.018 C 
ATOM     14  C   UNL     1      -1.474  -1.884  -3.086  0.00  0.00    +0.032 C 
ATOM     15  C   UNL     1      -2.803  -2.941  -5.470  0.00  0.00    +0.018 C 
ATOM     16  C   UNL     1      -2.576  -4.179  -1.195  0.00  0.00    +0.020 C 
ATOM     17  C   UNL     1      -4.212  -4.221   1.453  0.00  0.00    +0.023 C 
ENDROOT
BRANCH  12  18
ATOM     18  C   UNL     1      -2.892  -0.654  -6.420  0.00  0.00    -0.025 C 
ATOM     19  C   UNL     1      -1.936   0.191  -6.716  0.00  0.00    +0.004 C 
ENDBRANCH  12  18
BRANCH  11  20
ATOM     20  O   UNL     1      -4.175   0.297  -4.173  0.00  0.00    -0.387 OA
ATOM     21  H   UNL     1      -4.951   0.584  -3.673  0.00  0.00    +0.210 HD
ENDBRANCH  11  20
BRANCH   4  22
ATOM     22  C   UNL     1      -5.033  -1.968   1.987  0.00  0.00    +0.313 C 
ATOM     23  O   UNL     1      -5.730  -1.192   1.378  0.00  0.00    -0.250 OA
BRANCH  22  24
ATOM     24  O   UNL     1      -5.230  -2.158   3.302  0.00  0.00    -0.468 OA
ATOM     25  C   UNL     1      -6.280  -1.408   3.915  0.00  0.00    +0.280 C 
ENDBRANCH  22  24
ENDBRANCH   4  22
BRANCH   1  26
ATOM     26  O   UNL     1      -1.474  -0.750  -0.178  0.00  0.00    -0.461 OA
BRANCH  26  28
ATOM     27  C   UNL     1      -0.239   1.386  -0.070  0.00  0.00    +0.136 C 
ATOM     28  C   UNL     1      -0.289  -0.117  -0.165  0.00  0.00    +0.304 C 
ATOM     29  O   UNL     1       0.736  -0.753  -0.230  0.00  0.00    -0.251 OA
ENDBRANCH  26  28
ENDBRANCH   1  26
BRANCH   9  30
ATOM     30  O   UNL     1      -5.761  -0.613  -1.801  0.00  0.00    -0.457 OA
BRANCH  30  31
ATOM     31  C   UNL     1      -7.093  -0.459  -1.749  0.00  0.00    +0.305 C 
ATOM     32  O   UNL     1      -7.819  -1.383  -2.032  0.00  0.00    -0.251 OA
ATOM     33  C   UNL     1      -7.683   0.865  -1.339  0.00  0.00    +0.136 C 
ENDBRANCH  30  31
ENDBRANCH   9  30
TORSDOF 8
