REMARK  Name = ZINC63330580
REMARK  9 active torsions:
REMARK  status: ('A' for Active; 'I' for Inactive)
REMARK    1  A    between atoms: C_1  and  C_2
REMARK    2  A    between atoms: C_2  and  O_3
REMARK    3  A    between atoms: O_3  and  C_4
REMARK    4  A    between atoms: C_7  and  N_10
REMARK    5  A    between atoms: C_14  and  N_18
REMARK    6  A    between atoms: N_18  and  C_19
REMARK    7  A    between atoms: C_19  and  C_20
REMARK    8  A    between atoms: C_20  and  C_21
REMARK    9  A    between atoms: C_24  and  C_30
REMARK                            x       y       z     vdW  Elec       q    Type
REMARK                         _______ _______ _______ _____ _____    ______ ____
ROOT
ATOM      1  N   UNL     1      -1.989  -5.992  -0.010  0.00  0.00    -0.212 N 
ATOM      2  C   UNL     1      -0.960  -6.843  -0.112  0.00  0.00    +0.225 C 
ATOM      3  O   UNL     1       0.206  -6.526  -0.209  0.00  0.00    -0.275 OA
ATOM      4  C   UNL     1      -1.484  -8.262  -0.087  0.00  0.00    +0.090 C 
ATOM      5  C   UNL     1      -3.010  -8.082   0.048  0.00  0.00    +0.026 C 
ATOM      6  C   UNL     1      -3.187  -6.580   0.091  0.00  0.00    +0.213 C 
ATOM      7  O   UNL     1      -4.247  -6.001   0.198  0.00  0.00    -0.277 OA
ENDROOT
BRANCH   1  11
ATOM      8  C   UNL     1      -1.498  -1.849   0.008  0.00  0.00    +0.121 A 
ATOM      9  C   UNL     1      -1.937  -2.500   1.151  0.00  0.00    +0.047 A 
ATOM     10  C   UNL     1      -2.100  -3.871   1.146  0.00  0.00    +0.027 A 
ATOM     11  C   UNL     1      -1.824  -4.598  -0.004  0.00  0.00    +0.044 A 
ATOM     12  C   UNL     1      -1.384  -3.946  -1.148  0.00  0.00    +0.027 A 
ATOM     13  C   UNL     1      -1.226  -2.574  -1.143  0.00  0.00    +0.047 A 
BRANCH   8  14
ATOM     14  O   UNL     1      -1.338  -0.499   0.013  0.00  0.00    -0.492 OA
BRANCH  14  16
ATOM     15  C   UNL     1      -1.398   1.685   1.048  0.00  0.00    +0.048 C 
ATOM     16  C   UNL     1      -1.635   0.184   1.233  0.00  0.00    +0.225 C 
ENDBRANCH  14  16
ENDBRANCH   8  14
ENDBRANCH   1  11
BRANCH   5  17
ATOM     17  N   UNL     1      -3.494  -8.694   1.292  0.00  0.00    +0.387 N 
ATOM     18  H   UNL     1      -3.209  -9.662   1.325  0.00  0.00    -0.085 HD
ATOM     19  H   UNL     1      -3.105  -8.202   2.083  0.00  0.00    -0.085 HD
BRANCH  17  20
ATOM     20  C   UNL     1      -4.960  -8.614   1.339  0.00  0.00    -0.077 C 
BRANCH  20  21
ATOM     21  C   UNL     1      -5.465  -9.252   2.635  0.00  0.00    +0.014 C 
BRANCH  21  22
ATOM     22  C   UNL     1      -6.969  -9.170   2.683  0.00  0.00    -0.043 C 
ATOM     23  C   UNL     1      -7.848 -10.125   2.302  0.00  0.00    -0.001 A 
ATOM     24  C   UNL     1      -7.673 -11.473   1.749  0.00  0.00    +0.013 A 
ATOM     25  C   UNL     1      -8.770 -12.210   1.458  0.00  0.00    -0.050 A 
ATOM     26  C   UNL     1     -10.065 -11.719   1.671  0.00  0.00    +0.005 A 
ATOM     27  C   UNL     1     -10.306 -10.491   2.175  0.00  0.00    +0.026 A 
ATOM     28  C   UNL     1      -9.226  -9.630   2.517  0.00  0.00    +0.043 A 
ATOM     29  N   UNL     1      -9.200  -8.416   3.013  0.00  0.00    -0.380 N 
ATOM     30  C   UNL     1      -7.801  -8.006   3.173  0.00  0.00    +0.144 C 
ATOM     31  C   UNL     1      -8.594 -13.595   0.890  0.00  0.00    +0.044 C 
ATOM     32  H   UNL     1      -9.977  -7.881   3.239  0.00  0.00    +0.160 HD
ENDBRANCH  21  22
ENDBRANCH  20  21
ENDBRANCH  17  20
ENDBRANCH   5  17
TORSDOF 7
