REMARK  Name = ZINC19339160
REMARK  3 active torsions:
REMARK  status: ('A' for Active; 'I' for Inactive)
REMARK    1  A    between atoms: C_1  and  C_2
REMARK    2  A    between atoms: C_6  and  N_8
REMARK    3  A    between atoms: C_21  and  C_23
REMARK                            x       y       z     vdW  Elec       q    Type
REMARK                         _______ _______ _______ _____ _____    ______ ____
ROOT
ATOM      1  N   UNL     1       0.052  -2.791   2.364  0.00  0.00    -0.219 NA
ATOM      2  C   UNL     1      -0.736  -3.827   2.525  0.00  0.00    +0.189 C 
ATOM      3  N   UNL     1      -1.603  -4.269   1.533  0.00  0.00    -0.281 N 
ATOM      4  C   UNL     1      -1.589  -5.710   1.258  0.00  0.00    +0.235 C 
ATOM      5  C   UNL     1      -0.492  -6.042   0.279  0.00  0.00    +0.029 A 
ATOM      6  C   UNL     1       0.879  -5.915   0.323  0.00  0.00    +0.010 A 
ATOM      7  C   UNL     1       1.645  -6.316  -0.757  0.00  0.00    +0.001 A 
ATOM      8  C   UNL     1       1.031  -6.843  -1.878  0.00  0.00    +0.002 A 
ATOM      9  C   UNL     1      -0.342  -6.973  -1.925  0.00  0.00    +0.024 A 
ATOM     10  C   UNL     1      -1.120  -6.572  -0.842  0.00  0.00    +0.052 A 
ATOM     11  N   UNL     1      -2.505  -6.602  -0.650  0.00  0.00    -0.207 N 
ATOM     12  C   UNL     1      -2.861  -6.116   0.553  0.00  0.00    +0.277 C 
ATOM     13  O   UNL     1      -3.988  -6.022   0.988  0.00  0.00    -0.270 OA
ATOM     14  C   UNL     1      -3.381  -7.063  -1.564  0.00  0.00    +0.223 C 
ATOM     15  O   UNL     1      -2.982  -7.485  -2.628  0.00  0.00    -0.275 OA
ATOM     16  C   UNL     1      -4.858  -7.054  -1.264  0.00  0.00    +0.110 C 
ATOM     17  N   UNL     1      -1.423  -6.465   2.494  0.00  0.00    -0.216 NA
ATOM     18  C   UNL     1      -1.027  -5.921   3.602  0.00  0.00    +0.182 C 
ATOM     19  N   UNL     1      -0.765  -4.571   3.697  0.00  0.00    -0.260 N 
ATOM     20  N   UNL     1      -0.858  -6.715   4.712  0.00  0.00    -0.331 N 
ATOM     21  H   UNL     1      -0.608  -4.154   4.559  0.00  0.00    +0.157 HD
ATOM     22  H   UNL     1      -1.036  -7.667   4.658  0.00  0.00    +0.145 HD
ATOM     23  H   UNL     1      -0.562  -6.323   5.548  0.00  0.00    +0.145 HD
ATOM     24  H   UNL     1      -2.184  -3.661   1.050  0.00  0.00    +0.152 HD
ENDROOT
BRANCH   1  30
ATOM     25  C   UNL     1      -0.018   1.503   0.010  0.00  0.00    +0.044 C 
ATOM     26  C   UNL     1       0.002  -0.004   0.002  0.00  0.00    -0.048 A 
ATOM     27  C   UNL     1       0.006  -0.688  -1.201  0.00  0.00    +0.003 A 
ATOM     28  C   UNL     1       0.025  -2.071  -1.218  0.00  0.00    +0.002 A 
ATOM     29  C   UNL     1       0.041  -2.778  -0.033  0.00  0.00    +0.028 A 
ATOM     30  C   UNL     1       0.037  -2.095   1.184  0.00  0.00    +0.067 A 
ATOM     31  C   UNL     1       0.023  -0.699   1.194  0.00  0.00    +0.031 A 
ENDBRANCH   1  30
TORSDOF 1
