REMARK  Name = ZINC40547927
REMARK  11 active torsions:
REMARK  status: ('A' for Active; 'I' for Inactive)
REMARK    1  A    between atoms: C_1  and  C_2
REMARK    2  A    between atoms: C_2  and  C_3
REMARK    3  A    between atoms: C_3  and  C_4
REMARK    4  A    between atoms: C_4  and  C_5
REMARK    5  A    between atoms: C_5  and  O_6
REMARK    6  A    between atoms: O_6  and  C_7
REMARK    7  A    between atoms: C_10  and  C_13
REMARK    8  A    between atoms: C_16  and  C_32
REMARK    9  A    between atoms: N_23  and  C_24
REMARK   10  A    between atoms: C_34  and  C_39
REMARK   11  A    between atoms: C_37  and  O_38
REMARK                            x       y       z     vdW  Elec       q    Type
REMARK                         _______ _______ _______ _____ _____    ______ ____
ROOT
ATOM      1  C   UNL     1       3.941  -6.545   6.611  0.00  0.00    +0.142 C 
ATOM      2  C   UNL     1       3.026  -6.953   7.733  0.00  0.00    +0.035 A 
ATOM      3  C   UNL     1       2.105  -6.555   8.708  0.00  0.00    +0.102 A 
ATOM      4  N   UNL     1       1.722  -7.638   9.355  0.00  0.00    -0.173 NA
ATOM      5  N   UNL     1       2.311  -8.680   8.886  0.00  0.00    -0.272 N 
ATOM      6  H   UNL     1       2.182  -9.586   9.209  0.00  0.00    +0.189 HD
ATOM      7  C   UNL     1       3.145  -8.323   7.865  0.00  0.00    +0.126 A 
ATOM      8  C   UNL     1       4.104  -8.806   6.865  0.00  0.00    +0.266 C 
ATOM      9  O   UNL     1       4.429  -9.969   6.720  0.00  0.00    -0.268 OA
ATOM     10  N   UNL     1       4.573  -7.780   6.130  0.00  0.00    -0.280 N 
ENDROOT
BRANCH  10  11
ATOM     11  C   UNL     1       5.546  -7.878   5.039  0.00  0.00    +0.100 C 
ATOM     12  C   UNL     1       6.855  -8.480   5.576  0.00  0.00    +0.047 C 
ATOM     13  C   UNL     1       7.747  -8.862   4.359  0.00  0.00    +0.168 C 
ATOM     14  S   UNL     1       6.480  -9.565   3.221  0.00  0.00    -0.029 S 
ATOM     15  O   UNL     1       6.404 -10.969   3.425  0.00  0.00    -0.174 OA
ATOM     16  O   UNL     1       6.705  -9.061   1.911  0.00  0.00    -0.174 OA
ATOM     17  C   UNL     1       4.973  -8.777   3.918  0.00  0.00    +0.188 C 
ENDBRANCH  10  11
BRANCH   3  18
ATOM     18  C   UNL     1       1.643  -5.168   8.966  0.00  0.00    +0.044 A 
ATOM     19  C   UNL     1       2.561  -4.122   9.010  0.00  0.00    +0.017 A 
ATOM     20  C   UNL     1       2.126  -2.834   9.251  0.00  0.00    -0.050 A 
ATOM     21  C   UNL     1       0.781  -2.578   9.448  0.00  0.00    +0.007 A 
ATOM     22  C   UNL     1      -0.138  -3.609   9.406  0.00  0.00    +0.046 A 
ATOM     23  C   UNL     1       0.284  -4.906   9.160  0.00  0.00    +0.126 A 
ATOM     24  C   UNL     1       3.121  -1.703   9.299  0.00  0.00    +0.044 C 
BRANCH  23  25
ATOM     25  O   UNL     1      -0.620  -5.920   9.112  0.00  0.00    -0.506 OA
ATOM     26  H   UNL     1      -0.841  -6.290   9.977  0.00  0.00    +0.292 HD
ENDBRANCH  23  25
ENDBRANCH   3  18
BRANCH   1  30
ATOM     27  C   UNL     1       1.688  -4.727   3.466  0.00  0.00    +0.121 A 
ATOM     28  C   UNL     1       2.526  -3.954   4.257  0.00  0.00    +0.046 A 
ATOM     29  C   UNL     1       3.253  -4.544   5.273  0.00  0.00    +0.009 A 
ATOM     30  C   UNL     1       3.146  -5.904   5.502  0.00  0.00    -0.022 A 
ATOM     31  C   UNL     1       2.312  -6.676   4.715  0.00  0.00    +0.009 A 
ATOM     32  C   UNL     1       1.579  -6.090   3.702  0.00  0.00    +0.046 A 
BRANCH  27  33
ATOM     33  O   UNL     1       0.972  -4.149   2.467  0.00  0.00    -0.492 OA
BRANCH  33  34
ATOM     34  C   UNL     1       1.135  -2.741   2.282  0.00  0.00    +0.229 C 
BRANCH  34  35
ATOM     35  C   UNL     1       0.256  -2.274   1.120  0.00  0.00    +0.041 C 
BRANCH  35  36
ATOM     36  C   UNL     1       0.431  -0.767   0.922  0.00  0.00    +0.003 C 
BRANCH  36  38
ATOM     37  C   UNL     1      -0.274   1.207  -0.437  0.00  0.00    +0.004 C 
ATOM     38  C   UNL     1      -0.448  -0.300  -0.240  0.00  0.00    -0.003 C 
ENDBRANCH  36  38
ENDBRANCH  35  36
ENDBRANCH  34  35
ENDBRANCH  33  34
ENDBRANCH  27  33
ENDBRANCH   1  30
TORSDOF 9
