REMARK  Name = ZINC32529175
REMARK  7 active torsions:
REMARK  status: ('A' for Active; 'I' for Inactive)
REMARK    1  A    between atoms: C_1  and  C_2
REMARK    2  A    between atoms: C_4  and  C_29
REMARK    3  A    between atoms: C_8  and  C_28
REMARK    4  A    between atoms: C_10  and  S_12
REMARK    5  A    between atoms: S_12  and  C_13
REMARK    6  A    between atoms: C_13  and  C_14
REMARK    7  A    between atoms: C_14  and  C_16
REMARK                            x       y       z     vdW  Elec       q    Type
REMARK                         _______ _______ _______ _____ _____    ______ ____
ROOT
ATOM      1  C   UNL     1      -5.091   4.517   0.073  0.00  0.00    +0.155 C 
ENDROOT
BRANCH   1   2
ATOM      2  C   UNL     1      -6.521   4.994   0.089  0.00  0.00    +0.173 C 
ATOM      3  O   UNL     1      -6.763   6.182   0.099  0.00  0.00    -0.291 OA
BRANCH   2   4
ATOM      4  C   UNL     1      -7.620   4.019   0.094  0.00  0.00    +0.020 A 
ATOM      5  C   UNL     1      -7.340   2.646   0.084  0.00  0.00    +0.013 A 
ATOM      6  C   UNL     1      -8.359   1.737   0.088  0.00  0.00    +0.028 A 
ATOM      7  C   UNL     1      -9.681   2.167   0.103  0.00  0.00    +0.067 A 
ATOM      8  C   UNL     1      -9.974   3.536   0.114  0.00  0.00    +0.067 A 
ATOM      9  C   UNL     1      -8.948   4.461   0.115  0.00  0.00    +0.039 A 
ATOM     10  N   UNL     1     -11.363   3.650   0.127  0.00  0.00    -0.306 N 
ATOM     11  H   UNL     1     -11.833   4.644   0.137  0.00  0.00    +0.170 HD
ATOM     12  C   UNL     1     -11.887   2.409   0.124  0.00  0.00    +0.325 A 
ATOM     13  O   UNL     1     -13.076   2.151   0.134  0.00  0.00    -0.247 OA
ATOM     14  N   UNL     1     -10.896   1.498   0.110  0.00  0.00    -0.306 N 
ATOM     15  H   UNL     1     -10.919   0.398   0.103  0.00  0.00    +0.170 HD
ENDBRANCH   2   4
ENDBRANCH   1   2
BRANCH   1  16
ATOM     16  S   UNL     1      -3.979   5.945   0.071  0.00  0.00    -0.098 S 
BRANCH  16  26
ATOM     17  C   UNL     1       2.493   1.021  -0.016  0.00  0.00    +0.044 C 
ATOM     18  C   UNL     1       1.190   1.778   0.000  0.00  0.00    -0.050 A 
ATOM     19  C   UNL     1      -0.013   1.076   0.008  0.00  0.00    +0.008 A 
ATOM     20  C   UNL     1      -1.207   1.730   0.017  0.00  0.00    -0.024 A 
ATOM     21  C   UNL     1      -1.232   3.135   0.030  0.00  0.00    +0.075 A 
ATOM     22  C   UNL     1      -0.008   3.846   0.022  0.00  0.00    +0.004 A 
ATOM     23  C   UNL     1       1.204   3.140   0.007  0.00  0.00    +0.013 A 
ATOM     24  C   UNL     1      -0.033   5.256   0.031  0.00  0.00    -0.039 A 
ATOM     25  C   UNL     1      -1.244   5.880   0.046  0.00  0.00    +0.038 A 
ATOM     26  C   UNL     1      -2.422   5.120   0.052  0.00  0.00    +0.098 A 
ATOM     27  N   UNL     1      -2.392   3.802   0.044  0.00  0.00    -0.240 NA
ATOM     28  C   UNL     1       1.247   6.052   0.024  0.00  0.00    +0.044 C 
ATOM     29  C   UNL     1      -2.496   0.950   0.020  0.00  0.00    +0.046 C 
ENDBRANCH  16  26
ENDBRANCH   1  16
TORSDOF 4
