REMARK  Name = ZINC40839747
REMARK  6 active torsions:
REMARK  status: ('A' for Active; 'I' for Inactive)
REMARK    1  A    between atoms: C_1  and  C_2
REMARK    2  A    between atoms: C_12  and  C_14
REMARK    3  A    between atoms: C_14  and  C_15
REMARK    4  A    between atoms: C_15  and  N_16
REMARK    5  A    between atoms: C_29  and  C_36
REMARK    6  A    between atoms: C_32  and  C_35
REMARK                            x       y       z     vdW  Elec       q    Type
REMARK                         _______ _______ _______ _____ _____    ______ ____
ROOT
ATOM      1  N   UNL     1       1.406  -1.001   6.035  0.00  0.00    -0.303 N 
ATOM      2  C   UNL     1       1.167  -2.280   6.503  0.00  0.00    +0.070 A 
ATOM      3  C   UNL     1       0.113  -3.029   5.986  0.00  0.00    +0.028 A 
ATOM      4  C   UNL     1      -0.118  -4.303   6.457  0.00  0.00    +0.002 A 
ATOM      5  C   UNL     1       0.692  -4.847   7.444  0.00  0.00    +0.002 A 
ATOM      6  C   UNL     1       1.731  -4.130   7.964  0.00  0.00    +0.030 A 
ATOM      7  C   UNL     1       1.987  -2.832   7.502  0.00  0.00    +0.090 A 
ATOM      8  N   UNL     1       3.015  -2.124   8.016  0.00  0.00    -0.225 NA
ATOM      9  C   UNL     1       3.273  -0.911   7.600  0.00  0.00    +0.188 A 
ATOM     10  C   UNL     1       2.439  -0.297   6.549  0.00  0.00    +0.292 A 
ATOM     11  O   UNL     1       2.675   0.829   6.153  0.00  0.00    -0.264 OA
ATOM     12  N   UNL     1       4.331  -0.204   8.143  0.00  0.00    -0.310 N 
ATOM     13  C   UNL     1       5.073  -0.735   9.295  0.00  0.00    +0.110 C 
ATOM     14  C   UNL     1       6.565  -0.763   8.950  0.00  0.00    +0.004 C 
ATOM     15  C   UNL     1       7.009   0.632   8.505  0.00  0.00    +0.009 C 
ATOM     16  C   UNL     1       6.231   1.042   7.252  0.00  0.00    +0.004 C 
ATOM     17  C   UNL     1       4.739   1.088   7.574  0.00  0.00    +0.110 C 
ATOM     18  C   UNL     1       6.699   2.422   6.789  0.00  0.00    +0.009 C 
ATOM     19  C   UNL     1       6.808  -1.762   7.817  0.00  0.00    +0.009 C 
ENDROOT
BRANCH   1  20
ATOM     20  C   UNL     1       0.556  -0.419   4.994  0.00  0.00    +0.135 C 
BRANCH  20  21
ATOM     21  C   UNL     1       1.133  -0.757   3.617  0.00  0.00    +0.118 C 
BRANCH  21  32
ATOM     22  C   UNL     1      -0.245   1.732   0.183  0.00  0.00    +0.029 C 
ATOM     23  C   UNL     1      -0.197   0.204   0.119  0.00  0.00    +0.083 C 
ATOM     24  C   UNL     1       0.558  -0.253  -1.140  0.00  0.00    +0.059 C 
ATOM     25  C   UNL     1       1.740  -1.035  -0.612  0.00  0.00    -0.024 A 
ATOM     26  C   UNL     1       2.765  -1.684  -1.272  0.00  0.00    +0.005 A 
ATOM     27  C   UNL     1       3.747  -2.342  -0.555  0.00  0.00    +0.000 A 
ATOM     28  C   UNL     1       3.701  -2.349   0.827  0.00  0.00    +0.002 A 
ATOM     29  C   UNL     1       2.680  -1.702   1.491  0.00  0.00    +0.024 A 
ATOM     30  C   UNL     1       1.684  -1.036   0.773  0.00  0.00    +0.040 A 
ATOM     31  N   UNL     1       0.573  -0.328   1.246  0.00  0.00    -0.268 N 
ATOM     32  C   UNL     1       0.258  -0.158   2.546  0.00  0.00    +0.222 C 
ATOM     33  O   UNL     1      -0.729   0.476   2.853  0.00  0.00    -0.275 OA
ENDBRANCH  21  32
ENDBRANCH  20  21
ENDBRANCH   1  20
TORSDOF 3
