REMARK  Name = ZINC09460886
REMARK  8 active torsions:
REMARK  status: ('A' for Active; 'I' for Inactive)
REMARK    1  A    between atoms: C_1  and  C_2
REMARK    2  A    between atoms: C_2  and  C_3
REMARK    3  A    between atoms: C_3  and  C_27
REMARK    4  A    between atoms: N_4  and  N_5
REMARK    5  A    between atoms: C_6  and  C_8
REMARK    6  A    between atoms: C_9  and  C_19
REMARK    7  A    between atoms: C_19  and  S_20
REMARK    8  A    between atoms: S_20  and  C_21
REMARK                            x       y       z     vdW  Elec       q    Type
REMARK                         _______ _______ _______ _____ _____    ______ ____
ROOT
ATOM      1  C   UNL     1       7.316  -0.442   1.025  0.00  0.00    +0.173 A 
ATOM      2  C   UNL     1       6.559  -0.108  -0.062  0.00  0.00    +0.089 A 
ATOM      3  N   UNL     1       7.285  -0.430  -1.156  0.00  0.00    -0.191 N 
ATOM      4  N   UNL     1       8.500  -0.957  -0.695  0.00  0.00    -0.058 NA
ATOM      5  N   UNL     1       8.482  -0.952   0.592  0.00  0.00    -0.124 NA
ATOM      6  C   UNL     1       6.899  -0.267  -2.491  0.00  0.00    +0.240 A 
ATOM      7  C   UNL     1       7.701  -0.623  -3.666  0.00  0.00    +0.206 A 
ATOM      8  N   UNL     1       7.015  -0.327  -4.736  0.00  0.00    -0.032 NA
ATOM      9  O   UNL     1       5.775   0.217  -4.319  0.00  0.00    -0.239 OA
ATOM     10  N   UNL     1       5.764   0.222  -2.903  0.00  0.00    -0.027 NA
ATOM     11  N   UNL     1       8.974  -1.181  -3.643  0.00  0.00    -0.337 N 
ATOM     12  H   UNL     1       9.407  -1.367  -2.796  0.00  0.00    +0.144 HD
ATOM     13  H   UNL     1       9.429  -1.384  -4.475  0.00  0.00    +0.144 HD
ENDROOT
BRANCH   1  15
ATOM     14  N   UNL     1       7.762  -0.642   3.421  0.00  0.00    -0.201 N 
ATOM     15  C   UNL     1       6.921  -0.271   2.436  0.00  0.00    +0.285 C 
ATOM     16  O   UNL     1       5.835   0.204   2.710  0.00  0.00    -0.267 OA
ATOM     17  H   UNL     1       8.628  -1.021   3.203  0.00  0.00    +0.178 HD
BRANCH  14  19
ATOM     18  C   UNL     1       8.197  -0.836   5.710  0.00  0.00    +0.066 C 
ATOM     19  N   UNL     1       7.386  -0.479   4.761  0.00  0.00    -0.184 NA
BRANCH  18  20
ATOM     20  C   UNL     1       7.801  -0.666   7.120  0.00  0.00    -0.002 A 
ATOM     21  C   UNL     1       8.668  -1.054   8.144  0.00  0.00    +0.010 A 
ATOM     22  C   UNL     1       8.294  -0.887   9.461  0.00  0.00    +0.001 A 
ATOM     23  C   UNL     1       7.058  -0.345   9.769  0.00  0.00    +0.000 A 
ATOM     24  C   UNL     1       6.192   0.037   8.760  0.00  0.00    +0.001 A 
ATOM     25  C   UNL     1       6.555  -0.120   7.439  0.00  0.00    +0.010 A 
ENDBRANCH  18  20
BRANCH  18  27
ATOM     26  C   UNL     1      10.576  -0.303   5.258  0.00  0.00    +0.010 C 
ATOM     27  C   UNL     1       9.542  -1.425   5.370  0.00  0.00    +0.054 C 
ENDBRANCH  18  27
ENDBRANCH  14  19
ENDBRANCH   1  15
BRANCH   2  28
ATOM     28  C   UNL     1       5.179   0.497  -0.045  0.00  0.00    +0.132 C 
BRANCH  28  29
ATOM     29  S   UNL     1       3.939  -0.827  -0.041  0.00  0.00    -0.119 S 
BRANCH  29  30
ATOM     30  C   UNL     1       2.400   0.031  -0.021  0.00  0.00    +0.008 A 
ATOM     31  C   UNL     1       1.206  -0.680  -0.013  0.00  0.00    +0.015 A 
ATOM     32  C   UNL     1       0.002  -0.004   0.002  0.00  0.00    +0.001 A 
ATOM     33  C   UNL     1      -0.017   1.379   0.010  0.00  0.00    +0.000 A 
ATOM     34  C   UNL     1       1.169   2.090   0.002  0.00  0.00    +0.001 A 
ATOM     35  C   UNL     1       2.377   1.421  -0.013  0.00  0.00    +0.015 A 
ENDBRANCH  29  30
ENDBRANCH  28  29
ENDBRANCH   2  28
TORSDOF 7
