REMARK  Name = ZINC41156094
REMARK  11 active torsions:
REMARK  status: ('A' for Active; 'I' for Inactive)
REMARK    1  A    between atoms: C_1  and  C_2
REMARK    2  A    between atoms: C_2  and  C_3
REMARK    3  A    between atoms: C_2  and  C_4
REMARK    4  A    between atoms: C_4  and  O_5
REMARK    5  A    between atoms: O_5  and  C_6
REMARK    6  A    between atoms: C_9  and  C_12
REMARK    7  A    between atoms: C_14  and  N_25
REMARK    8  A    between atoms: N_15  and  C_17
REMARK    9  A    between atoms: C_26  and  C_28
REMARK   10  A    between atoms: C_28  and  O_29
REMARK   11  A    between atoms: O_29  and  C_30
REMARK                            x       y       z     vdW  Elec       q    Type
REMARK                         _______ _______ _______ _____ _____    ______ ____
ROOT
ATOM      1  C   UNL     1       2.175  -1.710   7.352  0.00  0.00    +0.095 A 
ATOM      2  C   UNL     1       1.609  -1.464   8.617  0.00  0.00    +0.073 A 
ATOM      3  C   UNL     1       2.436  -2.000   9.553  0.00  0.00    +0.124 A 
ATOM      4  N   UNL     1       3.486  -2.565   8.902  0.00  0.00    -0.245 N 
ATOM      5  N   UNL     1       3.298  -2.375   7.527  0.00  0.00    -0.169 NA
ENDROOT
BRANCH   4   6
ATOM      6  C   UNL     1       4.616  -3.257   9.529  0.00  0.00    +0.132 C 
ATOM      7  C   UNL     1       5.931  -2.561   9.139  0.00  0.00    +0.051 C 
ATOM      8  C   UNL     1       7.134  -3.456   9.522  0.00  0.00    +0.168 C 
ATOM      9  S   UNL     1       6.424  -5.150   9.431  0.00  0.00    -0.029 S 
ATOM     10  O   UNL     1       6.468  -5.740  10.722  0.00  0.00    -0.174 OA
ATOM     11  O   UNL     1       7.003  -5.835   8.329  0.00  0.00    -0.174 OA
ATOM     12  C   UNL     1       4.677  -4.726   9.024  0.00  0.00    +0.192 C 
ENDBRANCH   4   6
BRANCH   1  16
ATOM     13  C   UNL     1       0.534  -0.527   3.610  0.00  0.00    +0.121 A 
ATOM     14  C   UNL     1       1.733  -1.226   3.651  0.00  0.00    +0.046 A 
ATOM     15  C   UNL     1       2.267  -1.611   4.862  0.00  0.00    +0.013 A 
ATOM     16  C   UNL     1       1.603  -1.297   6.046  0.00  0.00    +0.002 A 
ATOM     17  C   UNL     1       0.401  -0.594   6.003  0.00  0.00    +0.013 A 
ATOM     18  C   UNL     1      -0.126  -0.207   4.788  0.00  0.00    +0.046 A 
BRANCH  13  19
ATOM     19  O   UNL     1       0.010  -0.149   2.414  0.00  0.00    -0.492 OA
BRANCH  19  20
ATOM     20  C   UNL     1       0.742  -0.511   1.242  0.00  0.00    +0.232 C 
BRANCH  20  22
ATOM     21  C   UNL     1      -0.019   1.526   0.010  0.00  0.00    +0.010 C 
ATOM     22  C   UNL     1       0.002  -0.004   0.002  0.00  0.00    +0.020 C 
ATOM     23  C   UNL     1       0.718  -0.497  -1.257  0.00  0.00    +0.010 C 
ENDBRANCH  20  22
ENDBRANCH  19  20
ENDBRANCH  13  19
ENDBRANCH   1  16
BRANCH   3  24
ATOM     24  N   UNL     1       2.240  -1.975  10.934  0.00  0.00    -0.268 N 
ATOM     25  C   UNL     1       1.148  -1.377  11.449  0.00  0.00    +0.256 C 
ATOM     26  O   UNL     1       0.334  -0.862  10.712  0.00  0.00    -0.272 OA
ATOM     27  H   UNL     1       2.891  -2.388  11.523  0.00  0.00    +0.156 HD
BRANCH  25  28
ATOM     28  C   UNL     1       0.937  -1.350  12.941  0.00  0.00    +0.324 C 
BRANCH  28  29
ATOM     29  O   UNL     1      -0.282  -0.665  13.237  0.00  0.00    -0.483 OA
BRANCH  29  30
ATOM     30  C   UNL     1      -0.623  -0.552  14.548  0.00  0.00    +0.121 A 
ATOM     31  C   UNL     1       0.202  -1.083  15.529  0.00  0.00    +0.047 A 
ATOM     32  C   UNL     1      -0.146  -0.966  16.861  0.00  0.00    +0.023 A 
ATOM     33  C   UNL     1      -1.317  -0.320  17.217  0.00  0.00    +0.041 A 
ATOM     34  C   UNL     1      -2.141   0.210  16.240  0.00  0.00    +0.023 A 
ATOM     35  C   UNL     1      -1.793   0.101  14.907  0.00  0.00    +0.047 A 
ATOM     36 CL   UNL     1      -1.752  -0.175  18.891  0.00  0.00    -0.084 Cl
ENDBRANCH  29  30
ENDBRANCH  28  29
ENDBRANCH  25  28
ENDBRANCH   3  24
TORSDOF 9
