REMARK  Name = ZINC33568218
REMARK  6 active torsions:
REMARK  status: ('A' for Active; 'I' for Inactive)
REMARK    1  A    between atoms: C_1  and  C_2
REMARK    2  A    between atoms: C_5  and  N_8
REMARK    3  A    between atoms: C_11  and  C_12
REMARK    4  A    between atoms: C_15  and  C_17
REMARK    5  A    between atoms: C_20  and  S_23
REMARK    6  A    between atoms: S_23  and  N_26
REMARK                            x       y       z     vdW  Elec       q    Type
REMARK                         _______ _______ _______ _____ _____    ______ ____
ROOT
ATOM      1  C   UNL     1       3.030  -2.449   2.807  0.00  0.00    +0.130 A 
ATOM      2  C   UNL     1       3.291  -1.148   3.196  0.00  0.00    +0.050 A 
ATOM      3  C   UNL     1       4.395  -1.197   4.052  0.00  0.00    +0.050 A 
ATOM      4  C   UNL     1       4.766  -2.507   4.156  0.00  0.00    +0.136 A 
ATOM      5  O   UNL     1       3.934  -3.253   3.405  0.00  0.00    -0.455 OA
ENDROOT
BRANCH   1   9
ATOM      6  N   UNL     1      -0.203  -4.184   0.313  0.00  0.00    -0.231 NA
ATOM      7  C   UNL     1       0.793  -4.855   0.857  0.00  0.00    +0.140 C 
ATOM      8  C   UNL     1       1.846  -4.187   1.641  0.00  0.00    +0.060 C 
ATOM      9  C   UNL     1       1.996  -2.864   1.939  0.00  0.00    +0.065 C 
ATOM     10  S   UNL     1       2.873  -5.575   2.095  0.00  0.00    -0.028 S 
ATOM     11  C   UNL     1       1.936  -6.864   1.293  0.00  0.00    +0.282 C 
ATOM     12  O   UNL     1       2.170  -8.058   1.264  0.00  0.00    -0.262 OA
ATOM     13  N   UNL     1       0.904  -6.204   0.731  0.00  0.00    -0.260 N 
ATOM     14  H   UNL     1       0.236  -6.696   0.229  0.00  0.00    +0.157 HD
BRANCH   6  19
ATOM     15  C   UNL     1      -0.236   1.455   0.488  0.00  0.00    +0.044 C 
ATOM     16  C   UNL     1      -0.228  -0.051   0.442  0.00  0.00    -0.050 A 
ATOM     17  C   UNL     1       0.470  -0.705  -0.559  0.00  0.00    +0.005 A 
ATOM     18  C   UNL     1       0.483  -2.083  -0.609  0.00  0.00    +0.028 A 
ATOM     19  C   UNL     1      -0.211  -2.820   0.356  0.00  0.00    +0.066 A 
ATOM     20  C   UNL     1      -0.913  -2.152   1.364  0.00  0.00    +0.028 A 
ATOM     21  C   UNL     1      -0.912  -0.774   1.403  0.00  0.00    +0.005 A 
ENDBRANCH   6  19
ENDBRANCH   1   9
BRANCH   4  22
ATOM     22  C   UNL     1       5.891  -3.021   4.962  0.00  0.00    +0.017 A 
ATOM     23  C   UNL     1       6.678  -2.141   5.710  0.00  0.00    +0.013 A 
ATOM     24  C   UNL     1       7.727  -2.629   6.461  0.00  0.00    +0.029 A 
ATOM     25  C   UNL     1       8.001  -3.985   6.474  0.00  0.00    +0.105 A 
ATOM     26  C   UNL     1       7.226  -4.862   5.736  0.00  0.00    +0.029 A 
ATOM     27  C   UNL     1       6.170  -4.390   4.985  0.00  0.00    +0.013 A 
BRANCH  25  28
ATOM     28  S   UNL     1       9.344  -4.599   7.436  0.00  0.00    +0.056 S 
ATOM     29  O   UNL     1       9.731  -5.835   6.851  0.00  0.00    -0.153 OA
ATOM     30  O   UNL     1      10.251  -3.518   7.603  0.00  0.00    -0.153 OA
BRANCH  28  31
ATOM     31  N   UNL     1       8.748  -4.953   8.940  0.00  0.00    -0.204 NA
ATOM     32  H   UNL     1       9.147  -5.664   9.464  0.00  0.00    +0.144 HD
ATOM     33  H   UNL     1       7.999  -4.449   9.296  0.00  0.00    +0.144 HD
ENDBRANCH  28  31
ENDBRANCH  25  28
ENDBRANCH   4  22
TORSDOF 5
