REMARK  Name = ZINC34782229
REMARK  7 active torsions:
REMARK  status: ('A' for Active; 'I' for Inactive)
REMARK    1  A    between atoms: C_1  and  C_2
REMARK    2  A    between atoms: C_6  and  N_19
REMARK    3  A    between atoms: C_7  and  C_11
REMARK    4  A    between atoms: C_11  and  C_13
REMARK    5  A    between atoms: C_23  and  C_41
REMARK    6  A    between atoms: C_33  and  C_40
REMARK    7  A    between atoms: C_36  and  O_39
REMARK                            x       y       z     vdW  Elec       q    Type
REMARK                         _______ _______ _______ _____ _____    ______ ____
ROOT
ATOM      1  C   UNL     1      -1.736   2.038  -0.009  0.00  0.00    +0.063 C 
ATOM      2  C   UNL     1      -1.496   0.552   0.044  0.00  0.00    +0.018 A 
ATOM      3  C   UNL     1      -1.408  -0.184  -1.131  0.00  0.00    -0.018 A 
ATOM      4  C   UNL     1      -1.205  -1.573  -1.121  0.00  0.00    -0.030 A 
ATOM      5  C   UNL     1      -1.054  -2.215   0.122  0.00  0.00    +0.030 A 
ATOM      6  C   UNL     1      -0.816  -3.605   0.406  0.00  0.00    +0.052 A 
ATOM      7  C   UNL     1      -0.705  -3.988   1.734  0.00  0.00    +0.083 A 
ATOM      8  S   UNL     1      -0.922  -2.459   2.628  0.00  0.00    -0.065 S 
ATOM      9  C   UNL     1      -1.152  -1.360   1.264  0.00  0.00    +0.088 A 
ATOM     10  N   UNL     1      -1.361  -0.063   1.218  0.00  0.00    -0.352 N 
ATOM     11  C   UNL     1      -1.227  -2.118  -2.523  0.00  0.00    +0.041 C 
ATOM     12  C   UNL     1      -1.967  -1.025  -3.304  0.00  0.00    +0.007 C 
ATOM     13  C   UNL     1      -1.471   0.239  -2.549  0.00  0.00    -0.002 C 
ATOM     14  C   UNL     1      -2.376   1.379  -2.960  0.00  0.00    +0.012 C 
ATOM     15  C   UNL     1      -2.103   1.627  -4.455  0.00  0.00    +0.005 C 
ATOM     16  C   UNL     1      -2.338   0.377  -5.297  0.00  0.00    +0.003 C 
ATOM     17  C   UNL     1      -1.583  -0.854  -4.761  0.00  0.00    +0.001 C 
ATOM     18  C   UNL     1      -2.046  -2.082  -5.555  0.00  0.00    +0.031 C 
ATOM     19  C   UNL     1      -1.875  -1.825  -7.023  0.00  0.00    -0.027 C 
ATOM     20  C   UNL     1      -1.809  -0.639  -7.539  0.00  0.00    -0.065 C 
ATOM     21  C   UNL     1      -1.900   0.648  -6.731  0.00  0.00    -0.008 C 
ATOM     22  C   UNL     1      -0.566   1.390  -6.767  0.00  0.00    +0.014 C 
ATOM     23  C   UNL     1       0.182   1.058  -8.059  0.00  0.00    +0.032 C 
ATOM     24  C   UNL     1      -0.789   0.863  -9.222  0.00  0.00    +0.119 C 
ATOM     25  C   UNL     1      -1.598  -0.480  -9.036  0.00  0.00    +0.062 C 
ATOM     26  C   UNL     1      -2.949   1.542  -7.395  0.00  0.00    +0.016 C 
ATOM     27  C   UNL     1      -0.053   0.560  -3.026  0.00  0.00    +0.016 C 
ATOM     28  H   UNL     1      -1.420   0.448   2.041  0.00  0.00    +0.166 HD
ENDROOT
BRANCH   6  29
ATOM     29  N   UNL     1      -0.702  -4.533  -0.616  0.00  0.00    -0.356 N 
ATOM     30  H   UNL     1      -0.783  -4.250  -1.540  0.00  0.00    +0.142 HD
ATOM     31  H   UNL     1      -0.541  -5.467  -0.407  0.00  0.00    +0.142 HD
ENDBRANCH   6  29
BRANCH   7  32
ATOM     32  C   UNL     1      -0.474  -5.282   2.256  0.00  0.00    +0.202 C 
ATOM     33  O   UNL     1      -0.240  -6.210   1.502  0.00  0.00    -0.286 OA
BRANCH  32  34
ATOM     34  C   UNL     1      -0.516  -5.509   3.718  0.00  0.00    +0.023 A 
ATOM     35  C   UNL     1      -1.252  -4.653   4.539  0.00  0.00    +0.012 A 
ATOM     36  C   UNL     1      -1.288  -4.870   5.901  0.00  0.00    +0.001 A 
ATOM     37  C   UNL     1      -0.596  -5.933   6.453  0.00  0.00    +0.000 A 
ATOM     38  C   UNL     1       0.136  -6.785   5.645  0.00  0.00    +0.001 A 
ATOM     39  C   UNL     1       0.175  -6.582   4.281  0.00  0.00    +0.012 A 
ENDBRANCH  32  34
ENDBRANCH   7  32
BRANCH  24  40
ATOM     40  O   UNL     1      -1.710   1.955  -9.261  0.00  0.00    -0.391 OA
ATOM     41  H   UNL     1      -2.377   1.882  -9.958  0.00  0.00    +0.210 HD
ENDBRANCH  24  40
TORSDOF 4
