REMARK  Name = ZINC17222181
REMARK  5 active torsions:
REMARK  status: ('A' for Active; 'I' for Inactive)
REMARK    1  A    between atoms: C_1  and  C_2
REMARK    2  A    between atoms: C_7  and  C_9
REMARK    3  A    between atoms: C_14  and  O_15
REMARK    4  A    between atoms: C_19  and  C_21
REMARK    5  A    between atoms: C_24  and  O_27
REMARK                            x       y       z     vdW  Elec       q    Type
REMARK                         _______ _______ _______ _____ _____    ______ ____
ROOT
ATOM      1  C   UNL     1       5.585   5.160  -0.289  0.00  0.00    +0.068 C 
ATOM      2  C   UNL     1       5.022   3.763  -0.244  0.00  0.00    +0.067 A 
ATOM      3  C   UNL     1       5.760   2.590  -0.317  0.00  0.00    +0.037 A 
ATOM      4  C   UNL     1       4.880   1.524  -0.245  0.00  0.00    +0.167 A 
ATOM      5  N   UNL     1       3.627   2.055  -0.122  0.00  0.00    -0.177 N 
ATOM      6  N   UNL     1       3.753   3.452  -0.136  0.00  0.00    -0.167 NA
ATOM      7  C   UNL     1       2.477   1.362  -0.013  0.00  0.00    +0.284 C 
ATOM      8  O   UNL     1       2.504   0.150   0.075  0.00  0.00    -0.265 OA
ATOM      9  N   UNL     1       5.251   0.221  -0.264  0.00  0.00    -0.207 NA
ATOM     10  C   UNL     1       6.407  -0.171  -0.732  0.00  0.00    +0.154 C 
ATOM     11  S   UNL     1       7.564   0.943  -1.451  0.00  0.00    -0.078 S 
ATOM     12  C   UNL     1       7.255   2.424  -0.451  0.00  0.00    +0.119 C 
ATOM     13  N   UNL     1       6.731  -1.503  -0.661  0.00  0.00    -0.338 N 
ATOM     14  H   UNL     1       7.698  -1.856  -1.049  0.00  0.00    +0.144 HD
ATOM     15  H   UNL     1       6.023  -2.218  -0.216  0.00  0.00    +0.144 HD
ENDROOT
BRANCH   7  16
ATOM     16  C   UNL     1       1.186   2.073  -0.001  0.00  0.00    +0.083 A 
ATOM     17  C   UNL     1       1.154   3.470   0.022  0.00  0.00    +0.017 A 
ATOM     18  C   UNL     1      -0.056   4.129   0.033  0.00  0.00    +0.001 A 
ATOM     19  C   UNL     1      -1.242   3.412   0.022  0.00  0.00    +0.004 A 
ATOM     20  C   UNL     1      -1.225   2.032  -0.006  0.00  0.00    +0.046 A 
ATOM     21  C   UNL     1      -0.016   1.352  -0.012  0.00  0.00    +0.129 A 
BRANCH  21  22
ATOM     22  O   UNL     1       0.002  -0.004  -0.035  0.00  0.00    -0.506 OA
ATOM     23  H   UNL     1      -0.943  -0.567  -0.044  0.00  0.00    +0.292 HD
ENDBRANCH  21  22
ENDBRANCH   7  16
BRANCH  12  24
ATOM     24  C   UNL     1       7.875   2.257   0.912  0.00  0.00    -0.029 A 
ATOM     25  C   UNL     1       7.470   1.220   1.732  0.00  0.00    +0.008 A 
ATOM     26  C   UNL     1       8.041   1.061   2.980  0.00  0.00    +0.046 A 
ATOM     27  C   UNL     1       9.013   1.950   3.415  0.00  0.00    +0.117 A 
ATOM     28  C   UNL     1       9.413   2.994   2.593  0.00  0.00    +0.046 A 
ATOM     29  C   UNL     1       8.843   3.145   1.343  0.00  0.00    +0.008 A 
BRANCH  27  30
ATOM     30  O   UNL     1       9.573   1.800   4.644  0.00  0.00    -0.507 OA
ATOM     31  H   UNL     1      10.343   2.505   4.988  0.00  0.00    +0.292 HD
ENDBRANCH  27  30
ENDBRANCH  12  24
TORSDOF 4
