REMARK  Name = ZINC40928950
REMARK  7 active torsions:
REMARK  status: ('A' for Active; 'I' for Inactive)
REMARK    1  A    between atoms: C_1  and  C_2
REMARK    2  A    between atoms: C_2  and  C_3
REMARK    3  A    between atoms: C_3  and  C_4
REMARK    4  A    between atoms: C_4  and  O_5
REMARK    5  A    between atoms: O_5  and  C_6
REMARK    6  A    between atoms: C_9  and  C_12
REMARK    7  A    between atoms: C_18  and  C_20
REMARK                            x       y       z     vdW  Elec       q    Type
REMARK                         _______ _______ _______ _____ _____    ______ ____
ROOT
ATOM      1  C   UNL     1       1.845  -8.044  -3.112  0.00  0.00    +0.080 A 
ATOM      2  C   UNL     1       2.481  -8.558  -4.207  0.00  0.00    +0.076 A 
ATOM      3  S   UNL     1       2.317 -10.311  -3.892  0.00  0.00    -0.060 S 
ATOM      4  C   UNL     1       1.426 -10.178  -2.348  0.00  0.00    +0.165 A 
ATOM      5  N   UNL     1       1.338  -8.868  -2.208  0.00  0.00    -0.225 NA
ATOM      6  N   UNL     1       0.956 -11.184  -1.516  0.00  0.00    -0.260 N 
ATOM      7  C   UNL     1       1.157 -12.477  -1.841  0.00  0.00    +0.257 C 
ATOM      8  O   UNL     1       1.749 -12.761  -2.865  0.00  0.00    -0.270 OA
ATOM      9  H   UNL     1       0.483 -10.958  -0.700  0.00  0.00    +0.157 HD
ENDROOT
BRANCH   7  10
ATOM     10  C   UNL     1       0.658 -13.544  -0.959  0.00  0.00    +0.122 A 
ATOM     11  C   UNL     1       0.854 -14.884  -1.265  0.00  0.00    +0.031 A 
ATOM     12  C   UNL     1       0.317 -15.856  -0.382  0.00  0.00    +0.019 A 
ATOM     13  C   UNL     1       0.651 -17.211  -0.526  0.00  0.00    +0.026 A 
ATOM     14  C   UNL     1       0.159 -18.129   0.357  0.00  0.00    +0.019 A 
ATOM     15  C   UNL     1      -0.676 -17.733   1.395  0.00  0.00    +0.019 A 
ATOM     16  C   UNL     1      -1.032 -16.409   1.544  0.00  0.00    +0.048 A 
ATOM     17  C   UNL     1      -0.550 -15.460   0.653  0.00  0.00    +0.139 A 
ATOM     18  O   UNL     1      -0.927 -14.163   0.764  0.00  0.00    -0.422 OA
ATOM     19  C   UNL     1      -0.064 -13.233   0.288  0.00  0.00    +0.350 A 
ATOM     20  O   UNL     1       0.107 -12.176   0.867  0.00  0.00    -0.244 OA
ATOM     21 BR   UNL     1       0.618 -19.953   0.167  0.00  0.00    -0.050 Br
ENDBRANCH   7  10
BRANCH   1  25
ATOM     22  C   UNL     1       1.514  -3.833  -2.603  0.00  0.00    +0.121 A 
ATOM     23  C   UNL     1       0.978  -4.690  -1.651  0.00  0.00    +0.046 A 
ATOM     24  C   UNL     1       1.084  -6.056  -1.813  0.00  0.00    +0.013 A 
ATOM     25  C   UNL     1       1.729  -6.575  -2.935  0.00  0.00    +0.001 A 
ATOM     26  C   UNL     1       2.265  -5.712  -3.889  0.00  0.00    +0.013 A 
ATOM     27  C   UNL     1       2.152  -4.348  -3.724  0.00  0.00    +0.046 A 
BRANCH  22  28
ATOM     28  O   UNL     1       1.408  -2.488  -2.441  0.00  0.00    -0.492 OA
BRANCH  28  29
ATOM     29  C   UNL     1       0.739  -2.027  -1.265  0.00  0.00    +0.229 C 
BRANCH  29  30
ATOM     30  C   UNL     1       0.718  -0.497  -1.257  0.00  0.00    +0.041 C 
BRANCH  30  32
ATOM     31  C   UNL     1      -0.019   1.526   0.010  0.00  0.00    +0.004 C 
ATOM     32  C   UNL     1       0.002  -0.004   0.002  0.00  0.00    -0.000 C 
ENDBRANCH  30  32
ENDBRANCH  29  30
ENDBRANCH  28  29
ENDBRANCH  22  28
ENDBRANCH   1  25
TORSDOF 6
