REMARK  Name = ZINC14545894
REMARK  6 active torsions:
REMARK  status: ('A' for Active; 'I' for Inactive)
REMARK    1  A    between atoms: C_1  and  O_2
REMARK    2  A    between atoms: O_2  and  C_3
REMARK    3  A    between atoms: C_8  and  C_9
REMARK    4  A    between atoms: C_20  and  S_25
REMARK    5  A    between atoms: S_25  and  N_28
REMARK    6  A    between atoms: N_28  and  C_29
REMARK                            x       y       z     vdW  Elec       q    Type
REMARK                         _______ _______ _______ _____ _____    ______ ____
ROOT
ATOM      1  C   UNL     1       3.385  -4.191  -2.708  0.00  0.00    +0.108 C 
ATOM      2  C   UNL     1       2.327  -3.782  -1.698  0.00  0.00    +0.029 C 
ATOM      3  C   UNL     1       2.053  -2.281  -1.540  0.00  0.00    +0.033 C 
ATOM      4  C   UNL     1       0.582  -2.279  -1.119  0.00  0.00    -0.030 C 
ATOM      5  C   UNL     1      -0.020  -3.373  -1.569  0.00  0.00    -0.023 C 
ATOM      6  C   UNL     1       0.966  -4.199  -2.332  0.00  0.00    +0.049 C 
ATOM      7  C   UNL     1       0.919  -5.677  -2.372  0.00  0.00    -0.018 A 
ATOM      8  C   UNL     1      -0.248  -6.385  -2.186  0.00  0.00    +0.034 A 
ATOM      9  C   UNL     1      -0.243  -7.767  -2.246  0.00  0.00    +0.109 A 
ATOM     10  C   UNL     1       0.937  -8.443  -2.496  0.00  0.00    +0.030 A 
ATOM     11  C   UNL     1       2.112  -7.743  -2.679  0.00  0.00    +0.025 A 
ATOM     12  C   UNL     1       2.119  -6.355  -2.614  0.00  0.00    +0.031 A 
ATOM     13  N   UNL     1       3.331  -5.668  -2.770  0.00  0.00    -0.336 N 
ATOM     14  H   UNL     1       4.148  -6.169  -2.920  0.00  0.00    +0.147 HD
ENDROOT
BRANCH   1  20
ATOM     15  C   UNL     1       5.157  -2.433  -2.466  0.00  0.00    +0.125 A 
ATOM     16  C   UNL     1       6.409  -2.019  -2.036  0.00  0.00    +0.046 A 
ATOM     17  C   UNL     1       7.247  -2.910  -1.394  0.00  0.00    +0.004 A 
ATOM     18  C   UNL     1       6.838  -4.213  -1.180  0.00  0.00    +0.001 A 
ATOM     19  C   UNL     1       5.591  -4.628  -1.609  0.00  0.00    +0.009 A 
ATOM     20  C   UNL     1       4.747  -3.740  -2.246  0.00  0.00    +0.015 A 
BRANCH  15  22
ATOM     21  C   UNL     1       4.818  -0.228  -3.291  0.00  0.00    +0.277 C 
ATOM     22  O   UNL     1       4.330  -1.558  -3.098  0.00  0.00    -0.495 OA
ENDBRANCH  15  22
ENDBRANCH   1  20
BRANCH   9  23
ATOM     23  S   UNL     1      -1.739  -8.665  -2.004  0.00  0.00    +0.072 S 
ATOM     24  O   UNL     1      -1.374  -9.921  -1.449  0.00  0.00    -0.150 OA
ATOM     25  O   UNL     1      -2.644  -7.780  -1.357  0.00  0.00    -0.150 OA
BRANCH  23  26
ATOM     26  N   UNL     1      -2.372  -8.976  -3.503  0.00  0.00    -0.216 N 
ATOM     27  H   UNL     1      -2.473  -9.892  -3.806  0.00  0.00    +0.174 HD
BRANCH  26  28
ATOM     28  C   UNL     1      -2.759  -7.919  -4.330  0.00  0.00    +0.048 A 
ATOM     29  C   UNL     1      -3.931  -7.222  -4.067  0.00  0.00    +0.024 A 
ATOM     30  C   UNL     1      -4.310  -6.178  -4.887  0.00  0.00    +0.002 A 
ATOM     31  C   UNL     1      -3.525  -5.826  -5.970  0.00  0.00    +0.000 A 
ATOM     32  C   UNL     1      -2.357  -6.518  -6.235  0.00  0.00    +0.002 A 
ATOM     33  C   UNL     1      -1.969  -7.559  -5.415  0.00  0.00    +0.024 A 
ENDBRANCH  26  28
ENDBRANCH  23  26
ENDBRANCH   9  23
TORSDOF 5
