REMARK  Name = ZINC61656241
REMARK  8 active torsions:
REMARK  status: ('A' for Active; 'I' for Inactive)
REMARK    1  A    between atoms: C_1  and  N_2
REMARK    2  A    between atoms: N_2  and  C_3
REMARK    3  A    between atoms: N_2  and  C_4
REMARK    4  A    between atoms: C_4  and  C_5
REMARK    5  A    between atoms: C_5  and  N_6
REMARK    6  A    between atoms: C_12  and  C_14
REMARK    7  A    between atoms: C_14  and  C_15
REMARK    8  A    between atoms: C_18  and  N_21
REMARK                            x       y       z     vdW  Elec       q    Type
REMARK                         _______ _______ _______ _____ _____    ______ ____
ROOT
ATOM      1  N   UNL     1      -3.456  -0.619  -1.276  0.00  0.00    -0.301 NA
ATOM      2  C   UNL     1      -4.250   0.033  -0.225  0.00  0.00    +0.103 C 
ATOM      3  C   UNL     1      -5.619  -0.649  -0.127  0.00  0.00    +0.123 C 
ATOM      4  N   UNL     1      -6.236  -0.650  -1.462  0.00  0.00    -0.299 N 
ATOM      5  C   UNL     1      -5.448  -1.162  -2.593  0.00  0.00    +0.123 C 
ATOM      6  C   UNL     1      -4.085  -0.461  -2.594  0.00  0.00    +0.103 C 
ATOM      7  C   UNL     1      -7.492  -0.195  -1.643  0.00  0.00    +0.216 C 
ATOM      8  O   UNL     1      -8.128   0.223  -0.699  0.00  0.00    -0.276 OA
ENDROOT
BRANCH   1   9
ATOM      9  C   UNL     1      -2.078  -0.110  -1.286  0.00  0.00    +0.066 C 
BRANCH   9  10
ATOM     10  C   UNL     1      -1.376  -0.512   0.012  0.00  0.00    -0.064 C 
BRANCH  10  12
ATOM     11  C   UNL     1      -0.018   1.465   0.010  0.00  0.00    -0.097 C 
ATOM     12  N   UNL     1       0.002  -0.004   0.002  0.00  0.00    +0.377 N 
ATOM     13  C   UNL     1       0.713  -0.491   1.192  0.00  0.00    -0.097 C 
ATOM     14  H   UNL     1       0.474  -0.330  -0.828  0.00  0.00    -0.083 HD
ENDBRANCH  10  12
ENDBRANCH   9  10
ENDBRANCH   1   9
BRANCH   7  15
ATOM     15  C   UNL     1      -8.105  -0.206  -3.020  0.00  0.00    +0.099 C 
BRANCH  15  16
ATOM     16  C   UNL     1      -9.525   0.359  -2.950  0.00  0.00    -0.002 C 
ATOM     17  C   UNL     1     -10.403  -0.570  -2.108  0.00  0.00    +0.002 C 
ATOM     18  C   UNL     1     -11.823  -0.005  -2.038  0.00  0.00    -0.016 C 
ATOM     19  C   UNL     1     -12.400   0.101  -3.451  0.00  0.00    -0.075 C 
ATOM     20  C   UNL     1     -11.523   1.030  -4.292  0.00  0.00    -0.016 C 
ATOM     21  C   UNL     1     -10.103   0.465  -4.363  0.00  0.00    +0.002 C 
BRANCH  19  22
ATOM     22  N   UNL     1     -13.764   0.643  -3.384  0.00  0.00    +0.380 N 
ATOM     23  H   UNL     1     -13.741   1.559  -2.960  0.00  0.00    -0.090 HD
ATOM     24  H   UNL     1     -14.145   0.713  -4.315  0.00  0.00    -0.090 HD
ATOM     25  H   UNL     1     -14.342   0.031  -2.829  0.00  0.00    -0.090 HD
ENDBRANCH  19  22
ENDBRANCH  15  16
ENDBRANCH   7  15
TORSDOF 6
