REMARK  Name = ZINC20893900
REMARK  9 active torsions:
REMARK  status: ('A' for Active; 'I' for Inactive)
REMARK    1  A    between atoms: C_1  and  C_2
REMARK    2  A    between atoms: C_5  and  C_23
REMARK    3  A    between atoms: C_7  and  S_8
REMARK    4  A    between atoms: S_8  and  N_11
REMARK    5  A    between atoms: N_11  and  C_12
REMARK    6  A    between atoms: C_13  and  O_21
REMARK    7  A    between atoms: C_15  and  O_19
REMARK    8  A    between atoms: O_19  and  C_20
REMARK    9  A    between atoms: O_21  and  C_22
REMARK                            x       y       z     vdW  Elec       q    Type
REMARK                         _______ _______ _______ _____ _____    ______ ____
ROOT
ATOM      1  C   UNL     1      -2.729   5.425   2.590  0.00  0.00    +0.046 C 
ATOM      2  C   UNL     1      -4.099   5.002   3.054  0.00  0.00    -0.024 A 
ATOM      3  C   UNL     1      -5.202   5.240   2.254  0.00  0.00    +0.006 A 
ATOM      4  C   UNL     1      -6.459   4.855   2.674  0.00  0.00    +0.010 A 
ATOM      5  C   UNL     1      -6.616   4.225   3.907  0.00  0.00    +0.004 A 
ATOM      6  C   UNL     1      -5.501   3.983   4.707  0.00  0.00    +0.039 A 
ATOM      7  C   UNL     1      -4.250   4.377   4.279  0.00  0.00    +0.112 A 
ENDROOT
BRANCH   5   8
ATOM      8  C   UNL     1      -7.965   3.807   4.363  0.00  0.00    +0.095 A 
ATOM      9  C   UNL     1      -8.353   4.027   5.710  0.00  0.00    -0.011 A 
ATOM     10  C   UNL     1      -9.593   3.639   6.090  0.00  0.00    +0.024 A 
ATOM     11  C   UNL     1     -10.425   3.027   5.120  0.00  0.00    +0.268 A 
ATOM     12  O   UNL     1     -11.548   2.655   5.420  0.00  0.00    -0.266 OA
ATOM     13  N   UNL     1      -9.968   2.858   3.866  0.00  0.00    -0.242 N 
ATOM     14  H   UNL     1     -10.606   2.380   3.108  0.00  0.00    +0.192 HD
ATOM     15  N   UNL     1      -8.793   3.242   3.519  0.00  0.00    -0.171 NA
ATOM     16  C   UNL     1     -10.121   3.829   7.483  0.00  0.00    +0.041 C 
ATOM     17  C   UNL     1      -8.974   4.087   8.460  0.00  0.00    +0.005 C 
ATOM     18  C   UNL     1      -8.095   5.206   7.889  0.00  0.00    +0.005 C 
ATOM     19  C   UNL     1      -7.375   4.672   6.651  0.00  0.00    +0.038 C 
ENDBRANCH   5   8
BRANCH   7  20
ATOM     20  S   UNL     1      -2.839   4.078   5.292  0.00  0.00    +0.073 S 
ATOM     21  O   UNL     1      -3.300   3.360   6.428  0.00  0.00    -0.150 OA
ATOM     22  O   UNL     1      -2.148   5.315   5.402  0.00  0.00    -0.150 OA
BRANCH  20  23
ATOM     23  N   UNL     1      -1.844   3.052   4.456  0.00  0.00    -0.211 N 
ATOM     24  H   UNL     1      -0.886   3.418   4.058  0.00  0.00    +0.174 HD
BRANCH  23  25
ATOM     25  C   UNL     1      -2.223   1.716   4.255  0.00  0.00    +0.108 A 
ATOM     26  C   UNL     1      -2.443   0.882   5.348  0.00  0.00    +0.147 A 
ATOM     27  C   UNL     1      -2.823  -0.435   5.146  0.00  0.00    +0.093 A 
ATOM     28  C   UNL     1      -2.978  -0.922   3.856  0.00  0.00    +0.125 A 
ATOM     29  C   UNL     1      -2.754  -0.092   2.769  0.00  0.00    +0.067 A 
ATOM     30  C   UNL     1      -2.375   1.224   2.966  0.00  0.00    +0.070 A 
ATOM     31 CL   UNL     1      -2.095   2.261   1.603  0.00  0.00    -0.081 Cl
BRANCH  28  32
ATOM     32  O   UNL     1      -3.351  -2.215   3.659  0.00  0.00    -0.495 OA
ATOM     33  C   UNL     1      -3.493  -2.650   2.305  0.00  0.00    +0.277 C 
ENDBRANCH  28  32
BRANCH  26  34
ATOM     34  O   UNL     1      -2.291   1.361   6.612  0.00  0.00    -0.493 OA
ATOM     35  C   UNL     1      -2.539   0.450   7.685  0.00  0.00    +0.277 C 
ENDBRANCH  26  34
ENDBRANCH  23  25
ENDBRANCH  20  23
ENDBRANCH   7  20
TORSDOF 6
