REMARK  Name = ZINC22053320
REMARK  7 active torsions:
REMARK  status: ('A' for Active; 'I' for Inactive)
REMARK    1  A    between atoms: C_3  and  O_12
REMARK    2  A    between atoms: O_12  and  C_13
REMARK    3  A    between atoms: C_15  and  O_28
REMARK    4  A    between atoms: C_17  and  O_27
REMARK    5  A    between atoms: C_19  and  O_26
REMARK    6  A    between atoms: C_21  and  C_24
REMARK    7  A    between atoms: C_24  and  O_25
REMARK                            x       y       z     vdW  Elec       q    Type
REMARK                         _______ _______ _______ _____ _____    ______ ____
ROOT
ATOM      1  C   UNL     1       1.423   1.617  -0.003  0.00  0.00    +0.339 C 
ATOM      2  C   UNL     1      -0.013   1.086   0.008  0.00  0.00    +0.214 C 
ATOM      3  C   UNL     1      -0.747   1.595  -1.237  0.00  0.00    +0.180 C 
ATOM      4  C   UNL     1      -0.693   3.125  -1.257  0.00  0.00    +0.177 C 
ATOM      5  C   UNL     1       0.769   3.578  -1.219  0.00  0.00    +0.179 C 
ATOM      6  O   UNL     1       1.401   3.045  -0.053  0.00  0.00    -0.331 OA
ENDROOT
BRANCH   4   7
ATOM      7  O   UNL     1      -1.383   3.644  -0.118  0.00  0.00    -0.386 OA
ATOM      8  H   UNL     1      -1.450   4.731   0.036  0.00  0.00    +0.210 HD
ENDBRANCH   4   7
BRANCH   3   9
ATOM      9  O   UNL     1      -2.109   1.164  -1.198  0.00  0.00    -0.386 OA
ATOM     10  H   UNL     1      -2.795   1.436  -2.013  0.00  0.00    +0.210 HD
ENDBRANCH   3   9
BRANCH   2  11
ATOM     11  O   UNL     1      -0.684   1.548   1.182  0.00  0.00    -0.383 OA
ATOM     12  H   UNL     1      -1.732   1.266   1.363  0.00  0.00    +0.210 HD
ENDBRANCH   2  11
BRANCH   1  13
ATOM     13  O   UNL     1       2.110   1.110  -1.149  0.00  0.00    -0.461 OA
BRANCH  13  16
ATOM     14  C   UNL     1       5.433   2.211  -0.187  0.00  0.00    +0.012 A 
ATOM     15  C   UNL     1       4.089   1.997  -0.163  0.00  0.00    +0.046 A 
ATOM     16  C   UNL     1       3.453   1.313  -1.203  0.00  0.00    +0.125 A 
ATOM     17  C   UNL     1       4.162   0.850  -2.275  0.00  0.00    +0.054 A 
ATOM     18  C   UNL     1       5.549   1.059  -2.332  0.00  0.00    -0.014 A 
ATOM     19  C   UNL     1       6.193   1.749  -1.274  0.00  0.00    -0.017 A 
ATOM     20  C   UNL     1       7.582   1.957  -1.333  0.00  0.00    +0.023 A 
ATOM     21  C   UNL     1       8.288   1.497  -2.402  0.00  0.00    +0.018 A 
ATOM     22  C   UNL     1       7.654   0.819  -3.443  0.00  0.00    +0.016 A 
ATOM     23  C   UNL     1       6.311   0.598  -3.420  0.00  0.00    +0.010 A 
ATOM     24 BR   UNL     1      10.156   1.780  -2.477  0.00  0.00    -0.050 Br
ENDBRANCH  13  16
ENDBRANCH   1  13
BRANCH   5  25
ATOM     25  C   UNL     1       0.829   5.106  -1.179  0.00  0.00    +0.190 C 
BRANCH  25  26
ATOM     26  O   UNL     1       2.191   5.531  -1.259  0.00  0.00    -0.392 OA
ATOM     27  H   UNL     1       2.434   6.604  -1.245  0.00  0.00    +0.210 HD
ENDBRANCH  25  26
ENDBRANCH   5  25
TORSDOF 7
