REMARK  Name = ZINC53506598
REMARK  10 active torsions:
REMARK  status: ('A' for Active; 'I' for Inactive)
REMARK    1  A    between atoms: C_1  and  C_2
REMARK    2  A    between atoms: N_8  and  C_9
REMARK    3  A    between atoms: C_9  and  C_11
REMARK    4  A    between atoms: C_9  and  C_12
REMARK    5  A    between atoms: C_12  and  N_13
REMARK    6  A    between atoms: C_14  and  C_16
REMARK    7  A    between atoms: C_16  and  C_17
REMARK    8  A    between atoms: C_16  and  C_18
REMARK    9  A    between atoms: C_16  and  N_19
REMARK   10  A    between atoms: N_22  and  C_23
REMARK                            x       y       z     vdW  Elec       q    Type
REMARK                         _______ _______ _______ _____ _____    ______ ____
ROOT
ATOM      1  N   UNL     1      -1.065   1.876   0.882  0.00  0.00    -0.315 N 
ATOM      2  C   UNL     1      -1.142   3.155   0.463  0.00  0.00    +0.236 C 
ATOM      3  O   UNL     1      -0.583   4.032   1.087  0.00  0.00    -0.273 OA
ATOM      4  H   UNL     1      -1.452   1.166   0.345  0.00  0.00    +0.149 HD
ENDROOT
BRANCH   2   5
ATOM      5  C   UNL     1      -1.923   3.495  -0.780  0.00  0.00    +0.106 C 
ATOM      6  C   UNL     1      -3.404   3.646  -0.427  0.00  0.00    +0.041 C 
ATOM      7  C   UNL     1      -1.401   4.809  -1.366  0.00  0.00    +0.041 C 
BRANCH   5   8
ATOM      8  N   UNL     1      -1.762   2.423  -1.766  0.00  0.00    -0.286 N 
ATOM      9  C   UNL     1      -2.368   2.515  -2.966  0.00  0.00    +0.300 C 
ATOM     10  O   UNL     1      -3.048   3.488  -3.231  0.00  0.00    -0.253 OA
ATOM     11  N   UNL     1      -2.221   1.529  -3.873  0.00  0.00    -0.302 N 
ATOM     12  C   UNL     1      -2.880   1.630  -5.178  0.00  0.00    +0.129 C 
ATOM     13  H   UNL     1      -1.220   1.647  -1.555  0.00  0.00    +0.151 HD
ATOM     14  H   UNL     1      -1.679   0.753  -3.662  0.00  0.00    +0.150 HD
ENDBRANCH   5   8
ENDBRANCH   2   5
BRANCH   1  15
ATOM     15  C   UNL     1      -0.399   1.558   2.147  0.00  0.00    +0.089 C 
BRANCH  15  16
ATOM     16  C   UNL     1      -0.551   0.065   2.443  0.00  0.00    -0.054 C 
ATOM     17  C   UNL     1       0.245  -0.290   3.700  0.00  0.00    -0.012 C 
BRANCH  16  24
ATOM     18  C   UNL     1      -1.703  -2.427   1.851  0.00  0.00    -0.013 C 
ATOM     19  C   UNL     1      -0.225  -2.145   1.573  0.00  0.00    -0.071 C 
ATOM     20  C   UNL     1       0.229  -2.957   0.358  0.00  0.00    -0.016 C 
ATOM     21  C   UNL     1       1.708  -2.671   0.084  0.00  0.00    -0.003 C 
ATOM     22  C   UNL     1       1.899  -1.166  -0.120  0.00  0.00    -0.019 C 
ATOM     23  C   UNL     1       1.383  -0.420   1.113  0.00  0.00    -0.078 C 
ATOM     24  N   UNL     1      -0.042  -0.713   1.305  0.00  0.00    +0.384 N 
ATOM     25  H   UNL     1      -0.552  -0.461   0.472  0.00  0.00    -0.081 HD
ENDBRANCH  16  24
ENDBRANCH  15  16
ENDBRANCH   1  15
TORSDOF 5
