REMARK  Name = ZINC00058648
REMARK  6 active torsions:
REMARK  status: ('A' for Active; 'I' for Inactive)
REMARK    1  A    between atoms: C_4  and  O_23
REMARK    2  A    between atoms: C_5  and  C_7
REMARK    3  A    between atoms: N_8  and  N_9
REMARK    4  A    between atoms: C_10  and  C_12
REMARK    5  A    between atoms: C_12  and  S_13
REMARK    6  A    between atoms: S_13  and  C_14
REMARK                            x       y       z     vdW  Elec       q    Type
REMARK                         _______ _______ _______ _____ _____    ______ ____
ROOT
ATOM      1  N   UNL     1      -1.349  -5.034  -0.012  0.00  0.00    -0.206 N 
ATOM      2  C   UNL     1      -1.703  -3.733  -0.001  0.00  0.00    +0.243 C 
ATOM      3  O   UNL     1      -2.876  -3.424   0.012  0.00  0.00    -0.273 OA
ATOM      4  H   UNL     1      -0.411  -5.281  -0.022  0.00  0.00    +0.177 HD
ENDROOT
BRANCH   1   6
ATOM      5  C   UNL     1      -1.995  -7.281  -0.017  0.00  0.00    +0.142 C 
ATOM      6  N   UNL     1      -2.336  -6.029  -0.007  0.00  0.00    -0.188 NA
BRANCH   5  11
ATOM      7  C   UNL     1      -3.647 -10.650  -0.020  0.00  0.00    +0.001 A 
ATOM      8  C   UNL     1      -4.986 -10.296  -0.005  0.00  0.00    +0.004 A 
ATOM      9  C   UNL     1      -5.357  -8.965   0.007  0.00  0.00    +0.046 A 
ATOM     10  C   UNL     1      -4.389  -7.974   0.003  0.00  0.00    +0.125 A 
ATOM     11  C   UNL     1      -3.033  -8.327  -0.013  0.00  0.00    +0.036 A 
ATOM     12  C   UNL     1      -2.671  -9.676  -0.029  0.00  0.00    +0.013 A 
BRANCH  10  13
ATOM     13  O   UNL     1      -4.753  -6.666   0.014  0.00  0.00    -0.506 OA
ATOM     14  H   UNL     1      -4.867  -6.281  -0.866  0.00  0.00    +0.292 HD
ENDBRANCH  10  13
ENDBRANCH   5  11
ENDBRANCH   1   6
BRANCH   2  15
ATOM     15  C   UNL     1      -0.642  -2.664  -0.006  0.00  0.00    +0.176 C 
BRANCH  15  16
ATOM     16  S   UNL     1      -1.428  -1.034   0.011  0.00  0.00    -0.058 S 
BRANCH  16  17
ATOM     17  C   UNL     1       0.002  -0.004   0.002  0.00  0.00    +0.258 A 
ATOM     18  N   UNL     1       1.238  -0.436  -0.012  0.00  0.00    -0.203 NA
ATOM     19  C   UNL     1       2.075   0.637  -0.014  0.00  0.00    +0.110 A 
ATOM     20  C   UNL     1       3.464   0.775  -0.027  0.00  0.00    +0.031 A 
ATOM     21  C   UNL     1       4.026   2.033  -0.025  0.00  0.00    +0.002 A 
ATOM     22  C   UNL     1       3.219   3.161  -0.012  0.00  0.00    +0.004 A 
ATOM     23  C   UNL     1       1.845   3.038   0.001  0.00  0.00    +0.048 A 
ATOM     24  C   UNL     1       1.263   1.781  -0.000  0.00  0.00    +0.156 A 
ATOM     25  O   UNL     1      -0.016   1.341   0.009  0.00  0.00    -0.431 OA
ENDBRANCH  16  17
ENDBRANCH  15  16
ENDBRANCH   2  15
TORSDOF 6
