REMARK  Name = ZINC19078812
REMARK  10 active torsions:
REMARK  status: ('A' for Active; 'I' for Inactive)
REMARK    1  A    between atoms: C_1  and  C_2
REMARK    2  A    between atoms: C_2  and  C_4
REMARK    3  A    between atoms: C_7  and  O_10
REMARK    4  A    between atoms: O_10  and  C_11
REMARK    5  A    between atoms: C_11  and  C_12
REMARK    6  A    between atoms: C_12  and  C_14
REMARK    7  A    between atoms: C_12  and  O_33
REMARK    8  A    between atoms: C_14  and  N_15
REMARK    9  A    between atoms: N_18  and  S_21
REMARK   10  A    between atoms: S_21  and  C_24
REMARK                            x       y       z     vdW  Elec       q    Type
REMARK                         _______ _______ _______ _____ _____    ______ ____
ROOT
ATOM      1  N   UNL     1       2.925   4.246   3.952  0.00  0.00    -0.297 NA
ATOM      2  C   UNL     1       3.720   3.918   2.762  0.00  0.00    +0.101 C 
ATOM      3  C   UNL     1       3.162   4.676   1.553  0.00  0.00    +0.125 C 
ATOM      4  N   UNL     1       1.725   4.384   1.441  0.00  0.00    -0.174 NA
ATOM      5  C   UNL     1       0.883   4.564   2.633  0.00  0.00    +0.125 C 
ATOM      6  C   UNL     1       1.532   3.804   3.801  0.00  0.00    +0.101 C 
ENDROOT
BRANCH   4   7
ATOM      7  S   UNL     1       1.071   3.871   0.008  0.00  0.00    +0.063 S 
ATOM      8  O   UNL     1       1.939   4.327  -1.020  0.00  0.00    -0.153 OA
ATOM      9  O   UNL     1      -0.308   4.211   0.047  0.00  0.00    -0.153 OA
BRANCH   7  10
ATOM     10  C   UNL     1       1.157   2.112  -0.003  0.00  0.00    +0.133 A 
ATOM     11  C   UNL     1       0.018   1.379  -0.000  0.00  0.00    +0.031 A 
ATOM     12  C   UNL     1       0.048  -0.016  -0.010  0.00  0.00    +0.004 A 
ATOM     13  C   UNL     1       1.217  -0.700  -0.022  0.00  0.00    +0.031 A 
ATOM     14  C   UNL     1       2.450   0.003  -0.026  0.00  0.00    +0.102 A 
ATOM     15  C   UNL     1       2.418   1.462  -0.017  0.00  0.00    +0.126 A 
ATOM     16  N   UNL     1       3.642   1.989  -0.022  0.00  0.00    -0.189 NA
ATOM     17  S   UNL     1       4.638   0.780  -0.037  0.00  0.00    +0.117 S 
ATOM     18  N   UNL     1       3.694  -0.470  -0.039  0.00  0.00    -0.191 NA
ENDBRANCH   7  10
ENDBRANCH   4   7
BRANCH   1  19
ATOM     19  C   UNL     1       3.529   3.676   5.164  0.00  0.00    +0.119 C 
BRANCH  19  20
ATOM     20  C   UNL     1       2.557   3.821   6.336  0.00  0.00    +0.166 C 
BRANCH  20  21
ATOM     21  O   UNL     1       2.273   5.205   6.551  0.00  0.00    -0.387 OA
ATOM     22  H   UNL     1       1.815   5.804   5.750  0.00  0.00    +0.210 HD
ENDBRANCH  20  21
BRANCH  20  23
ATOM     23  C   UNL     1       3.186   3.227   7.598  0.00  0.00    +0.261 C 
BRANCH  23  24
ATOM     24  O   UNL     1       2.235   3.257   8.664  0.00  0.00    -0.489 OA
BRANCH  24  28
ATOM     25  C   UNL     1       3.458   1.756  12.305  0.00  0.00    +0.017 A 
ATOM     26  C   UNL     1       2.162   2.265  12.154  0.00  0.00    +0.015 A 
ATOM     27  C   UNL     1       1.760   2.763  10.941  0.00  0.00    +0.046 A 
ATOM     28  C   UNL     1       2.638   2.763   9.862  0.00  0.00    +0.121 A 
ATOM     29  C   UNL     1       3.924   2.254  10.005  0.00  0.00    +0.046 A 
ATOM     30  C   UNL     1       4.337   1.759  11.215  0.00  0.00    +0.015 A 
BRANCH  25  32
ATOM     31  C   UNL     1       5.243   0.563  13.730  0.00  0.00    +0.091 C 
ATOM     32  C   UNL     1       3.894   1.222  13.601  0.00  0.00    +0.160 C 
ATOM     33  O   UNL     1       3.167   1.312  14.569  0.00  0.00    -0.292 OA
ENDBRANCH  25  32
ENDBRANCH  24  28
ENDBRANCH  23  24
ENDBRANCH  20  23
ENDBRANCH  19  20
ENDBRANCH   1  19
TORSDOF 9
