REMARK  Name = ZINC45739665
REMARK  6 active torsions:
REMARK  status: ('A' for Active; 'I' for Inactive)
REMARK    1  A    between atoms: C_1  and  C_2
REMARK    2  A    between atoms: C_2  and  C_3
REMARK    3  A    between atoms: C_3  and  N_4
REMARK    4  A    between atoms: C_5  and  C_7
REMARK    5  A    between atoms: C_11  and  N_13
REMARK    6  A    between atoms: C_20  and  C_22
REMARK                            x       y       z     vdW  Elec       q    Type
REMARK                         _______ _______ _______ _____ _____    ______ ____
ROOT
ATOM      1  N   UNL     1       2.634  -6.913   4.290  0.00  0.00    -0.269 N 
ATOM      2  C   UNL     1       2.562  -8.258   4.330  0.00  0.00    +0.307 C 
ATOM      3  O   UNL     1       2.038  -8.866   3.416  0.00  0.00    -0.252 OA
ATOM      4  N   UNL     1       3.069  -8.930   5.382  0.00  0.00    -0.278 N 
ATOM      5  C   UNL     1       3.722  -8.322   6.556  0.00  0.00    +0.110 C 
ATOM      6  C   UNL     1       3.554  -9.366   7.688  0.00  0.00    +0.021 C 
ATOM      7  C   UNL     1       3.723 -10.698   6.911  0.00  0.00    +0.029 C 
ATOM      8  C   UNL     1       3.057 -10.390   5.553  0.00  0.00    +0.108 C 
ATOM      9  H   UNL     1       3.119  -6.433   4.980  0.00  0.00    +0.156 HD
ENDROOT
BRANCH   8  10
ATOM     10  C   UNL     1       3.840 -11.042   4.442  0.00  0.00    -0.027 A 
ATOM     11  C   UNL     1       5.006 -10.459   3.984  0.00  0.00    +0.008 A 
ATOM     12  C   UNL     1       5.724 -11.056   2.966  0.00  0.00    +0.038 A 
ATOM     13  C   UNL     1       5.276 -12.240   2.405  0.00  0.00    +0.123 A 
ATOM     14  C   UNL     1       4.108 -12.824   2.865  0.00  0.00    +0.038 A 
ATOM     15  C   UNL     1       3.394 -12.227   3.887  0.00  0.00    +0.008 A 
ATOM     16  F   UNL     1       5.977 -12.824   1.409  0.00  0.00    -0.205 F 
ENDBRANCH   8  10
BRANCH   1  21
ATOM     17  C   UNL     1       0.213  -5.979   1.672  0.00  0.00    +0.038 A 
ATOM     18  C   UNL     1       0.787  -4.798   1.200  0.00  0.00    +0.013 A 
ATOM     19  C   UNL     1       1.962  -4.331   1.754  0.00  0.00    +0.003 A 
ATOM     20  C   UNL     1       2.574  -5.031   2.777  0.00  0.00    +0.023 A 
ATOM     21  C   UNL     1       2.010  -6.208   3.254  0.00  0.00    +0.035 A 
ATOM     22  C   UNL     1       0.828  -6.682   2.708  0.00  0.00    +0.036 A 
BRANCH  17  24
ATOM     23  N   UNL     1      -1.637  -5.800   0.078  0.00  0.00    -0.311 N 
ATOM     24  C   UNL     1      -1.045  -6.481   1.079  0.00  0.00    +0.244 C 
ATOM     25  O   UNL     1      -1.546  -7.508   1.496  0.00  0.00    -0.270 OA
ATOM     26  H   UNL     1      -1.238  -4.981  -0.254  0.00  0.00    +0.149 HD
BRANCH  23  27
ATOM     27  C   UNL     1      -2.884  -6.298  -0.509  0.00  0.00    +0.104 C 
BRANCH  27  29
ATOM     28  C   UNL     1      -4.643  -5.866  -2.230  0.00  0.00    +0.005 C 
ATOM     29  C   UNL     1      -3.341  -5.347  -1.617  0.00  0.00    +0.015 C 
ENDBRANCH  27  29
ENDBRANCH  23  27
ENDBRANCH  17  24
ENDBRANCH   1  21
TORSDOF 5
