REMARK  Name = ZINC12523203
REMARK  9 active torsions:
REMARK  status: ('A' for Active; 'I' for Inactive)
REMARK    1  A    between atoms: C_1  and  C_2
REMARK    2  A    between atoms: N_7  and  S_9
REMARK    3  A    between atoms: S_9  and  C_12
REMARK    4  A    between atoms: C_15  and  N_21
REMARK    5  A    between atoms: C_16  and  N_18
REMARK    6  A    between atoms: N_21  and  C_22
REMARK    7  A    between atoms: C_22  and  C_24
REMARK    8  A    between atoms: C_22  and  C_25
REMARK    9  A    between atoms: C_30  and  O_31
REMARK                            x       y       z     vdW  Elec       q    Type
REMARK                         _______ _______ _______ _____ _____    ______ ____
ROOT
ATOM      1  C   UNL     1       1.161   1.772   0.201  0.00  0.00    +0.108 A 
ATOM      2  C   UNL     1       0.012   1.007   0.300  0.00  0.00    +0.030 A 
ATOM      3  C   UNL     1      -1.228   1.609   0.221  0.00  0.00    +0.027 A 
ATOM      4  C   UNL     1      -1.322   2.985   0.052  0.00  0.00    +0.058 A 
ATOM      5  C   UNL     1      -0.167   3.749  -0.047  0.00  0.00    +0.149 A 
ATOM      6  C   UNL     1       1.071   3.140   0.027  0.00  0.00    +0.063 A 
ENDROOT
BRANCH   1   7
ATOM      7  S   UNL     1       2.741   0.999   0.295  0.00  0.00    +0.061 S 
ATOM      8  O   UNL     1       3.657   1.998   0.722  0.00  0.00    -0.153 OA
ATOM      9  O   UNL     1       2.557  -0.218   1.005  0.00  0.00    -0.153 OA
BRANCH   7  15
ATOM     10  C   UNL     1       5.918   1.734  -3.595  0.00  0.00    +0.009 C 
ATOM     11  C   UNL     1       5.189   0.818  -2.610  0.00  0.00    +0.002 C 
ATOM     12  C   UNL     1       4.785  -0.477  -3.318  0.00  0.00    +0.006 C 
ATOM     13  C   UNL     1       4.085  -1.407  -2.325  0.00  0.00    +0.017 C 
ATOM     14  C   UNL     1       2.821  -0.729  -1.800  0.00  0.00    +0.109 C 
ATOM     15  N   UNL     1       3.177   0.586  -1.248  0.00  0.00    -0.176 NA
ATOM     16  C   UNL     1       3.933   1.524  -2.090  0.00  0.00    +0.112 C 
ENDBRANCH   7  15
ENDBRANCH   1   7
BRANCH   5  17
ATOM     17  N   UNL     1      -0.262   5.214  -0.233  0.00  0.00    +0.058 N 
ATOM     18  O   UNL     1       0.747   5.897  -0.211  0.00  0.00    -0.126 OA
ATOM     19  O   UNL     1      -1.348   5.737  -0.406  0.00  0.00    -0.126 OA
ENDBRANCH   5  17
BRANCH   4  20
ATOM     20  N   UNL     1      -2.575   3.597  -0.022  0.00  0.00    -0.335 N 
ATOM     21  H   UNL     1      -2.641   4.544  -0.222  0.00  0.00    +0.147 HD
BRANCH  20  22
ATOM     22  C   UNL     1      -3.790   2.809   0.202  0.00  0.00    +0.101 C 
ATOM     23  C   UNL     1      -4.109   2.777   1.698  0.00  0.00    +0.033 C 
BRANCH  22  24
ATOM     24  C   UNL     1      -4.940   3.436  -0.543  0.00  0.00    +0.014 A 
ATOM     25  C   UNL     1      -4.943   4.795  -0.793  0.00  0.00    +0.009 A 
ATOM     26  C   UNL     1      -5.997   5.371  -1.477  0.00  0.00    +0.001 A 
ATOM     27  C   UNL     1      -7.051   4.590  -1.913  0.00  0.00    +0.004 A 
ATOM     28  C   UNL     1      -7.053   3.231  -1.666  0.00  0.00    +0.046 A 
ATOM     29  C   UNL     1      -5.993   2.649  -0.984  0.00  0.00    +0.122 A 
BRANCH  29  30
ATOM     30  O   UNL     1      -5.990   1.311  -0.745  0.00  0.00    -0.506 OA
ATOM     31  H   UNL     1      -6.410   1.060   0.089  0.00  0.00    +0.292 HD
ENDBRANCH  29  30
ENDBRANCH  22  24
ENDBRANCH  20  22
ENDBRANCH   4  20
TORSDOF 7
