REMARK  Name = ZINC01022998
REMARK  8 active torsions:
REMARK  status: ('A' for Active; 'I' for Inactive)
REMARK    1  A    between atoms: C_1  and  C_2
REMARK    2  A    between atoms: C_2  and  O_3
REMARK    3  A    between atoms: O_3  and  C_4
REMARK    4  A    between atoms: C_7  and  C_10
REMARK    5  A    between atoms: C_12  and  C_34
REMARK    6  A    between atoms: C_13  and  N_33
REMARK    7  A    between atoms: N_14  and  C_22
REMARK    8  A    between atoms: C_23  and  C_31
REMARK                            x       y       z     vdW  Elec       q    Type
REMARK                         _______ _______ _______ _____ _____    ______ ____
ROOT
ATOM      1  C   UNL     1       1.194  -6.088  -1.786  0.00  0.00    +0.097 C 
ATOM      2  C   UNL     1       2.610  -6.573  -1.891  0.00  0.00    +0.077 C 
ATOM      3  C   UNL     1       3.181  -6.815  -3.099  0.00  0.00    +0.107 C 
ATOM      4  N   UNL     1       2.457  -6.624  -4.256  0.00  0.00    -0.253 N 
ATOM      5  C   UNL     1       1.087  -6.586  -4.221  0.00  0.00    +0.025 C 
ATOM      6  C   UNL     1       0.437  -6.334  -3.067  0.00  0.00    +0.025 C 
ATOM      7  C   UNL     1      -0.968  -6.291  -3.023  0.00  0.00    +0.162 C 
ATOM      8  O   UNL     1      -1.525  -6.076  -1.965  0.00  0.00    -0.292 OA
ATOM      9  C   UNL     1      -1.793  -6.505  -4.262  0.00  0.00    +0.080 C 
ATOM     10  C   UNL     1      -0.983  -6.059  -5.484  0.00  0.00    +0.014 C 
ATOM     11  C   UNL     1       0.330  -6.838  -5.502  0.00  0.00    +0.052 C 
ENDROOT
BRANCH   4  12
ATOM     12  C   UNL     1       3.120  -6.469  -5.466  0.00  0.00    +0.095 A 
ATOM     13  C   UNL     1       3.506  -7.455  -6.359  0.00  0.00    +0.084 A 
ATOM     14  C   UNL     1       4.193  -7.030  -7.564  0.00  0.00    -0.018 A 
ATOM     15  C   UNL     1       4.369  -5.693  -7.657  0.00  0.00    -0.004 A 
ATOM     16  S   UNL     1       3.632  -5.041  -6.187  0.00  0.00    -0.076 S 
ATOM     17  C   UNL     1       5.037  -4.949  -8.771  0.00  0.00    +0.043 C 
ATOM     18  C   UNL     1       5.830  -5.957  -9.616  0.00  0.00    +0.005 C 
ATOM     19  C   UNL     1       4.932  -7.157  -9.928  0.00  0.00    +0.005 C 
ATOM     20  C   UNL     1       4.687  -7.970  -8.654  0.00  0.00    +0.037 C 
BRANCH  13  21
ATOM     21  C   UNL     1       3.239  -8.839  -6.102  0.00  0.00    +0.102 C 
ATOM     22  N   UNL     1       3.027  -9.936  -5.898  0.00  0.00    -0.191 NA
ENDBRANCH  13  21
ENDBRANCH   4  12
BRANCH   1  26
ATOM     23  C   UNL     1       1.209  -1.897  -0.951  0.00  0.00    +0.121 A 
ATOM     24  C   UNL     1       0.628  -2.782  -0.054  0.00  0.00    +0.046 A 
ATOM     25  C   UNL     1       0.624  -4.136  -0.327  0.00  0.00    +0.008 A 
ATOM     26  C   UNL     1       1.199  -4.610  -1.492  0.00  0.00    -0.034 A 
ATOM     27  C   UNL     1       1.780  -3.730  -2.386  0.00  0.00    +0.008 A 
ATOM     28  C   UNL     1       1.780  -2.374  -2.121  0.00  0.00    +0.046 A 
BRANCH  23  29
ATOM     29  O   UNL     1       1.214  -0.564  -0.685  0.00  0.00    -0.492 OA
BRANCH  29  31
ATOM     30  C   UNL     1       0.709   1.377   0.663  0.00  0.00    +0.048 C 
ATOM     31  C   UNL     1       0.608  -0.144   0.539  0.00  0.00    +0.225 C 
ENDBRANCH  29  31
ENDBRANCH  23  29
ENDBRANCH   1  26
BRANCH   3  32
ATOM     32  N   UNL     1       4.483  -7.250  -3.168  0.00  0.00    -0.345 N 
ATOM     33  H   UNL     1       5.020  -7.301  -2.362  0.00  0.00    +0.144 HD
ATOM     34  H   UNL     1       4.864  -7.506  -4.022  0.00  0.00    +0.144 HD
ENDBRANCH   3  32
BRANCH   2  35
ATOM     35  C   UNL     1       3.372  -6.785  -0.698  0.00  0.00    +0.099 C 
ATOM     36  N   UNL     1       3.976  -6.952   0.249  0.00  0.00    -0.191 NA
ENDBRANCH   2  35
TORSDOF 7
