REMARK  Name = ZINC39696828
REMARK  5 active torsions:
REMARK  status: ('A' for Active; 'I' for Inactive)
REMARK    1  A    between atoms: C_1  and  N_2
REMARK    2  A    between atoms: C_6  and  C_9
REMARK    3  A    between atoms: C_9  and  N_10
REMARK    4  A    between atoms: C_11  and  C_13
REMARK    5  A    between atoms: C_24  and  C_26
REMARK                            x       y       z     vdW  Elec       q    Type
REMARK                         _______ _______ _______ _____ _____    ______ ____
ROOT
ATOM      1  C   UNL     1       2.284  -6.267   3.106  0.00  0.00    +0.100 C 
ATOM      2  C   UNL     1       0.901  -6.955   3.124  0.00  0.00    +0.121 C 
ATOM      3  N   UNL     1       1.116  -8.208   3.885  0.00  0.00    -0.297 N 
ATOM      4  C   UNL     1       2.035  -7.821   4.982  0.00  0.00    +0.115 C 
ATOM      5  C   UNL     1       3.025  -6.837   4.327  0.00  0.00    -0.004 C 
ATOM      6  C   UNL     1       3.378  -5.718   5.302  0.00  0.00    -0.010 C 
ATOM      7  C   UNL     1       4.165  -6.301   6.479  0.00  0.00    -0.082 C 
ATOM      8  N   UNL     1       5.385  -6.947   5.982  0.00  0.00    +0.379 N 
ATOM      9  C   UNL     1       5.035  -8.081   5.119  0.00  0.00    -0.082 C 
ATOM     10  C   UNL     1       4.286  -7.574   3.885  0.00  0.00    -0.010 C 
ATOM     11  C   UNL     1       0.594  -9.425   3.635  0.00  0.00    +0.260 C 
ATOM     12  O   UNL     1       0.867 -10.362   4.356  0.00  0.00    -0.271 OA
ATOM     13  H   UNL     1       5.927  -6.279   5.455  0.00  0.00    -0.086 HD
ATOM     14  H   UNL     1       5.932  -7.277   6.764  0.00  0.00    -0.086 HD
ENDROOT
BRANCH  11  15
ATOM     15  C   UNL     1      -0.328  -9.623   2.460  0.00  0.00    +0.296 C 
ATOM     16  C   UNL     1      -1.622  -8.828   2.678  0.00  0.00    +0.283 C 
ATOM     17  O   UNL     1      -2.479  -9.049   1.553  0.00  0.00    -0.484 OA
ATOM     18  C   UNL     1      -2.622 -10.337   1.137  0.00  0.00    +0.162 A 
ATOM     19  C   UNL     1      -3.686 -10.672   0.313  0.00  0.00    +0.049 A 
ATOM     20  C   UNL     1      -3.842 -11.975  -0.120  0.00  0.00    +0.004 A 
ATOM     21  C   UNL     1      -2.938 -12.947   0.265  0.00  0.00    +0.004 A 
ATOM     22  C   UNL     1      -1.876 -12.620   1.087  0.00  0.00    +0.049 A 
ATOM     23  C   UNL     1      -1.715 -11.315   1.526  0.00  0.00    +0.163 A 
ATOM     24  O   UNL     1      -0.668 -11.009   2.341  0.00  0.00    -0.473 OA
ENDBRANCH  11  15
BRANCH   1  26
ATOM     25  N   UNL     1       3.050  -3.951   2.695  0.00  0.00    -0.313 N 
ATOM     26  C   UNL     1       2.130  -4.773   3.237  0.00  0.00    +0.218 C 
ATOM     27  O   UNL     1       1.178  -4.312   3.829  0.00  0.00    -0.275 OA
ATOM     28  H   UNL     1       3.811  -4.320   2.221  0.00  0.00    +0.149 HD
BRANCH  25  29
ATOM     29  C   UNL     1       2.899  -2.499   2.822  0.00  0.00    +0.137 C 
BRANCH  29  35
ATOM     30  C   UNL     1       5.044   1.827   1.865  0.00  0.00    +0.105 C 
ATOM     31  N   UNL     1       5.061   0.378   1.622  0.00  0.00    -0.301 NA
ATOM     32  C   UNL     1       4.973   0.084   0.184  0.00  0.00    +0.112 C 
ATOM     33  C   UNL     1       5.054  -1.430  -0.028  0.00  0.00    +0.175 C 
ATOM     34  O   UNL     1       4.014  -2.067   0.720  0.00  0.00    -0.372 OA
ATOM     35  C   UNL     1       4.069  -1.802   2.124  0.00  0.00    +0.149 C 
ATOM     36  C   UNL     1       3.979  -0.292   2.357  0.00  0.00    +0.117 C 
ENDBRANCH  29  35
ENDBRANCH  25  29
ENDBRANCH   1  26
TORSDOF 4
