REMARK  Name = ZINC16207318
REMARK  10 active torsions:
REMARK  status: ('A' for Active; 'I' for Inactive)
REMARK    1  A    between atoms: C_1  and  C_2
REMARK    2  A    between atoms: C_2  and  C_3
REMARK    3  A    between atoms: C_2  and  C_4
REMARK    4  A    between atoms: C_9  and  N_10
REMARK    5  A    between atoms: C_11  and  C_29
REMARK    6  A    between atoms: C_14  and  S_15
REMARK    7  A    between atoms: S_15  and  C_16
REMARK    8  A    between atoms: C_16  and  C_17
REMARK    9  A    between atoms: C_32  and  O_35
REMARK   10  A    between atoms: O_35  and  C_36
REMARK                            x       y       z     vdW  Elec       q    Type
REMARK                         _______ _______ _______ _____ _____    ______ ____
ROOT
ATOM      1  N   UNL     1       2.740  -7.426  -0.070  0.00  0.00    -0.270 N 
ATOM      2  C   UNL     1       2.108  -8.650  -0.064  0.00  0.00    +0.169 A 
ATOM      3  N   UNL     1       0.816  -8.417  -0.050  0.00  0.00    -0.128 NA
ATOM      4  N   UNL     1       0.598  -7.151  -0.042  0.00  0.00    -0.122 NA
ATOM      5  C   UNL     1       1.736  -6.495  -0.049  0.00  0.00    +0.197 A 
ENDROOT
BRANCH   1  11
ATOM      6  C   UNL     1       4.788  -7.061  -1.299  0.00  0.00    -0.021 A 
ATOM      7  C   UNL     1       6.148  -6.819  -1.315  0.00  0.00    +0.006 A 
ATOM      8  C   UNL     1       6.845  -6.707  -0.126  0.00  0.00    +0.000 A 
ATOM      9  C   UNL     1       6.183  -6.833   1.081  0.00  0.00    +0.002 A 
ATOM     10  C   UNL     1       4.823  -7.071   1.103  0.00  0.00    +0.026 A 
ATOM     11  C   UNL     1       4.120  -7.183  -0.089  0.00  0.00    +0.054 A 
BRANCH   6  13
ATOM     12  C   UNL     1       4.168  -5.893  -3.397  0.00  0.00    +0.012 C 
ATOM     13  C   UNL     1       4.030  -7.189  -2.595  0.00  0.00    +0.015 C 
ATOM     14  C   UNL     1       4.599  -8.354  -3.407  0.00  0.00    +0.012 C 
ENDBRANCH   6  13
ENDBRANCH   1  11
BRANCH   2  15
ATOM     15  C   UNL     1       2.762  -9.976  -0.077  0.00  0.00    +0.020 A 
ATOM     16  C   UNL     1       4.122 -10.088   0.217  0.00  0.00    +0.015 A 
ATOM     17  C   UNL     1       4.727 -11.327   0.209  0.00  0.00    +0.046 A 
ATOM     18  C   UNL     1       3.988 -12.461  -0.101  0.00  0.00    +0.120 A 
ATOM     19  C   UNL     1       2.636 -12.352  -0.399  0.00  0.00    +0.046 A 
ATOM     20  C   UNL     1       2.022 -11.118  -0.389  0.00  0.00    +0.015 A 
BRANCH  18  21
ATOM     21  O   UNL     1       4.588 -13.679  -0.112  0.00  0.00    -0.495 OA
ATOM     22  C   UNL     1       5.981 -13.719   0.204  0.00  0.00    +0.277 C 
ENDBRANCH  18  21
ENDBRANCH   2  15
BRANCH   5  23
ATOM     23  S   UNL     1       1.934  -4.744  -0.042  0.00  0.00    -0.078 S 
BRANCH  23  24
ATOM     24  C   UNL     1       0.198  -4.232  -0.022  0.00  0.00    +0.151 C 
BRANCH  24  25
ATOM     25  C   UNL     1       0.119  -2.727  -0.013  0.00  0.00    +0.121 A 
ATOM     26  N   UNL     1      -1.110  -2.147   0.002  0.00  0.00    -0.310 N 
ATOM     27  H   UNL     1      -1.904  -2.703   0.007  0.00  0.00    +0.170 HD
ATOM     28  C   UNL     1      -1.235  -0.799   0.010  0.00  0.00    +0.259 A 
ATOM     29  O   UNL     1      -2.329  -0.266   0.024  0.00  0.00    -0.267 OA
ATOM     30  C   UNL     1       0.002  -0.004   0.002  0.00  0.00    +0.065 A 
ATOM     31  C   UNL     1      -0.017   1.389   0.010  0.00  0.00    +0.015 A 
ATOM     32  C   UNL     1       1.173   2.084   0.002  0.00  0.00    +0.001 A 
ATOM     33  C   UNL     1       2.386   1.408  -0.013  0.00  0.00    +0.002 A 
ATOM     34  C   UNL     1       2.426   0.032  -0.021  0.00  0.00    +0.028 A 
ATOM     35  C   UNL     1       1.234  -0.695  -0.013  0.00  0.00    +0.078 A 
ATOM     36  N   UNL     1       1.227  -2.051  -0.020  0.00  0.00    -0.233 NA
ENDBRANCH  24  25
ENDBRANCH  23  24
ENDBRANCH   5  23
TORSDOF 7
