REMARK  Name = ZINC17344910
REMARK  12 active torsions:
REMARK  status: ('A' for Active; 'I' for Inactive)
REMARK    1  A    between atoms: C_1  and  C_2
REMARK    2  A    between atoms: C_2  and  C_3
REMARK    3  A    between atoms: C_3  and  C_4
REMARK    4  A    between atoms: C_4  and  N_5
REMARK    5  A    between atoms: C_6  and  N_33
REMARK    6  A    between atoms: C_7  and  N_14
REMARK    7  A    between atoms: N_14  and  C_15
REMARK    8  A    between atoms: C_15  and  C_16
REMARK    9  A    between atoms: C_16  and  C_17
REMARK   10  A    between atoms: C_18  and  C_20
REMARK   11  A    between atoms: C_21  and  C_32
REMARK   12  A    between atoms: C_23  and  C_25
REMARK                            x       y       z     vdW  Elec       q    Type
REMARK                         _______ _______ _______ _____ _____    ______ ____
ROOT
ATOM      1  N   UNL     1      -0.983   3.594   0.168  0.00  0.00    -0.260 N 
ATOM      2  C   UNL     1      -1.252   2.276   0.245  0.00  0.00    +0.259 C 
ATOM      3  O   UNL     1      -2.405   1.893   0.318  0.00  0.00    -0.269 OA
ENDROOT
BRANCH   1   6
ATOM      4  N   UNL     1      -4.077   5.458  -0.501  0.00  0.00    -0.280 N 
ATOM      5  C   UNL     1      -3.072   4.528  -0.629  0.00  0.00    +0.127 A 
ATOM      6  C   UNL     1      -2.028   4.535   0.273  0.00  0.00    +0.140 A 
ATOM      7  C   UNL     1      -2.028   5.493   1.304  0.00  0.00    +0.277 A 
ATOM      8  O   UNL     1      -1.121   5.519   2.119  0.00  0.00    -0.266 OA
ATOM      9  N   UNL     1      -3.035   6.386   1.382  0.00  0.00    -0.273 N 
ATOM     10  H   UNL     1      -3.031   7.072   2.109  0.00  0.00    +0.173 HD
ATOM     11  C   UNL     1      -4.044   6.364   0.493  0.00  0.00    +0.331 A 
ATOM     12  O   UNL     1      -4.942   7.178   0.590  0.00  0.00    -0.246 OA
BRANCH   5  13
ATOM     13  N   UNL     1      -3.107   3.602  -1.645  0.00  0.00    -0.343 N 
ATOM     14  H   UNL     1      -2.421   2.918  -1.701  0.00  0.00    +0.144 HD
ATOM     15  H   UNL     1      -3.816   3.634  -2.306  0.00  0.00    +0.144 HD
ENDBRANCH   5  13
BRANCH   4  16
ATOM     16  C   UNL     1      -5.191   5.462  -1.452  0.00  0.00    +0.128 C 
BRANCH  16  17
ATOM     17  C   UNL     1      -6.310   4.556  -0.932  0.00  0.00    +0.021 C 
BRANCH  17  19
ATOM     18  C   UNL     1      -8.591   3.655  -1.405  0.00  0.00    +0.004 C 
ATOM     19  C   UNL     1      -7.473   4.561  -1.925  0.00  0.00    -0.002 C 
ENDBRANCH  17  19
ENDBRANCH  16  17
ENDBRANCH   4  16
ENDBRANCH   1   6
BRANCH   2  20
ATOM     20  C   UNL     1      -0.156   1.302   0.239  0.00  0.00    +0.097 A 
ATOM     21  C   UNL     1      -0.189  -0.073   0.434  0.00  0.00    +0.058 A 
ATOM     22  N   UNL     1       0.941  -0.724   0.374  0.00  0.00    -0.243 NA
ATOM     23  C   UNL     1       2.088  -0.103   0.137  0.00  0.00    +0.109 A 
ATOM     24  S   UNL     1       1.593   1.553  -0.027  0.00  0.00    -0.062 S 
ATOM     25  C   UNL     1      -1.487  -0.789   0.706  0.00  0.00    +0.067 C 
BRANCH  23  26
ATOM     26  C   UNL     1       3.446  -0.677   0.036  0.00  0.00    +0.009 A 
ATOM     27  C   UNL     1       4.539   0.151  -0.230  0.00  0.00    +0.010 A 
ATOM     28  C   UNL     1       5.805  -0.390  -0.318  0.00  0.00    +0.002 A 
ATOM     29  C   UNL     1       5.993  -1.751  -0.155  0.00  0.00    +0.020 A 
ATOM     30  C   UNL     1       4.913  -2.579   0.104  0.00  0.00    +0.042 A 
ATOM     31  C   UNL     1       3.641  -2.049   0.200  0.00  0.00    +0.030 A 
ATOM     32 CL   UNL     1       5.159  -4.285   0.307  0.00  0.00    -0.084 Cl
ENDBRANCH  23  26
ENDBRANCH   2  20
BRANCH   1  33
ATOM     33  C   UNL     1       0.396   4.050  -0.024  0.00  0.00    +0.114 C 
BRANCH  33  34
ATOM     34  C   UNL     1       0.743   4.013  -1.514  0.00  0.00    +0.016 C 
ATOM     35  C   UNL     1       2.183   4.489  -1.715  0.00  0.00    +0.005 C 
ENDBRANCH  33  34
ENDBRANCH   1  33
TORSDOF 9
