REMARK  Name = ZINC39195698
REMARK  19 active torsions:
REMARK  status: ('A' for Active; 'I' for Inactive)
REMARK    1  A    between atoms: C_1  and  C_2
REMARK    2  A    between atoms: C_2  and  C_3
REMARK    3  A    between atoms: C_2  and  C_4
REMARK    4  A    between atoms: C_2  and  O_5
REMARK    5  A    between atoms: O_5  and  C_6
REMARK    6  A    between atoms: N_8  and  C_9
REMARK    7  A    between atoms: C_9  and  C_10
REMARK    8  A    between atoms: C_10  and  C_11
REMARK    9  A    between atoms: C_11  and  C_12
REMARK   10  A    between atoms: C_12  and  C_13
REMARK   11  A    between atoms: C_13  and  C_14
REMARK   12  A    between atoms: N_16  and  C_17
REMARK   13  A    between atoms: C_17  and  C_19
REMARK   14  A    between atoms: C_17  and  C_29
REMARK   15  A    between atoms: C_22  and  S_25
REMARK   16  A    between atoms: S_25  and  C_28
REMARK   17  A    between atoms: C_33  and  N_35
REMARK   18  A    between atoms: N_35  and  C_36
REMARK   19  A    between atoms: N_35  and  C_37
REMARK                            x       y       z     vdW  Elec       q    Type
REMARK                         _______ _______ _______ _____ _____    ______ ____
ROOT
ATOM      1  C   UNL     1      10.383  -1.261  -8.499  0.00  0.00    +0.134 C 
ENDROOT
BRANCH   1   2
ATOM      2  C   UNL     1      11.527  -0.413  -8.991  0.00  0.00    -0.023 A 
ATOM      3  C   UNL     1      12.444   0.099  -8.092  0.00  0.00    +0.007 A 
ATOM      4  C   UNL     1      13.494   0.877  -8.544  0.00  0.00    +0.027 A 
ATOM      5  C   UNL     1      13.627   1.142  -9.894  0.00  0.00    +0.088 A 
ATOM      6  C   UNL     1      12.710   0.629 -10.793  0.00  0.00    +0.027 A 
ATOM      7  C   UNL     1      11.663  -0.152 -10.342  0.00  0.00    +0.007 A 
BRANCH   5   8
ATOM      8  S   UNL     1      14.964   2.135 -10.469  0.00  0.00    -0.006 S 
ATOM      9  O   UNL     1      14.496   2.705 -11.684  0.00  0.00    -0.170 OA
ATOM     10  O   UNL     1      15.304   2.961  -9.364  0.00  0.00    -0.170 OA
ATOM     11  C   UNL     1      16.305   0.960 -10.806  0.00  0.00    +0.200 C 
ENDBRANCH   5   8
ENDBRANCH   1   2
BRANCH   1  12
ATOM     12  C   UNL     1      10.870  -2.665  -8.245  0.00  0.00    -0.021 A 
ATOM     13  C   UNL     1      11.542  -2.961  -7.073  0.00  0.00    +0.006 A 
ATOM     14  C   UNL     1      11.992  -4.247  -6.836  0.00  0.00    +0.002 A 
ATOM     15  C   UNL     1      11.770  -5.240  -7.770  0.00  0.00    +0.023 A 
ATOM     16  C   UNL     1      11.096  -4.946  -8.948  0.00  0.00    +0.030 A 
ATOM     17  C   UNL     1      10.641  -3.654  -9.180  0.00  0.00    +0.029 A 
BRANCH  16  18
ATOM     18  N   UNL     1      10.870  -5.948  -9.894  0.00  0.00    -0.336 N 
ATOM     19  C   UNL     1      11.452  -7.279  -9.705  0.00  0.00    +0.129 C 
ATOM     20  C   UNL     1      10.052  -5.669 -11.077  0.00  0.00    +0.129 C 
ENDBRANCH  16  18
ENDBRANCH   1  12
BRANCH   1  23
ATOM     21  C   UNL     1       8.579  -0.935  -6.894  0.00  0.00    +0.214 C 
ATOM     22  O   UNL     1       7.868  -1.619  -7.598  0.00  0.00    -0.276 OA
ATOM     23  N   UNL     1       9.855  -0.695  -7.255  0.00  0.00    -0.304 N 
ATOM     24  H   UNL     1      10.424  -0.148  -6.691  0.00  0.00    +0.150 HD
BRANCH  21  25
ATOM     25  C   UNL     1       8.036  -0.353  -5.614  0.00  0.00    +0.096 C 
BRANCH  25  26
ATOM     26  C   UNL     1       6.575  -0.774  -5.441  0.00  0.00    +0.009 C 
BRANCH  26  27
ATOM     27  C   UNL     1       6.024  -0.182  -4.142  0.00  0.00    +0.002 C 
BRANCH  27  28
ATOM     28  C   UNL     1       4.564  -0.604  -3.970  0.00  0.00    +0.019 C 
BRANCH  28  29
ATOM     29  C   UNL     1       4.013  -0.012  -2.671  0.00  0.00    +0.107 C 
BRANCH  29  32
ATOM     30  C   UNL     1       1.919  -0.009  -1.425  0.00  0.00    +0.401 C 
ATOM     31  O   UNL     1       2.452   0.692  -0.588  0.00  0.00    -0.226 OA
ATOM     32  N   UNL     1       2.614  -0.415  -2.505  0.00  0.00    -0.281 N 
ATOM     33  H   UNL     1       2.188  -0.975  -3.174  0.00  0.00    +0.152 HD
BRANCH  30  34
ATOM     34  O   UNL     1       0.633  -0.379  -1.273  0.00  0.00    -0.445 OA
BRANCH  34  36
ATOM     35  C   UNL     1      -0.053   1.618  -0.098  0.00  0.00    +0.055 C 
ATOM     36  C   UNL     1      -0.043   0.088  -0.104  0.00  0.00    +0.107 C 
ATOM     37  C   UNL     1       0.682  -0.423   1.143  0.00  0.00    +0.055 C 
ATOM     38  C   UNL     1      -1.482  -0.431  -0.105  0.00  0.00    +0.055 C 
ENDBRANCH  34  36
ENDBRANCH  30  34
ENDBRANCH  29  32
ENDBRANCH  28  29
ENDBRANCH  27  28
ENDBRANCH  26  27
ENDBRANCH  25  26
ENDBRANCH  21  25
ENDBRANCH   1  23
TORSDOF 13
