REMARK  Name = ZINC12211711
REMARK  5 active torsions:
REMARK  status: ('A' for Active; 'I' for Inactive)
REMARK    1  A    between atoms: C_1  and  C_2
REMARK    2  A    between atoms: C_4  and  C_24
REMARK    3  A    between atoms: C_6  and  N_8
REMARK    4  A    between atoms: C_16  and  S_18
REMARK    5  A    between atoms: S_18  and  C_19
REMARK                            x       y       z     vdW  Elec       q    Type
REMARK                         _______ _______ _______ _____ _____    ______ ____
ROOT
ATOM      1  N   UNL     1       0.050  -2.797   2.391  0.00  0.00    -0.299 N 
ATOM      2  C   UNL     1       0.151  -2.116   3.592  0.00  0.00    +0.136 A 
ATOM      3  C   UNL     1       0.280  -2.831   4.816  0.00  0.00    +0.051 A 
ATOM      4  C   UNL     1       0.324  -4.279   5.030  0.00  0.00    -0.025 A 
ATOM      5  C   UNL     1       0.453  -4.706   6.302  0.00  0.00    -0.004 A 
ATOM      6  S   UNL     1       0.522  -3.229   7.281  0.00  0.00    -0.073 S 
ATOM      7  C   UNL     1       0.376  -2.037   5.976  0.00  0.00    +0.115 A 
ATOM      8  N   UNL     1       0.346  -0.719   5.916  0.00  0.00    -0.215 NA
ATOM      9  C   UNL     1       0.224  -0.106   4.747  0.00  0.00    +0.191 A 
ATOM     10  N   UNL     1       0.135  -0.794   3.614  0.00  0.00    -0.206 NA
ATOM     11  C   UNL     1       0.521  -6.124   6.781  0.00  0.00    +0.043 C 
ATOM     12  C   UNL     1       0.049  -7.043   5.645  0.00  0.00    +0.005 C 
ATOM     13  C   UNL     1       0.760  -6.630   4.353  0.00  0.00    +0.005 C 
ATOM     14  C   UNL     1       0.230  -5.277   3.878  0.00  0.00    +0.037 C 
ATOM     15  H   UNL     1      -0.026  -3.764   2.387  0.00  0.00    +0.154 HD
ENDROOT
BRANCH   1  21
ATOM     16  C   UNL     1       1.435   1.148  -0.194  0.00  0.00    +0.044 C 
ATOM     17  C   UNL     1       0.722  -0.176  -0.097  0.00  0.00    -0.048 A 
ATOM     18  C   UNL     1       0.074  -0.694  -1.204  0.00  0.00    +0.006 A 
ATOM     19  C   UNL     1      -0.582  -1.909  -1.119  0.00  0.00    -0.048 A 
ATOM     20  C   UNL     1      -0.592  -2.608   0.071  0.00  0.00    +0.026 A 
ATOM     21  C   UNL     1       0.058  -2.091   1.185  0.00  0.00    +0.033 A 
ATOM     22  C   UNL     1       0.721  -0.874   1.095  0.00  0.00    +0.026 A 
ATOM     23  C   UNL     1      -1.287  -2.469  -2.327  0.00  0.00    +0.044 C 
ENDBRANCH   1  21
BRANCH   9  24
ATOM     24  S   UNL     1       0.186   1.655   4.694  0.00  0.00    -0.089 S 
ATOM     25  C   UNL     1       0.342   2.150   6.432  0.00  0.00    +0.093 C 
ENDBRANCH   9  24
TORSDOF 2
