REMARK  Name = ZINC18210462
REMARK  7 active torsions:
REMARK  status: ('A' for Active; 'I' for Inactive)
REMARK    1  A    between atoms: C_1  and  C_2
REMARK    2  A    between atoms: C_2  and  C_3
REMARK    3  A    between atoms: C_3  and  C_5
REMARK    4  A    between atoms: C_3  and  N_6
REMARK    5  A    between atoms: C_7  and  C_9
REMARK    6  A    between atoms: C_15  and  C_24
REMARK    7  A    between atoms: C_18  and  C_20
REMARK                            x       y       z     vdW  Elec       q    Type
REMARK                         _______ _______ _______ _____ _____    ______ ____
ROOT
ATOM      1  C   UNL     1       0.002  -0.004   0.002  0.00  0.00    +0.096 A 
ATOM      2  C   UNL     1      -0.017   1.412   0.010  0.00  0.00    +0.149 A 
ATOM      3  N   UNL     1       1.216   1.837   0.000  0.00  0.00    -0.177 NA
ATOM      4  N   UNL     1       2.078   0.740  -0.014  0.00  0.00    -0.238 N 
ATOM      5  C   UNL     1       1.336  -0.390  -0.013  0.00  0.00    +0.130 A 
ATOM      6  N   UNL     1       1.841  -1.673  -0.025  0.00  0.00    -0.321 N 
ATOM      7  C   UNL     1       3.252  -1.682   0.388  0.00  0.00    +0.111 C 
ATOM      8  C   UNL     1       4.031  -0.641  -0.424  0.00  0.00    +0.063 C 
ATOM      9  C   UNL     1       3.546   0.761  -0.028  0.00  0.00    +0.215 C 
ATOM     10  H   UNL     1       1.289  -2.284   0.558  0.00  0.00    +0.148 HD
ENDROOT
BRANCH   7  11
ATOM     11  C   UNL     1       3.348  -1.348   1.854  0.00  0.00    +0.010 A 
ATOM     12  C   UNL     1       4.155  -1.886   2.801  0.00  0.00    +0.013 A 
ATOM     13  C   UNL     1       4.070  -1.419   4.099  0.00  0.00    +0.008 A 
ATOM     14  C   UNL     1       3.182  -0.436   4.387  0.00  0.00    +0.045 A 
ATOM     15  S   UNL     1       2.433  -0.137   2.794  0.00  0.00    -0.100 S 
ENDBRANCH   7  11
BRANCH   1  17
ATOM     16  N   UNL     1      -2.409  -0.375   0.024  0.00  0.00    -0.309 N 
ATOM     17  C   UNL     1      -1.165  -0.894   0.009  0.00  0.00    +0.249 C 
ATOM     18  O   UNL     1      -1.010  -2.101   0.002  0.00  0.00    -0.270 OA
ATOM     19  H   UNL     1      -2.532   0.587   0.030  0.00  0.00    +0.149 HD
BRANCH  16  20
ATOM     20  C   UNL     1      -3.573  -1.263   0.032  0.00  0.00    +0.070 C 
ATOM     21  C   UNL     1      -3.917  -1.665  -1.404  0.00  0.00    +0.028 C 
BRANCH  20  23
ATOM     22  C   UNL     1      -4.470  -0.244   2.130  0.00  0.00    +0.005 C 
ATOM     23  C   UNL     1      -4.766  -0.536   0.657  0.00  0.00    +0.018 C 
ENDBRANCH  20  23
ENDBRANCH  16  20
ENDBRANCH   1  17
BRANCH   9  24
ATOM     24  C   UNL     1       4.040   1.788  -1.048  0.00  0.00    +0.412 C 
ATOM     25  F   UNL     1       3.563   3.056  -0.702  0.00  0.00    -0.168 F 
ATOM     26  F   UNL     1       5.439   1.802  -1.056  0.00  0.00    -0.168 F 
ATOM     27  F   UNL     1       3.571   1.444  -2.321  0.00  0.00    -0.168 F 
ENDBRANCH   9  24
TORSDOF 5
