REMARK  Name = ZINC08868903
REMARK  8 active torsions:
REMARK  status: ('A' for Active; 'I' for Inactive)
REMARK    1  A    between atoms: C_1  and  N_57
REMARK    2  A    between atoms: C_2  and  N_57
REMARK    3  A    between atoms: C_3  and  C_4
REMARK    4  A    between atoms: C_3  and  N_57
REMARK    5  A    between atoms: C_4  and  N_5
REMARK    6  A    between atoms: C_16  and  C_18
REMARK    7  A    between atoms: N_23  and  S_24
REMARK    8  A    between atoms: S_24  and  C_27
REMARK                            x       y       z     vdW  Elec       q    Type
REMARK                         _______ _______ _______ _____ _____    ______ ____
ROOT
ATOM      1  N   UNL     1       2.879  -4.190   0.354  0.00  0.00    -0.251 N 
ATOM      2  C   UNL     1       2.306  -2.992   0.752  0.00  0.00    +0.168 A 
ATOM      3  N   UNL     1       1.038  -2.659   0.788  0.00  0.00    -0.224 NA
ATOM      4  C   UNL     1       0.618  -1.443   1.202  0.00  0.00    +0.080 A 
ATOM      5  C   UNL     1      -0.709  -0.961   1.289  0.00  0.00    +0.032 A 
ATOM      6  C   UNL     1      -0.965   0.309   1.734  0.00  0.00    +0.040 A 
ATOM      7  C   UNL     1       0.061   1.166   2.114  0.00  0.00    +0.125 A 
ATOM      8  C   UNL     1       1.372   0.726   2.040  0.00  0.00    +0.055 A 
ATOM      9  C   UNL     1       1.636  -0.546   1.596  0.00  0.00    +0.043 A 
ATOM     10  S   UNL     1       3.107  -1.509   1.344  0.00  0.00    -0.052 S 
ATOM     11  F   UNL     1      -0.217   2.414   2.549  0.00  0.00    -0.205 F 
ATOM     12  C   UNL     1       2.098  -5.204  -0.067  0.00  0.00    +0.240 C 
ATOM     13  O   UNL     1       2.591  -6.279  -0.335  0.00  0.00    -0.273 OA
ENDROOT
BRANCH  12  14
ATOM     14  C   UNL     1       0.610  -5.002  -0.204  0.00  0.00    +0.166 C 
ATOM     15  C   UNL     1       0.301  -4.253  -1.517  0.00  0.00    +0.031 C 
ATOM     16  C   UNL     1      -0.065  -5.400  -2.495  0.00  0.00    +0.019 C 
ATOM     17  C   UNL     1      -0.798  -6.388  -1.553  0.00  0.00    +0.110 C 
ATOM     18  N   UNL     1      -0.067  -6.305  -0.276  0.00  0.00    -0.165 NA
BRANCH  18  19
ATOM     19  S   UNL     1      -0.015  -7.485   0.886  0.00  0.00    +0.062 S 
ATOM     20  O   UNL     1      -0.291  -8.714   0.229  0.00  0.00    -0.153 OA
ATOM     21  O   UNL     1       1.175  -7.269   1.631  0.00  0.00    -0.153 OA
BRANCH  19  22
ATOM     22  C   UNL     1      -1.359  -7.190   1.987  0.00  0.00    +0.106 A 
ATOM     23  C   UNL     1      -1.179  -6.384   3.096  0.00  0.00    +0.031 A 
ATOM     24  C   UNL     1      -2.233  -6.148   3.958  0.00  0.00    +0.040 A 
ATOM     25  C   UNL     1      -3.467  -6.727   3.716  0.00  0.00    +0.124 A 
ATOM     26  C   UNL     1      -3.645  -7.539   2.608  0.00  0.00    +0.040 A 
ATOM     27  C   UNL     1      -2.591  -7.769   1.745  0.00  0.00    +0.031 A 
ATOM     28  F   UNL     1      -4.497  -6.502   4.561  0.00  0.00    -0.205 F 
ENDBRANCH  19  22
ENDBRANCH  18  19
ENDBRANCH  12  14
BRANCH   1  29
ATOM     29  C   UNL     1       4.335  -4.354   0.392  0.00  0.00    +0.097 C 
BRANCH  29  30
ATOM     30  C   UNL     1       4.753  -4.884   1.765  0.00  0.00    -0.060 C 
BRANCH  30  33
ATOM     31  C   UNL     1       6.943  -3.858   1.651  0.00  0.00    -0.097 C 
ATOM     32  C   UNL     1       6.606  -5.847   2.989  0.00  0.00    -0.097 C 
ATOM     33  N   UNL     1       6.209  -5.137   1.756  0.00  0.00    +0.377 N 
ATOM     34  H   UNL     1       6.440  -5.722   0.944  0.00  0.00    -0.083 HD
ENDBRANCH  30  33
ENDBRANCH  29  30
ENDBRANCH   1  29
TORSDOF 6
