REMARK  Name = ZINC09216957
REMARK  10 active torsions:
REMARK  status: ('A' for Active; 'I' for Inactive)
REMARK    1  A    between atoms: C_1  and  C_2
REMARK    2  A    between atoms: C_2  and  C_3
REMARK    3  A    between atoms: C_3  and  C_4
REMARK    4  A    between atoms: C_4  and  N_5
REMARK    5  A    between atoms: C_6  and  N_33
REMARK    6  A    between atoms: C_7  and  N_14
REMARK    7  A    between atoms: N_14  and  C_15
REMARK    8  A    between atoms: C_20  and  C_22
REMARK    9  A    between atoms: C_22  and  S_23
REMARK   10  A    between atoms: S_23  and  C_24
REMARK                            x       y       z     vdW  Elec       q    Type
REMARK                         _______ _______ _______ _____ _____    ______ ____
ROOT
ATOM      1  N   UNL     1       2.598   1.318  -0.082  0.00  0.00    -0.260 N 
ATOM      2  C   UNL     1       3.712   2.078  -0.116  0.00  0.00    +0.230 C 
ATOM      3  O   UNL     1       4.804   1.551  -0.172  0.00  0.00    -0.274 OA
ENDROOT
BRANCH   1   6
ATOM      4  N   UNL     1      -0.336   3.227  -1.201  0.00  0.00    -0.280 N 
ATOM      5  C   UNL     1       0.910   2.643  -1.209  0.00  0.00    +0.127 A 
ATOM      6  C   UNL     1       1.327   1.929  -0.104  0.00  0.00    +0.140 A 
ATOM      7  C   UNL     1       0.461   1.821   1.001  0.00  0.00    +0.277 A 
ATOM      8  O   UNL     1       0.804   1.196   1.990  0.00  0.00    -0.266 OA
ATOM      9  N   UNL     1      -0.751   2.408   0.956  0.00  0.00    -0.273 N 
ATOM     10  H   UNL     1      -1.369   2.326   1.738  0.00  0.00    +0.173 HD
ATOM     11  C   UNL     1      -1.138   3.104  -0.128  0.00  0.00    +0.331 A 
ATOM     12  O   UNL     1      -2.235   3.628  -0.140  0.00  0.00    -0.246 OA
BRANCH   5  13
ATOM     13  N   UNL     1       1.729   2.768  -2.305  0.00  0.00    -0.343 N 
ATOM     14  H   UNL     1       2.571   2.287  -2.339  0.00  0.00    +0.144 HD
ATOM     15  H   UNL     1       1.466   3.337  -3.045  0.00  0.00    +0.144 HD
ENDBRANCH   5  13
BRANCH   4  16
ATOM     16  C   UNL     1      -0.791   3.988  -2.367  0.00  0.00    +0.128 C 
BRANCH  16  17
ATOM     17  C   UNL     1      -1.516   3.051  -3.335  0.00  0.00    +0.021 C 
BRANCH  17  19
ATOM     18  C   UNL     1      -2.717   2.910  -5.521  0.00  0.00    +0.004 C 
ATOM     19  C   UNL     1      -1.992   3.846  -4.553  0.00  0.00    -0.002 C 
ENDBRANCH  17  19
ENDBRANCH  16  17
ENDBRANCH   4  16
ENDBRANCH   1   6
BRANCH   1  20
ATOM     20  C   UNL     1       2.708  -0.142  -0.022  0.00  0.00    +0.082 C 
ATOM     21  C   UNL     1       3.509  -0.560   1.229  0.00  0.00    +0.023 C 
ATOM     22  C   UNL     1       4.344  -1.777   0.755  0.00  0.00    +0.002 C 
ATOM     23  C   UNL     1       4.740  -1.378  -0.689  0.00  0.00    +0.002 C 
ATOM     24  C   UNL     1       3.490  -0.662  -1.240  0.00  0.00    +0.023 C 
ENDBRANCH   1  20
BRANCH   2  25
ATOM     25  C   UNL     1       3.601   3.580  -0.085  0.00  0.00    +0.170 C 
BRANCH  25  26
ATOM     26  S   UNL     1       5.261   4.308   0.002  0.00  0.00    -0.116 S 
BRANCH  26  27
ATOM     27  C   UNL     1       4.961   6.037   0.158  0.00  0.00    +0.009 A 
ATOM     28  C   UNL     1       3.661   6.510   0.293  0.00  0.00    +0.015 A 
ATOM     29  C   UNL     1       3.432   7.864   0.415  0.00  0.00    +0.005 A 
ATOM     30  C   UNL     1       4.492   8.757   0.405  0.00  0.00    -0.044 A 
ATOM     31  C   UNL     1       5.787   8.290   0.271  0.00  0.00    -0.043 A 
ATOM     32  C   UNL     1       6.022   6.931   0.153  0.00  0.00    +0.018 A 
ATOM     33  C   UNL     1       6.755   9.454   0.288  0.00  0.00    +0.036 C 
ATOM     34  C   UNL     1       5.957  10.633   0.883  0.00  0.00    +0.009 C 
ATOM     35  C   UNL     1       4.503  10.266   0.521  0.00  0.00    +0.036 C 
ENDBRANCH  26  27
ENDBRANCH  25  26
ENDBRANCH   2  25
TORSDOF 9
