REMARK  Name = ZINC22442759
REMARK  2 active torsions:
REMARK  status: ('A' for Active; 'I' for Inactive)
REMARK    1  A    between atoms: C_4  and  N_7
REMARK    2  A    between atoms: C_27  and  C_32
REMARK                            x       y       z     vdW  Elec       q    Type
REMARK                         _______ _______ _______ _____ _____    ______ ____
ROOT
ATOM      1  N   UNL     1      -7.463   0.301   1.145  0.00  0.00    -0.299 N 
ATOM      2  C   UNL     1      -6.757   0.445  -0.030  0.00  0.00    +0.139 A 
ATOM      3  C   UNL     1      -5.397   0.823  -0.014  0.00  0.00    +0.079 A 
ATOM      4  C   UNL     1      -4.719   0.962  -1.229  0.00  0.00    +0.059 A 
ATOM      5  N   UNL     1      -5.379   0.729  -2.351  0.00  0.00    -0.218 NA
ATOM      6  C   UNL     1      -6.658   0.372  -2.332  0.00  0.00    +0.220 A 
ATOM      7  N   UNL     1      -7.340   0.232  -1.205  0.00  0.00    -0.199 NA
ATOM      8  N   UNL     1      -7.300   0.140  -3.530  0.00  0.00    -0.297 N 
ATOM      9  C   UNL     1      -7.208   1.312  -4.412  0.00  0.00    +0.127 C 
ATOM     10  C   UNL     1      -7.861   0.986  -5.758  0.00  0.00    +0.125 C 
ATOM     11  N   UNL     1      -9.263   0.604  -5.538  0.00  0.00    -0.314 N 
ATOM     12  C   UNL     1      -9.355  -0.567  -4.656  0.00  0.00    +0.125 C 
ATOM     13  C   UNL     1      -8.702  -0.242  -3.311  0.00  0.00    +0.127 C 
ATOM     14  C   UNL     1      -9.911   0.370  -6.746  0.00  0.00    +0.099 A 
ATOM     15  C   UNL     1      -9.935   1.364  -7.719  0.00  0.00    +0.042 A 
ATOM     16  C   UNL     1     -10.582   1.117  -8.916  0.00  0.00    +0.005 A 
ATOM     17  C   UNL     1     -11.186  -0.119  -9.101  0.00  0.00    +0.018 A 
ATOM     18  C   UNL     1     -11.123  -1.060  -8.092  0.00  0.00    +0.084 A 
ATOM     19  N   UNL     1     -10.494  -0.799  -6.962  0.00  0.00    -0.350 N 
ATOM     20  C   UNL     1      -3.273   1.368  -1.282  0.00  0.00    +0.065 C 
ATOM     21  C   UNL     1      -2.567   1.064   0.037  0.00  0.00    +0.039 C 
ATOM     22  C   UNL     1      -3.337   1.716   1.192  0.00  0.00    +0.089 C 
ATOM     23  C   UNL     1      -4.704   1.064   1.254  0.00  0.00    +0.169 C 
ATOM     24  O   UNL     1      -5.205   0.753   2.314  0.00  0.00    -0.292 OA
ATOM     25  H   UNL     1      -6.947   0.390   2.112  0.00  0.00    +0.154 HD
ATOM     26  H   UNL     1     -10.461  -1.581  -6.189  0.00  0.00    +0.166 HD
ENDROOT
BRANCH   1  30
ATOM     27  C   UNL     1     -11.555  -0.473   1.035  0.00  0.00    +0.000 A 
ATOM     28  C   UNL     1     -10.779  -1.002   2.051  0.00  0.00    +0.002 A 
ATOM     29  C   UNL     1      -9.423  -0.748   2.090  0.00  0.00    +0.023 A 
ATOM     30  C   UNL     1      -8.837   0.041   1.108  0.00  0.00    +0.032 A 
ATOM     31  C   UNL     1      -9.619   0.575   0.093  0.00  0.00    +0.023 A 
ATOM     32  C   UNL     1     -10.974   0.312   0.056  0.00  0.00    +0.002 A 
ENDBRANCH   1  30
BRANCH  21  33
ATOM     33  C   UNL     1      -1.164   1.613  -0.006  0.00  0.00    -0.006 A 
ATOM     34  C   UNL     1       0.014   0.955   0.115  0.00  0.00    +0.011 A 
ATOM     35  C   UNL     1       1.194   1.673   0.036  0.00  0.00    +0.008 A 
ATOM     36  C   UNL     1       1.136   3.014  -0.153  0.00  0.00    +0.045 A 
ATOM     37  S   UNL     1      -0.625   3.301  -0.227  0.00  0.00    -0.101 S 
ENDBRANCH  21  33
TORSDOF 2
