REMARK  Name = ZINC21324774
REMARK  14 active torsions:
REMARK  status: ('A' for Active; 'I' for Inactive)
REMARK    1  A    between atoms: C_1  and  C_2
REMARK    2  A    between atoms: C_2  and  C_3
REMARK    3  A    between atoms: C_3  and  N_4
REMARK    4  A    between atoms: C_5  and  C_7
REMARK    5  A    between atoms: C_7  and  N_8
REMARK    6  A    between atoms: N_8  and  C_9
REMARK    7  A    between atoms: N_8  and  C_10
REMARK    8  A    between atoms: C_10  and  C_11
REMARK    9  A    between atoms: N_13  and  C_14
REMARK   10  A    between atoms: C_15  and  C_26
REMARK   11  A    between atoms: C_16  and  C_19
REMARK   12  A    between atoms: C_26  and  O_28
REMARK   13  A    between atoms: O_28  and  C_29
REMARK   14  A    between atoms: C_29  and  C_30
REMARK                            x       y       z     vdW  Elec       q    Type
REMARK                         _______ _______ _______ _____ _____    ______ ____
ROOT
ATOM      1  C   UNL     1      -2.381   1.157   0.020  0.00  0.00    +0.086 A 
ATOM      2  C   UNL     1      -3.678   1.654   0.029  0.00  0.00    +0.095 A 
ATOM      3  C   UNL     1      -4.751   0.677   0.028  0.00  0.00    +0.006 A 
ATOM      4  C   UNL     1      -4.386  -0.630   0.019  0.00  0.00    +0.056 A 
ATOM      5  S   UNL     1      -2.607  -0.559   0.004  0.00  0.00    -0.080 S 
ENDROOT
BRANCH   3   6
ATOM      6  C   UNL     1      -6.175   1.087   0.037  0.00  0.00    +0.002 A 
ATOM      7  C   UNL     1      -6.985   0.780   1.129  0.00  0.00    +0.010 A 
ATOM      8  C   UNL     1      -8.309   1.168   1.134  0.00  0.00    +0.001 A 
ATOM      9  C   UNL     1      -8.837   1.852   0.053  0.00  0.00    +0.001 A 
ATOM     10  C   UNL     1      -8.040   2.155  -1.036  0.00  0.00    +0.020 A 
ATOM     11  C   UNL     1      -6.712   1.776  -1.051  0.00  0.00    +0.049 A 
ATOM     12 CL   UNL     1      -5.714   2.156  -2.419  0.00  0.00    -0.083 Cl
ENDBRANCH   3   6
BRANCH   1  15
ATOM     13  C   UNL     1      -0.014   1.209   0.009  0.00  0.00    +0.201 C 
ATOM     14  O   UNL     1       0.002  -0.004   0.002  0.00  0.00    -0.278 OA
ATOM     15  N   UNL     1      -1.191   1.867   0.018  0.00  0.00    -0.281 N 
ATOM     16  H   UNL     1      -1.206   2.966   0.024  0.00  0.00    +0.155 HD
BRANCH  13  17
ATOM     17  C   UNL     1       1.280   1.980   0.001  0.00  0.00    +0.019 C 
BRANCH  17  18
ATOM     18  N   UNL     1       2.410   1.040  -0.015  0.00  0.00    +0.389 N 
ATOM     19  C   UNL     1       2.470   0.269   1.233  0.00  0.00    -0.095 C 
ATOM     20  H   UNL     1       2.249   0.333  -0.843  0.00  0.00    -0.081 HD
BRANCH  18  21
ATOM     21  C   UNL     1       3.676   1.744  -0.262  0.00  0.00    +0.019 C 
BRANCH  21  23
ATOM     22  N   UNL     1       6.025   1.155  -0.767  0.00  0.00    -0.317 N 
ATOM     23  C   UNL     1       4.768   0.737  -0.515  0.00  0.00    +0.196 C 
ATOM     24  O   UNL     1       4.517  -0.449  -0.492  0.00  0.00    -0.278 OA
ATOM     25  H   UNL     1       6.253   2.231  -0.787  0.00  0.00    +0.149 HD
BRANCH  22  26
ATOM     26  C   UNL     1       7.087   0.176  -1.013  0.00  0.00    +0.104 C 
BRANCH  26  28
ATOM     27  C   UNL     1       9.515  -0.113  -1.526  0.00  0.00    +0.005 C 
ATOM     28  C   UNL     1       8.405   0.909  -1.270  0.00  0.00    +0.015 C 
ENDBRANCH  26  28
ENDBRANCH  22  26
ENDBRANCH  21  23
ENDBRANCH  18  21
ENDBRANCH  17  18
ENDBRANCH  13  17
ENDBRANCH   1  15
BRANCH   2  29
ATOM     29  C   UNL     1      -3.949   3.092   0.038  0.00  0.00    +0.342 C 
ATOM     30  O   UNL     1      -4.067   3.695  -1.012  0.00  0.00    -0.245 OA
BRANCH  29  31
ATOM     31  O   UNL     1      -4.068   3.748   1.211  0.00  0.00    -0.461 OA
BRANCH  31  32
ATOM     32  C   UNL     1      -4.337   5.173   1.144  0.00  0.00    +0.229 C 
ATOM     33  C   UNL     1      -4.438   5.740   2.562  0.00  0.00    +0.048 C 
ENDBRANCH  31  32
ENDBRANCH  29  31
ENDBRANCH   2  29
TORSDOF 11
