REMARK  Name = ZINC09820826
REMARK  6 active torsions:
REMARK  status: ('A' for Active; 'I' for Inactive)
REMARK    1  A    between atoms: C_6  and  C_7
REMARK    2  A    between atoms: C_8  and  C_9
REMARK    3  A    between atoms: C_9  and  O_11
REMARK    4  A    between atoms: O_11  and  C_12
REMARK    5  A    between atoms: C_12  and  C_13
REMARK    6  A    between atoms: N_15  and  C_16
REMARK                            x       y       z     vdW  Elec       q    Type
REMARK                         _______ _______ _______ _____ _____    ______ ____
ROOT
ATOM      1  O   UNL     1      -8.513  -1.494  -2.576  0.00  0.00    -0.452 OA
ENDROOT
BRANCH   1   2
ATOM      2  C   UNL     1      -7.379  -2.177  -2.839  0.00  0.00    +0.332 C 
ATOM      3  O   UNL     1      -6.807  -2.773  -1.946  0.00  0.00    -0.246 OA
BRANCH   2   5
ATOM      4  C   UNL     1      -5.719  -2.884  -4.419  0.00  0.00    +0.015 C 
ATOM      5  C   UNL     1      -6.854  -2.200  -4.156  0.00  0.00    +0.092 C 
BRANCH   4  11
ATOM      6  C   UNL     1      -5.832  -2.223  -6.813  0.00  0.00    +0.012 A 
ATOM      7  C   UNL     1      -5.321  -2.251  -8.092  0.00  0.00    +0.050 A 
ATOM      8  C   UNL     1      -4.152  -2.952  -8.365  0.00  0.00    +0.162 A 
ATOM      9  C   UNL     1      -3.492  -3.635  -7.345  0.00  0.00    +0.163 A 
ATOM     10  C   UNL     1      -4.000  -3.615  -6.060  0.00  0.00    +0.057 A 
ATOM     11  C   UNL     1      -5.176  -2.908  -5.784  0.00  0.00    -0.021 A 
ATOM     12  O   UNL     1      -2.346  -4.325  -7.597  0.00  0.00    -0.485 OA
ATOM     13  C   UNL     1      -2.069  -4.633  -8.967  0.00  0.00    +0.270 C 
ATOM     14  C   UNL     1      -2.303  -3.366  -9.801  0.00  0.00    +0.270 C 
ATOM     15  O   UNL     1      -3.668  -2.966  -9.636  0.00  0.00    -0.485 OA
ENDBRANCH   4  11
ENDBRANCH   2   5
ENDBRANCH   1   2
BRANCH   1  16
ATOM     16  C   UNL     1      -8.984  -1.514  -1.227  0.00  0.00    +0.328 C 
BRANCH  16  17
ATOM     17  C   UNL     1     -10.251  -0.704  -1.126  0.00  0.00    +0.255 C 
ATOM     18  O   UNL     1     -10.705  -0.163  -2.112  0.00  0.00    -0.272 OA
ATOM     19  N   UNL     1     -10.879  -0.580   0.060  0.00  0.00    -0.280 N 
ATOM     20  H   UNL     1     -10.557  -1.071   0.833  0.00  0.00    +0.155 HD
BRANCH  19  21
ATOM     21  C   UNL     1     -11.996   0.257   0.178  0.00  0.00    +0.071 A 
ATOM     22  C   UNL     1     -11.830   1.597   0.503  0.00  0.00    +0.065 A 
ATOM     23  C   UNL     1     -12.934   2.422   0.614  0.00  0.00    +0.042 A 
ATOM     24  C   UNL     1     -14.204   1.911   0.412  0.00  0.00    +0.044 A 
ATOM     25  C   UNL     1     -14.372   0.576   0.092  0.00  0.00    +0.042 A 
ATOM     26  C   UNL     1     -13.272  -0.253  -0.025  0.00  0.00    +0.065 A 
ATOM     27 CL   UNL     1     -13.485  -1.929  -0.426  0.00  0.00    -0.082 Cl
ATOM     28 CL   UNL     1     -15.588   2.948   0.558  0.00  0.00    -0.083 Cl
ATOM     29 CL   UNL     1     -10.237   2.237   0.764  0.00  0.00    -0.082 Cl
ENDBRANCH  19  21
ENDBRANCH  16  17
ENDBRANCH   1  16
TORSDOF 6
