REMARK  Name = ZINC08660762
REMARK  7 active torsions:
REMARK  status: ('A' for Active; 'I' for Inactive)
REMARK    1  A    between atoms: C_1  and  C_2
REMARK    2  A    between atoms: C_2  and  C_4
REMARK    3  A    between atoms: C_2  and  N_22
REMARK    4  A    between atoms: N_6  and  C_7
REMARK    5  A    between atoms: C_10  and  S_13
REMARK    6  A    between atoms: S_13  and  N_16
REMARK    7  A    between atoms: C_23  and  C_25
REMARK                            x       y       z     vdW  Elec       q    Type
REMARK                         _______ _______ _______ _____ _____    ______ ____
ROOT
ATOM      1  C   UNL     1      -2.442   7.773  -2.355  0.00  0.00    +0.237 C 
ATOM      2  O   UNL     1      -2.674   7.008  -3.267  0.00  0.00    -0.273 OA
ATOM      3  N   UNL     1      -2.318   9.093  -2.599  0.00  0.00    -0.284 N 
ATOM      4  H   UNL     1      -2.209   9.714  -1.862  0.00  0.00    +0.155 HD
ENDROOT
BRANCH   3   5
ATOM      5  C   UNL     1      -2.346   9.567  -3.915  0.00  0.00    +0.034 A 
ATOM      6  C   UNL     1      -1.821   8.796  -4.944  0.00  0.00    +0.025 A 
ATOM      7  C   UNL     1      -1.856   9.265  -6.242  0.00  0.00    +0.030 A 
ATOM      8  C   UNL     1      -2.403  10.505  -6.518  0.00  0.00    +0.109 A 
ATOM      9  C   UNL     1      -2.921  11.277  -5.495  0.00  0.00    +0.030 A 
ATOM     10  C   UNL     1      -2.894  10.812  -4.194  0.00  0.00    +0.025 A 
BRANCH   8  11
ATOM     11  S   UNL     1      -2.439  11.101  -8.175  0.00  0.00    +0.074 S 
ATOM     12  O   UNL     1      -2.388   9.959  -9.019  0.00  0.00    -0.150 OA
ATOM     13  O   UNL     1      -3.494  12.051  -8.242  0.00  0.00    -0.150 OA
BRANCH  11  14
ATOM     14  N   UNL     1      -1.032  11.938  -8.425  0.00  0.00    -0.194 N 
ATOM     15  C   UNL     1       0.184  11.274  -8.393  0.00  0.00    +0.177 A 
ATOM     16  N   UNL     1       0.425   9.995  -8.176  0.00  0.00    -0.232 NA
ATOM     17  C   UNL     1       1.657   9.521  -8.185  0.00  0.00    +0.120 A 
ATOM     18  C   UNL     1       2.678  10.382  -8.411  0.00  0.00    +0.068 A 
ATOM     19  S   UNL     1       1.782  11.913  -8.621  0.00  0.00    -0.059 S 
ATOM     20  H   UNL     1      -1.059  12.893  -8.594  0.00  0.00    +0.176 HD
ENDBRANCH  11  14
ENDBRANCH   8  11
ENDBRANCH   3   5
BRANCH   1  22
ATOM     21  C   UNL     1      -3.351   7.892  -0.051  0.00  0.00    +0.038 C 
ATOM     22  C   UNL     1      -2.293   7.249  -0.950  0.00  0.00    +0.156 C 
BRANCH  22  23
ATOM     23  N   UNL     1      -2.471   5.795  -0.950  0.00  0.00    -0.304 N 
ATOM     24  C   UNL     1      -1.913   5.048   0.023  0.00  0.00    +0.220 C 
ATOM     25  O   UNL     1      -1.263   5.580   0.898  0.00  0.00    -0.275 OA
ATOM     26  H   UNL     1      -2.991   5.370  -1.650  0.00  0.00    +0.149 HD
BRANCH  24  27
ATOM     27  C   UNL     1      -2.095   3.552   0.023  0.00  0.00    +0.048 C 
ATOM     28  C   UNL     1      -1.520   2.968  -1.269  0.00  0.00    +0.019 C 
ATOM     29  C   UNL     1      -1.705   1.449  -1.268  0.00  0.00    -0.009 C 
ATOM     30  C   UNL     1      -0.976   0.846  -0.066  0.00  0.00    +0.007 C 
ATOM     31  C   UNL     1      -1.551   1.431   1.225  0.00  0.00    -0.009 C 
ATOM     32  C   UNL     1      -1.366   2.949   1.225  0.00  0.00    +0.019 C 
ATOM     33  C   UNL     1      -3.042   1.099   1.315  0.00  0.00    +0.007 C 
ATOM     34  C   UNL     1      -3.772   1.702   0.113  0.00  0.00    -0.009 C 
ATOM     35  C   UNL     1      -3.196   1.117  -1.179  0.00  0.00    +0.007 C 
ATOM     36  C   UNL     1      -3.586   3.220   0.113  0.00  0.00    +0.019 C 
ENDBRANCH  24  27
ENDBRANCH  22  23
ENDBRANCH   1  22
TORSDOF 6
