REMARK  Name = ZINC08565213
REMARK  9 active torsions:
REMARK  status: ('A' for Active; 'I' for Inactive)
REMARK    1  A    between atoms: C_4  and  C_7
REMARK    2  A    between atoms: C_7  and  C_8
REMARK    3  A    between atoms: C_8  and  O_9
REMARK    4  A    between atoms: O_9  and  C_10
REMARK    5  A    between atoms: C_13  and  C_16
REMARK    6  A    between atoms: N_18  and  C_19
REMARK    7  A    between atoms: C_19  and  N_21
REMARK    8  A    between atoms: N_21  and  N_22
REMARK    9  A    between atoms: C_23  and  C_25
REMARK                            x       y       z     vdW  Elec       q    Type
REMARK                         _______ _______ _______ _____ _____    ______ ____
ROOT
ATOM      1  C   UNL     1      -4.629  -2.816   0.031  0.00  0.00    +0.250 C 
ATOM      2  O   UNL     1      -4.612  -4.032   0.024  0.00  0.00    -0.270 OA
ATOM      3  N   UNL     1      -3.471  -2.126   0.024  0.00  0.00    -0.263 N 
ATOM      4  H   UNL     1      -3.484  -1.157   0.029  0.00  0.00    +0.157 HD
ENDROOT
BRANCH   1   8
ATOM      5  C   UNL     1      -8.334  -0.743   0.077  0.00  0.00    +0.121 A 
ATOM      6  C   UNL     1      -8.318  -2.133   0.070  0.00  0.00    +0.046 A 
ATOM      7  C   UNL     1      -7.118  -2.809   0.055  0.00  0.00    +0.016 A 
ATOM      8  C   UNL     1      -5.916  -2.096   0.047  0.00  0.00    +0.037 A 
ATOM      9  C   UNL     1      -5.937  -0.698   0.061  0.00  0.00    +0.016 A 
ATOM     10  C   UNL     1      -7.141  -0.030   0.070  0.00  0.00    +0.046 A 
BRANCH   5  11
ATOM     11  O   UNL     1      -9.518  -0.081   0.091  0.00  0.00    -0.492 OA
BRANCH  11  12
ATOM     12  C   UNL     1      -9.463   1.347   0.098  0.00  0.00    +0.233 C 
BRANCH  12  13
ATOM     13  C   UNL     1     -10.885   1.913   0.113  0.00  0.00    +0.076 C 
BRANCH  13  17
ATOM     14  C   UNL     1     -10.719   6.181   0.133  0.00  0.00    +0.000 A 
ATOM     15  C   UNL     1     -10.757   5.496  -1.067  0.00  0.00    +0.000 A 
ATOM     16  C   UNL     1     -10.810   4.115  -1.074  0.00  0.00    +0.004 A 
ATOM     17  C   UNL     1     -10.826   3.418   0.120  0.00  0.00    -0.044 A 
ATOM     18  C   UNL     1     -10.794   4.103   1.321  0.00  0.00    +0.004 A 
ATOM     19  C   UNL     1     -10.736   5.484   1.327  0.00  0.00    +0.000 A 
ENDBRANCH  13  17
ENDBRANCH  12  13
ENDBRANCH  11  12
ENDBRANCH   5  11
ENDBRANCH   1   8
BRANCH   3  20
ATOM     20  C   UNL     1      -2.295  -2.784   0.009  0.00  0.00    +0.153 C 
ATOM     21  S   UNL     1      -2.272  -4.496  -0.000  0.00  0.00    -0.017 S 
BRANCH  20  22
ATOM     22  N   UNL     1      -1.137  -2.095   0.002  0.00  0.00    -0.245 N 
ATOM     23  H   UNL     1      -0.290  -2.568  -0.009  0.00  0.00    +0.172 HD
BRANCH  22  24
ATOM     24  N   UNL     1      -1.156  -0.694   0.009  0.00  0.00    -0.231 N 
ATOM     25  C   UNL     1       0.002  -0.004   0.002  0.00  0.00    +0.260 C 
ATOM     26  O   UNL     1       1.063  -0.597  -0.011  0.00  0.00    -0.269 OA
ATOM     27  H   UNL     1      -2.002  -0.220   0.020  0.00  0.00    +0.173 HD
BRANCH  25  28
ATOM     28  C   UNL     1      -0.018   1.474   0.010  0.00  0.00    +0.038 A 
ATOM     29  C   UNL     1      -1.234   2.159   0.020  0.00  0.00    +0.013 A 
ATOM     30  C   UNL     1      -1.246   3.538   0.033  0.00  0.00    +0.001 A 
ATOM     31  C   UNL     1      -0.056   4.243   0.025  0.00  0.00    +0.000 A 
ATOM     32  C   UNL     1       1.154   3.571   0.010  0.00  0.00    +0.001 A 
ATOM     33  C   UNL     1       1.179   2.192   0.003  0.00  0.00    +0.013 A 
ENDBRANCH  25  28
ENDBRANCH  22  24
ENDBRANCH  20  22
ENDBRANCH   3  20
TORSDOF 9
