REMARK  Name = ZINC20115309
REMARK  11 active torsions:
REMARK  status: ('A' for Active; 'I' for Inactive)
REMARK    1  A    between atoms: C_1  and  C_2
REMARK    2  A    between atoms: C_2  and  C_3
REMARK    3  A    between atoms: C_2  and  C_4
REMARK    4  A    between atoms: C_4  and  C_5
REMARK    5  A    between atoms: N_7  and  C_8
REMARK    6  A    between atoms: C_11  and  C_14
REMARK    7  A    between atoms: N_16  and  N_17
REMARK    8  A    between atoms: C_18  and  C_19
REMARK    9  A    between atoms: C_18  and  C_20
REMARK   10  A    between atoms: C_22  and  O_27
REMARK   11  A    between atoms: C_25  and  O_26
REMARK                            x       y       z     vdW  Elec       q    Type
REMARK                         _______ _______ _______ _____ _____    ______ ____
ROOT
ATOM      1  C   UNL     1      -2.702  -8.269  -1.238  0.00  0.00    +0.263 C 
ATOM      2  O   UNL     1      -1.675  -8.920  -1.248  0.00  0.00    -0.268 OA
ATOM      3  N   UNL     1      -3.894  -8.888  -1.351  0.00  0.00    -0.203 N 
ATOM      4  H   UNL     1      -4.715  -8.378  -1.270  0.00  0.00    +0.178 HD
ENDROOT
BRANCH   1   8
ATOM      5  C   UNL     1      -2.533  -4.043  -0.848  0.00  0.00    +0.033 A 
ATOM      6  C   UNL     1      -1.357  -4.777  -0.967  0.00  0.00    +0.024 A 
ATOM      7  C   UNL     1      -1.408  -6.147  -1.093  0.00  0.00    +0.015 A 
ATOM      8  C   UNL     1      -2.643  -6.801  -1.102  0.00  0.00    +0.038 A 
ATOM      9  C   UNL     1      -3.823  -6.061  -0.983  0.00  0.00    +0.015 A 
ATOM     10  C   UNL     1      -3.764  -4.691  -0.851  0.00  0.00    +0.024 A 
BRANCH   5  13
ATOM     11  C   UNL     1      -1.533  -1.955  -1.378  0.00  0.00    +0.217 C 
ATOM     12  O   UNL     1      -0.681  -2.537  -2.016  0.00  0.00    -0.275 OA
ATOM     13  N   UNL     1      -2.478  -2.656  -0.720  0.00  0.00    -0.285 N 
ATOM     14  H   UNL     1      -3.119  -2.195  -0.157  0.00  0.00    +0.155 HD
BRANCH  11  15
ATOM     15  C   UNL     1      -1.534  -0.450  -1.320  0.00  0.00    +0.099 C 
BRANCH  15  17
ATOM     16  C   UNL     1      -0.440   1.621  -2.190  0.00  0.00    +0.008 C 
ATOM     17  C   UNL     1      -0.366   0.093  -2.146  0.00  0.00    -0.008 C 
ATOM     18  C   UNL     1       0.955  -0.335  -1.503  0.00  0.00    +0.008 C 
ENDBRANCH  15  17
ENDBRANCH  11  15
ENDBRANCH   5  13
ENDBRANCH   1   8
BRANCH   3  19
ATOM     19  N   UNL     1      -3.947 -10.268  -1.585  0.00  0.00    -0.184 NA
ATOM     20  C   UNL     1      -5.089 -10.848  -1.794  0.00  0.00    +0.067 C 
ATOM     21  C   UNL     1      -5.161 -12.348  -1.923  0.00  0.00    +0.068 C 
BRANCH  20  22
ATOM     22  C   UNL     1      -6.316 -10.039  -1.906  0.00  0.00    +0.042 A 
ATOM     23  C   UNL     1      -6.478  -9.153  -2.974  0.00  0.00    +0.058 A 
ATOM     24  C   UNL     1      -7.632  -8.397  -3.072  0.00  0.00    +0.118 A 
ATOM     25  C   UNL     1      -8.630  -8.518  -2.113  0.00  0.00    +0.049 A 
ATOM     26  C   UNL     1      -8.477  -9.393  -1.054  0.00  0.00    +0.049 A 
ATOM     27  C   UNL     1      -7.329 -10.160  -0.945  0.00  0.00    +0.126 A 
BRANCH  27  28
ATOM     28  O   UNL     1      -7.183 -11.024   0.094  0.00  0.00    -0.506 OA
ATOM     29  H   UNL     1      -6.833 -10.616   0.898  0.00  0.00    +0.292 HD
ENDBRANCH  27  28
BRANCH  24  30
ATOM     30  O   UNL     1      -7.791  -7.534  -4.111  0.00  0.00    -0.507 OA
ATOM     31  H   UNL     1      -8.216  -7.926  -4.886  0.00  0.00    +0.292 HD
ENDBRANCH  24  30
ENDBRANCH  20  22
ENDBRANCH   3  19
TORSDOF 8
