REMARK  Name = ZINC11815983
REMARK  7 active torsions:
REMARK  status: ('A' for Active; 'I' for Inactive)
REMARK    1  A    between atoms: C_1  and  C_2
REMARK    2  A    between atoms: C_2  and  O_3
REMARK    3  A    between atoms: O_3  and  C_4
REMARK    4  A    between atoms: C_11  and  N_58
REMARK    5  A    between atoms: C_18  and  C_20
REMARK    6  A    between atoms: N_24  and  C_29
REMARK    7  A    between atoms: N_27  and  C_28
REMARK                            x       y       z     vdW  Elec       q    Type
REMARK                         _______ _______ _______ _____ _____    ______ ____
ROOT
ATOM      1  C   UNL     1      -5.714   2.988   6.376  0.00  0.00    -0.051 C 
ATOM      2  C   UNL     1      -6.657   2.892   5.175  0.00  0.00    -0.012 C 
ATOM      3  C   UNL     1      -5.940   2.200   4.014  0.00  0.00    +0.017 C 
ATOM      4  C   UNL     1      -4.720   3.031   3.605  0.00  0.00    +0.108 C 
ATOM      5  N   UNL     1      -3.878   3.251   4.789  0.00  0.00    -0.298 N 
ATOM      6  C   UNL     1      -4.492   3.823   5.995  0.00  0.00    +0.093 C 
ATOM      7  C   UNL     1      -2.570   2.929   4.772  0.00  0.00    +0.263 C 
ATOM      8  O   UNL     1      -1.906   3.030   5.784  0.00  0.00    -0.268 OA
ENDROOT
BRANCH   7   9
ATOM      9  C   UNL     1      -1.941   2.450   3.516  0.00  0.00    +0.113 A 
ATOM     10  C   UNL     1      -1.954   1.129   3.204  0.00  0.00    +0.101 A 
ATOM     11  C   UNL     1      -1.323   0.702   1.949  0.00  0.00    +0.257 A 
ATOM     12  O   UNL     1      -1.315  -0.472   1.628  0.00  0.00    -0.267 OA
ATOM     13  N   UNL     1      -0.747   1.633   1.161  0.00  0.00    -0.264 N 
ATOM     14  C   UNL     1      -0.761   2.929   1.516  0.00  0.00    +0.332 A 
ATOM     15  O   UNL     1      -0.239   3.749   0.786  0.00  0.00    -0.246 OA
ATOM     16  N   UNL     1      -1.337   3.343   2.658  0.00  0.00    -0.292 N 
ATOM     17  C   UNL     1      -1.322   4.769   2.995  0.00  0.00    +0.154 C 
ATOM     18  C   UNL     1      -0.107   1.230  -0.094  0.00  0.00    +0.157 C 
ENDBRANCH   7   9
BRANCH   1  26
ATOM     19  C   UNL     1      -6.849   6.496  10.356  0.00  0.00    +0.403 C 
ATOM     20  O   UNL     1      -6.235   6.388  11.399  0.00  0.00    -0.226 OA
ATOM     21  N   UNL     1      -6.987   5.432   9.541  0.00  0.00    -0.271 N 
ATOM     22  C   UNL     1      -6.404   4.129   9.896  0.00  0.00    +0.092 C 
ATOM     23  C   UNL     1      -5.577   3.626   8.707  0.00  0.00    -0.059 C 
ATOM     24  C   UNL     1      -6.847   4.983   7.149  0.00  0.00    -0.059 C 
ATOM     25  C   UNL     1      -7.725   5.542   8.274  0.00  0.00    +0.092 C 
ATOM     26  N   UNL     1      -6.439   3.606   7.505  0.00  0.00    +0.385 N 
ATOM     27  H   UNL     1      -7.279   3.052   7.706  0.00  0.00    -0.081 HD
BRANCH  19  28
ATOM     28  O   UNL     1      -7.390   7.681  10.014  0.00  0.00    -0.451 OA
BRANCH  28  30
ATOM     29  C   UNL     1      -7.881  10.037  10.384  0.00  0.00    +0.048 C 
ATOM     30  C   UNL     1      -7.201   8.784  10.939  0.00  0.00    +0.230 C 
ENDBRANCH  28  30
ENDBRANCH  19  28
ENDBRANCH   1  26
TORSDOF 4
