REMARK  Name = ZINC45777964
REMARK  9 active torsions:
REMARK  status: ('A' for Active; 'I' for Inactive)
REMARK    1  A    between atoms: C_1  and  C_2
REMARK    2  A    between atoms: N_5  and  C_8
REMARK    3  A    between atoms: C_8  and  C_9
REMARK    4  A    between atoms: C_14  and  C_15
REMARK    5  A    between atoms: C_15  and  N_16
REMARK    6  A    between atoms: N_19  and  C_20
REMARK    7  A    between atoms: N_19  and  C_21
REMARK    8  A    between atoms: C_21  and  C_22
REMARK    9  A    between atoms: C_27  and  O_28
REMARK                            x       y       z     vdW  Elec       q    Type
REMARK                         _______ _______ _______ _____ _____    ______ ____
ROOT
ATOM      1  C   UNL     1      -2.307  -3.806   3.848  0.00  0.00    +0.141 C 
ENDROOT
BRANCH   1   7
ATOM      2  C   UNL     1      -0.143  -4.380   2.730  0.00  0.00    -0.059 A 
ATOM      3  C   UNL     1       1.161  -4.838   2.771  0.00  0.00    +0.002 A 
ATOM      4  C   UNL     1       1.718  -5.231   3.973  0.00  0.00    +0.000 A 
ATOM      5  C   UNL     1       0.971  -5.166   5.135  0.00  0.00    +0.000 A 
ATOM      6  C   UNL     1      -0.332  -4.708   5.094  0.00  0.00    +0.005 A 
ATOM      7  C   UNL     1      -0.888  -4.311   3.892  0.00  0.00    -0.029 A 
BRANCH   2   8
ATOM      8  C   UNL     1      -0.750  -3.952   1.419  0.00  0.00    -0.043 C 
BRANCH   8  13
ATOM      9  C   UNL     1      -0.019   1.526   0.010  0.00  0.00    +0.007 C 
ATOM     10  C   UNL     1       0.002  -0.004   0.002  0.00  0.00    -0.018 C 
ATOM     11  C   UNL     1      -1.434  -0.536   0.023  0.00  0.00    -0.016 C 
ATOM     12  C   UNL     1      -1.405  -2.064   0.095  0.00  0.00    -0.078 C 
ATOM     13  N   UNL     1      -0.707  -2.487   1.315  0.00  0.00    +0.382 N 
ATOM     14  C   UNL     1       0.691  -2.042   1.269  0.00  0.00    -0.078 C 
ATOM     15  C   UNL     1       0.743  -0.513   1.242  0.00  0.00    -0.016 C 
ATOM     16  H   UNL     1      -1.162  -2.082   2.119  0.00  0.00    -0.081 HD
ENDBRANCH   8  13
ENDBRANCH   2   8
ENDBRANCH   1   7
BRANCH   1  17
ATOM     17  N   UNL     1      -3.193  -4.878   3.388  0.00  0.00    -0.295 N 
ATOM     18  C   UNL     1      -4.517  -4.655   3.270  0.00  0.00    +0.303 C 
ATOM     19  O   UNL     1      -4.976  -3.563   3.545  0.00  0.00    -0.253 OA
ATOM     20  N   UNL     1      -5.332  -5.642   2.847  0.00  0.00    -0.284 N 
ATOM     21  C   UNL     1      -4.778  -6.957   2.515  0.00  0.00    +0.134 C 
ATOM     22  H   UNL     1      -2.827  -5.749   3.168  0.00  0.00    +0.151 HD
BRANCH  20  23
ATOM     23  C   UNL     1      -6.771  -5.399   2.719  0.00  0.00    +0.147 C 
BRANCH  23  24
ATOM     24  C   UNL     1      -7.074  -4.896   1.330  0.00  0.00    +0.011 A 
ATOM     25  C   UNL     1      -7.254  -3.545   1.108  0.00  0.00    +0.009 A 
ATOM     26  C   UNL     1      -7.533  -3.083  -0.165  0.00  0.00    +0.001 A 
ATOM     27  C   UNL     1      -7.630  -3.973  -1.219  0.00  0.00    +0.004 A 
ATOM     28  C   UNL     1      -7.450  -5.325  -1.002  0.00  0.00    +0.046 A 
ATOM     29  C   UNL     1      -7.165  -5.790   0.274  0.00  0.00    +0.122 A 
BRANCH  29  30
ATOM     30  O   UNL     1      -6.982  -7.119   0.488  0.00  0.00    -0.506 OA
ATOM     31  H   UNL     1      -7.794  -7.598   0.705  0.00  0.00    +0.292 HD
ENDBRANCH  29  30
ENDBRANCH  23  24
ENDBRANCH  20  23
ENDBRANCH   1  17
TORSDOF 7
