REMARK  Name = ZINC09673705
REMARK  8 active torsions:
REMARK  status: ('A' for Active; 'I' for Inactive)
REMARK    1  A    between atoms: C_1  and  C_2
REMARK    2  A    between atoms: C_2  and  C_3
REMARK    3  A    between atoms: C_2  and  C_4
REMARK    4  A    between atoms: C_4  and  C_5
REMARK    5  A    between atoms: C_5  and  N_6
REMARK    6  A    between atoms: C_7  and  C_9
REMARK    7  A    between atoms: C_13  and  N_15
REMARK    8  A    between atoms: C_22  and  C_31
REMARK                            x       y       z     vdW  Elec       q    Type
REMARK                         _______ _______ _______ _____ _____    ______ ____
ROOT
ATOM      1  N   UNL     1      -2.500   0.473  -1.691  0.00  0.00    -0.216 N 
ATOM      2  C   UNL     1      -1.186   0.642  -1.474  0.00  0.00    +0.310 C 
ATOM      3  O   UNL     1      -0.395   0.103  -2.222  0.00  0.00    -0.252 OA
ATOM      4  N   UNL     1      -0.714   1.387  -0.460  0.00  0.00    -0.292 N 
ATOM      5  C   UNL     1      -1.651   1.986   0.505  0.00  0.00    +0.114 C 
ATOM      6  C   UNL     1      -2.901   2.425  -0.275  0.00  0.00    +0.096 C 
ATOM      7  C   UNL     1      -3.511   1.156  -0.888  0.00  0.00    +0.185 C 
ATOM      8  O   UNL     1      -3.975   0.316   0.165  0.00  0.00    -0.468 OA
ATOM      9  C   UNL     1      -3.176   0.122   1.246  0.00  0.00    +0.128 A 
ATOM     10  C   UNL     1      -2.054   0.900   1.476  0.00  0.00    +0.016 A 
ATOM     11  C   UNL     1      -1.279   0.685   2.601  0.00  0.00    +0.024 A 
ATOM     12  C   UNL     1      -1.616  -0.313   3.497  0.00  0.00    +0.018 A 
ATOM     13  C   UNL     1      -2.731  -1.099   3.267  0.00  0.00    +0.019 A 
ATOM     14  C   UNL     1      -3.509  -0.884   2.147  0.00  0.00    +0.047 A 
ATOM     15 BR   UNL     1      -0.553  -0.604   5.034  0.00  0.00    -0.050 Br
ATOM     16  C   UNL     1      -4.688   1.541  -1.787  0.00  0.00    +0.079 C 
ATOM     17  H   UNL     1       0.241   1.528  -0.363  0.00  0.00    +0.151 HD
ENDROOT
BRANCH   1  22
ATOM     18  C   UNL     1      -3.393  -0.779  -5.041  0.00  0.00    +0.038 A 
ATOM     19  C   UNL     1      -3.736  -2.099  -4.740  0.00  0.00    +0.013 A 
ATOM     20  C   UNL     1      -3.665  -2.550  -3.438  0.00  0.00    +0.003 A 
ATOM     21  C   UNL     1      -3.256  -1.699  -2.427  0.00  0.00    +0.024 A 
ATOM     22  C   UNL     1      -2.913  -0.384  -2.717  0.00  0.00    +0.042 A 
ATOM     23  C   UNL     1      -2.985   0.080  -4.021  0.00  0.00    +0.036 A 
BRANCH  18  25
ATOM     24  N   UNL     1      -3.868  -1.125  -7.418  0.00  0.00    -0.311 N 
ATOM     25  C   UNL     1      -3.468  -0.293  -6.435  0.00  0.00    +0.244 C 
ATOM     26  O   UNL     1      -3.169   0.856  -6.695  0.00  0.00    -0.270 OA
ATOM     27  H   UNL     1      -4.106  -2.042  -7.211  0.00  0.00    +0.149 HD
BRANCH  24  28
ATOM     28  C   UNL     1      -3.942  -0.643  -8.800  0.00  0.00    +0.105 C 
BRANCH  28  29
ATOM     29  C   UNL     1      -4.419  -1.776  -9.710  0.00  0.00    +0.022 C 
BRANCH  29  31
ATOM     30  C   UNL     1      -3.092  -0.922 -11.646  0.00  0.00    +0.007 C 
ATOM     31  C   UNL     1      -4.497  -1.273 -11.153  0.00  0.00    -0.016 C 
ATOM     32  C   UNL     1      -5.092  -2.366 -12.043  0.00  0.00    +0.007 C 
ENDBRANCH  29  31
ENDBRANCH  28  29
ENDBRANCH  24  28
ENDBRANCH  18  25
ENDBRANCH   1  22
TORSDOF 5
