REMARK  Name = ZINC65181920
REMARK  10 active torsions:
REMARK  status: ('A' for Active; 'I' for Inactive)
REMARK    1  A    between atoms: C_1  and  N_2
REMARK    2  A    between atoms: N_2  and  C_3
REMARK    3  A    between atoms: C_3  and  C_4
REMARK    4  A    between atoms: C_4  and  C_5
REMARK    5  A    between atoms: C_8  and  C_11
REMARK    6  A    between atoms: C_17  and  O_21
REMARK    7  A    between atoms: O_21  and  C_22
REMARK    8  A    between atoms: C_23  and  C_25
REMARK    9  A    between atoms: C_30  and  O_31
REMARK   10  A    between atoms: O_31  and  C_32
REMARK                            x       y       z     vdW  Elec       q    Type
REMARK                         _______ _______ _______ _____ _____    ______ ____
ROOT
ATOM      1  C   UNL     1      -0.588  -1.510   3.284  0.00  0.00    +0.139 C 
ATOM      2  N   UNL     1       0.445  -2.205   3.598  0.00  0.00    -0.072 NA
ATOM      3  O   UNL     1       0.269  -2.837   4.852  0.00  0.00    -0.367 OA
ATOM      4  C   UNL     1      -1.034  -2.455   5.318  0.00  0.00    +0.318 C 
ATOM      5  N   UNL     1      -1.557  -1.579   4.257  0.00  0.00    -0.291 N 
ATOM      6  H   UNL     1      -2.420  -1.136   4.245  0.00  0.00    +0.151 HD
ENDROOT
BRANCH   4   7
ATOM      7  C   UNL     1      -1.924  -3.687   5.490  0.00  0.00    +0.165 C 
ATOM      8  C   UNL     1      -1.999  -4.462   4.193  0.00  0.00    +0.012 C 
ATOM      9  C   UNL     1      -1.493  -5.686   4.457  0.00  0.00    -0.004 A 
ATOM     10  C   UNL     1      -1.296  -6.879   3.623  0.00  0.00    +0.013 A 
ATOM     11  C   UNL     1      -0.754  -7.985   4.177  0.00  0.00    +0.046 A 
ATOM     12  C   UNL     1      -0.376  -8.022   5.533  0.00  0.00    +0.122 A 
ATOM     13  C   UNL     1      -0.529  -6.959   6.362  0.00  0.00    +0.071 A 
ATOM     14  C   UNL     1      -1.087  -5.749   5.880  0.00  0.00    +0.046 A 
ATOM     15  N   UNL     1      -1.335  -4.603   6.474  0.00  0.00    -0.373 N 
ATOM     16  H   UNL     1      -1.158  -4.396   7.405  0.00  0.00    +0.160 HD
BRANCH  12  17
ATOM     17  O   UNL     1       0.163  -9.164   6.029  0.00  0.00    -0.495 OA
ATOM     18  C   UNL     1       0.307 -10.260   5.123  0.00  0.00    +0.277 C 
ENDBRANCH  12  17
ENDBRANCH   4   7
BRANCH   1  19
ATOM     19  C   UNL     1      -0.718  -0.714   2.011  0.00  0.00    +0.094 C 
BRANCH  19  20
ATOM     20  C   UNL     1       0.553  -0.876   1.175  0.00  0.00    +0.115 C 
BRANCH  20  22
ATOM     21  C   UNL     1       0.871   1.293  -0.102  0.00  0.00    +0.132 C 
ATOM     22  N   UNL     1       0.425  -0.102  -0.062  0.00  0.00    -0.300 N 
ATOM     23  C   UNL     1      -0.102  -0.673  -1.163  0.00  0.00    +0.250 C 
ATOM     24  O   UNL     1      -0.559  -1.798  -1.105  0.00  0.00    -0.270 OA
BRANCH  23  25
ATOM     25  C   UNL     1      -0.124   0.067  -2.439  0.00  0.00    +0.079 A 
ATOM     26  C   UNL     1       0.998   0.792  -2.850  0.00  0.00    +0.018 A 
ATOM     27  C   UNL     1       0.971   1.481  -4.042  0.00  0.00    +0.021 A 
ATOM     28  C   UNL     1      -0.165   1.459  -4.838  0.00  0.00    +0.044 A 
ATOM     29  C   UNL     1      -1.281   0.745  -4.443  0.00  0.00    +0.066 A 
ATOM     30  C   UNL     1      -1.268   0.042  -3.248  0.00  0.00    +0.134 A 
ATOM     31 CL   UNL     1      -0.185   2.332  -6.338  0.00  0.00    -0.083 Cl
BRANCH  30  32
ATOM     32  O   UNL     1      -2.361  -0.664  -2.862  0.00  0.00    -0.494 OA
ATOM     33  C   UNL     1      -3.489  -0.643  -3.738  0.00  0.00    +0.277 C 
ENDBRANCH  30  32
ENDBRANCH  23  25
ENDBRANCH  20  22
ENDBRANCH  19  20
ENDBRANCH   1  19
TORSDOF 7
