REMARK  Name = ZINC04217017
REMARK  6 active torsions:
REMARK  status: ('A' for Active; 'I' for Inactive)
REMARK    1  A    between atoms: N_7  and  C1*_10
REMARK    2  A    between atoms: C2*_12  and  O2*_22
REMARK    3  A    between atoms: C3*_14  and  O3*_21
REMARK    4  A    between atoms: C4*_16  and  C5*_19
REMARK    5  A    between atoms: C5*_19  and  O5*_20
REMARK    6  A    between atoms: N_23  and  C_24
REMARK                            x       y       z     vdW  Elec       q    Type
REMARK                         _______ _______ _______ _____ _____    ______ ____
ROOT
ATOM      1  C   UNL     1      -0.016   1.312   0.009  0.00  0.00    +0.225 A 
ATOM      2  N   UNL     1       1.089   2.036   0.003  0.00  0.00    -0.219 NA
ATOM      3  C   UNL     1       2.288   1.462  -0.012  0.00  0.00    +0.150 A 
ATOM      4  C   UNL     1       2.358   0.059  -0.020  0.00  0.00    +0.147 A 
ATOM      5  C   UNL     1       1.155  -0.666  -0.013  0.00  0.00    +0.167 A 
ATOM      6  N   UNL     1       0.002  -0.004   0.002  0.00  0.00    -0.216 NA
ATOM      7  N   UNL     1       1.511  -1.991  -0.023  0.00  0.00    -0.286 N 
ATOM      8  C   UNL     1       2.873  -2.048  -0.036  0.00  0.00    +0.203 A 
ATOM      9  N   UNL     1       3.368  -0.844  -0.034  0.00  0.00    -0.231 NA
ATOM     10  N   UNL     1       3.439   2.229  -0.019  0.00  0.00    -0.324 N 
ATOM     11  H   UNL     1       4.309   1.799  -0.030  0.00  0.00    +0.148 HD
ENDROOT
BRANCH  10  12
ATOM     12  C   UNL     1       3.346   3.692  -0.011  0.00  0.00    +0.072 C 
ATOM     13  C   UNL     1       3.202   4.185   1.430  0.00  0.00    +0.022 C 
ATOM     14  C   UNL     1       3.104   5.712   1.439  0.00  0.00    +0.002 C 
ATOM     15  C   UNL     1       4.370   6.308   0.820  0.00  0.00    +0.000 C 
ATOM     16  C   UNL     1       4.514   5.814  -0.621  0.00  0.00    +0.002 C 
ATOM     17  C   UNL     1       4.612   4.287  -0.630  0.00  0.00    +0.022 C 
ENDBRANCH  10  12
BRANCH   7  18
ATOM     18  C1* UNL     1       0.596  -3.135  -0.019  0.00  0.00    +0.253 C 
ATOM     19  C2* UNL     1       0.177  -3.493  -1.463  0.00  0.00    +0.195 C 
ATOM     20  C3* UNL     1       0.106  -5.036  -1.461  0.00  0.00    +0.178 C 
ATOM     21  C4* UNL     1       0.489  -5.428  -0.017  0.00  0.00    +0.177 C 
ATOM     22  O4* UNL     1       1.266  -4.314   0.476  0.00  0.00    -0.346 OA
BRANCH  20  23
ATOM     23  O3* UNL     1      -1.219  -5.476  -1.767  0.00  0.00    -0.386 OA
ATOM     24  H3* UNL     1      -1.321  -6.438  -1.779  0.00  0.00    +0.210 HD
ENDBRANCH  20  23
BRANCH  19  25
ATOM     25  O2* UNL     1      -1.100  -2.930  -1.768  0.00  0.00    -0.385 OA
ATOM     26  H2* UNL     1      -1.411  -3.124  -2.663  0.00  0.00    +0.210 HD
ENDBRANCH  19  25
BRANCH  21  27
ATOM     27  C5* UNL     1       1.327  -6.708  -0.016  0.00  0.00    +0.190 C 
BRANCH  27  28
ATOM     28  O5* UNL     1       1.572  -7.117   1.331  0.00  0.00    -0.392 OA
ATOM     29  H5* UNL     1       2.100  -7.923   1.407  0.00  0.00    +0.210 HD
ENDBRANCH  27  28
ENDBRANCH  21  27
ENDBRANCH   7  18
TORSDOF 6
