REMARK  Name = ZINC33904294
REMARK  8 active torsions:
REMARK  status: ('A' for Active; 'I' for Inactive)
REMARK    1  A    between atoms: C_1  and  C_2
REMARK    2  A    between atoms: N_8  and  C_9
REMARK    3  A    between atoms: C_9  and  C_10
REMARK    4  A    between atoms: C_11  and  C_21
REMARK    5  A    between atoms: N_23  and  N_24
REMARK    6  A    between atoms: C_25  and  C_26
REMARK    7  A    between atoms: C_31  and  O_38
REMARK    8  A    between atoms: O_38  and  C_39
REMARK                            x       y       z     vdW  Elec       q    Type
REMARK                         _______ _______ _______ _____ _____    ______ ____
ROOT
ATOM      1  C   UNL     1       2.608  -0.401   2.541  0.00  0.00    +0.063 A 
ATOM      2  C   UNL     1       2.604   0.291   3.719  0.00  0.00    +0.170 A 
ATOM      3  N   UNL     1       3.309  -0.409   4.626  0.00  0.00    -0.124 NA
ATOM      4  N   UNL     1       3.751  -1.491   4.087  0.00  0.00    -0.058 NA
ATOM      5  N   UNL     1       3.321  -1.529   2.753  0.00  0.00    -0.194 N 
ATOM      6  C   UNL     1       3.582  -2.539   1.820  0.00  0.00    +0.240 A 
ATOM      7  C   UNL     1       4.354  -3.760   2.071  0.00  0.00    +0.206 A 
ATOM      8  N   UNL     1       4.384  -4.460   0.971  0.00  0.00    -0.032 NA
ATOM      9  O   UNL     1       3.656  -3.749  -0.015  0.00  0.00    -0.239 OA
ATOM     10  N   UNL     1       3.177  -2.557   0.582  0.00  0.00    -0.027 NA
ATOM     11  N   UNL     1       4.952  -4.112   3.276  0.00  0.00    -0.337 N 
ATOM     12  H   UNL     1       4.876  -3.525   4.045  0.00  0.00    +0.144 HD
ATOM     13  H   UNL     1       5.444  -4.944   3.348  0.00  0.00    +0.144 HD
ENDROOT
BRANCH   2  14
ATOM     14  C   UNL     1       1.940   1.586   3.957  0.00  0.00    +0.285 C 
ATOM     15  O   UNL     1       1.328   2.129   3.057  0.00  0.00    -0.267 OA
ATOM     16  N   UNL     1       2.010   2.167   5.170  0.00  0.00    -0.202 N 
ATOM     17  H   UNL     1       2.498   1.734   5.888  0.00  0.00    +0.178 HD
BRANCH  16  18
ATOM     18  N   UNL     1       1.379   3.397   5.396  0.00  0.00    -0.192 NA
ATOM     19  C   UNL     1       1.371   3.907   6.570  0.00  0.00    +0.107 C 
BRANCH  19  20
ATOM     20  C   UNL     1       2.158   3.257   7.679  0.00  0.00    +0.043 C 
ATOM     21  C   UNL     1       1.198   2.714   8.734  0.00  0.00    +0.045 C 
ATOM     22  C   UNL     1       1.944   2.175   9.924  0.00  0.00    -0.033 A 
ATOM     23  C   UNL     1       1.327   1.248  10.739  0.00  0.00    +0.050 A 
ATOM     24  C   UNL     1       1.995   0.739  11.847  0.00  0.00    +0.120 A 
ATOM     25  C   UNL     1       3.288   1.159  12.142  0.00  0.00    +0.046 A 
ATOM     26  C   UNL     1       3.909   2.075  11.342  0.00  0.00    +0.015 A 
ATOM     27  C   UNL     1       3.244   2.591  10.223  0.00  0.00    +0.021 A 
ATOM     28  C   UNL     1       3.924   3.571   9.359  0.00  0.00    +0.164 C 
ATOM     29  O   UNL     1       5.111   3.792   9.473  0.00  0.00    -0.292 OA
ATOM     30  C   UNL     1       3.088   4.294   8.322  0.00  0.00    +0.089 C 
BRANCH  24  31
ATOM     31  O   UNL     1       1.383  -0.172  12.644  0.00  0.00    -0.495 OA
ATOM     32  C   UNL     1       2.125  -0.655  13.765  0.00  0.00    +0.277 C 
ENDBRANCH  24  31
ENDBRANCH  19  20
ENDBRANCH  16  18
ENDBRANCH   2  14
BRANCH   1  33
ATOM     33  C   UNL     1       1.941   0.012   1.254  0.00  0.00    -0.019 C 
BRANCH  33  40
ATOM     34  C   UNL     1      -0.083   1.521   0.025  0.00  0.00    -0.013 C 
ATOM     35  C   UNL     1      -0.119  -0.009   0.029  0.00  0.00    -0.071 C 
ATOM     36  C   UNL     1      -1.573  -0.484   0.035  0.00  0.00    -0.016 C 
ATOM     37  C   UNL     1      -1.604  -2.015   0.039  0.00  0.00    -0.003 C 
ATOM     38  C   UNL     1      -0.820  -2.529   1.250  0.00  0.00    -0.019 C 
ATOM     39  C   UNL     1       0.607  -1.978   1.199  0.00  0.00    -0.078 C 
ATOM     40  N   UNL     1       0.569  -0.510   1.225  0.00  0.00    +0.385 N 
ATOM     41  H   UNL     1       0.075  -0.202   2.049  0.00  0.00    -0.081 HD
ENDBRANCH  33  40
ENDBRANCH   1  33
TORSDOF 6
