REMARK  Name = ZINC31054855
REMARK  5 active torsions:
REMARK  status: ('A' for Active; 'I' for Inactive)
REMARK    1  A    between atoms: C_6  and  N_7
REMARK    2  A    between atoms: C_13  and  C_15
REMARK    3  A    between atoms: N_20  and  C_22
REMARK    4  A    between atoms: C_22  and  C_23
REMARK    5  A    between atoms: C_25  and  C_28
REMARK                            x       y       z     vdW  Elec       q    Type
REMARK                         _______ _______ _______ _____ _____    ______ ____
ROOT
ATOM      1  C   UNL     1      -1.664   1.236   3.470  0.00  0.00    +0.059 C 
ATOM      2  C   UNL     1      -0.742   2.295   4.080  0.00  0.00    +0.009 C 
ATOM      3  C   UNL     1      -1.339   2.780   5.404  0.00  0.00    -0.018 C 
ATOM      4  C   UNL     1      -1.525   1.586   6.342  0.00  0.00    -0.078 C 
ATOM      5  N   UNL     1      -2.416   0.602   5.714  0.00  0.00    +0.386 N 
ATOM      6  C   UNL     1      -1.840   0.086   4.465  0.00  0.00    -0.065 C 
ATOM      7  H   UNL     1      -3.357   1.113   5.463  0.00  0.00    -0.081 HD
ENDROOT
BRANCH   1  14
ATOM      8  N   UNL     1      -2.287   2.149  -1.413  0.00  0.00    -0.327 N 
ATOM      9  C   UNL     1      -1.578   0.867  -1.310  0.00  0.00    +0.124 C 
ATOM     10  C   UNL     1      -0.537   0.951  -0.189  0.00  0.00    +0.126 C 
ATOM     11  N   UNL     1      -1.207   1.392   1.044  0.00  0.00    -0.298 N 
ATOM     12  C   UNL     1      -2.053   2.594   0.984  0.00  0.00    +0.126 C 
ATOM     13  C   UNL     1      -3.035   2.445  -0.183  0.00  0.00    +0.124 C 
ATOM     14  C   UNL     1      -1.054   0.710   2.197  0.00  0.00    +0.217 C 
ATOM     15  O   UNL     1      -0.424  -0.326   2.209  0.00  0.00    -0.275 OA
BRANCH   8  21
ATOM     16  C   UNL     1      -3.202   1.061  -3.364  0.00  0.00    +0.026 A 
ATOM     17  C   UNL     1      -4.038   1.080  -4.463  0.00  0.00    +0.040 A 
ATOM     18  C   UNL     1      -4.798   2.204  -4.737  0.00  0.00    +0.124 A 
ATOM     19  C   UNL     1      -4.724   3.311  -3.908  0.00  0.00    +0.040 A 
ATOM     20  C   UNL     1      -3.893   3.295  -2.805  0.00  0.00    +0.026 A 
ATOM     21  C   UNL     1      -3.130   2.168  -2.528  0.00  0.00    +0.030 A 
ATOM     22  F   UNL     1      -5.612   2.223  -5.815  0.00  0.00    -0.205 F 
ENDBRANCH   8  21
ENDBRANCH   1  14
BRANCH   5  23
ATOM     23  C   UNL     1      -2.727  -0.494   6.641  0.00  0.00    +0.022 C 
BRANCH  23  24
ATOM     24  C   UNL     1      -3.539   0.039   7.794  0.00  0.00    +0.211 A 
ATOM     25  N   UNL     1      -4.845   0.121   7.854  0.00  0.00    -0.193 NA
ATOM     26  C   UNL     1      -5.120   0.654   9.066  0.00  0.00    +0.203 A 
ATOM     27  N   UNL     1      -3.975   0.871   9.661  0.00  0.00    -0.056 NA
ATOM     28  O   UNL     1      -3.061   0.523   8.945  0.00  0.00    -0.340 OA
BRANCH  26  29
ATOM     29  C   UNL     1      -6.467   0.945   9.615  0.00  0.00    +0.041 A 
ATOM     30  C   UNL     1      -6.599   1.504  10.884  0.00  0.00    +0.014 A 
ATOM     31  C   UNL     1      -7.854   1.773  11.391  0.00  0.00    +0.021 A 
ATOM     32  C   UNL     1      -8.982   1.489  10.639  0.00  0.00    +0.042 A 
ATOM     33  C   UNL     1      -8.858   0.934   9.378  0.00  0.00    +0.040 A 
ATOM     34  C   UNL     1      -7.606   0.666   8.859  0.00  0.00    +0.053 A 
ATOM     35 CL   UNL     1      -7.450  -0.023   7.274  0.00  0.00    -0.083 Cl
ATOM     36 CL   UNL     1     -10.558   1.830  11.282  0.00  0.00    -0.083 Cl
ENDBRANCH  26  29
ENDBRANCH  23  24
ENDBRANCH   5  23
TORSDOF 5
