REMARK  Name = ZINC08072092
REMARK  12 active torsions:
REMARK  status: ('A' for Active; 'I' for Inactive)
REMARK    1  A    between atoms: C_1  and  C_2
REMARK    2  A    between atoms: C_2  and  C_4
REMARK    3  A    between atoms: C_2  and  N_14
REMARK    4  A    between atoms: C_15  and  C_17
REMARK    5  A    between atoms: C_17  and  C_18
REMARK    6  A    between atoms: C_17  and  C_19
REMARK    7  A    between atoms: C_17  and  O_20
REMARK    8  A    between atoms: O_20  and  C_21
REMARK    9  A    between atoms: C_24  and  C_27
REMARK   10  A    between atoms: C_27  and  C_28
REMARK   11  A    between atoms: C_27  and  C_29
REMARK   12  A    between atoms: C_27  and  C_30
REMARK                            x       y       z     vdW  Elec       q    Type
REMARK                         _______ _______ _______ _____ _____    ______ ____
ROOT
ATOM      1  N   UNL     1       1.522  -0.467   1.437  0.00  0.00    -0.309 N 
ATOM      2  C   UNL     1       0.563  -0.615   2.372  0.00  0.00    +0.257 C 
ATOM      3  O   UNL     1      -0.594  -0.381   2.096  0.00  0.00    -0.271 OA
ATOM      4  H   UNL     1       2.448  -0.654   1.658  0.00  0.00    +0.149 HD
ENDROOT
BRANCH   2   5
ATOM      5  C   UNL     1       0.929  -1.070   3.761  0.00  0.00    +0.180 C 
ATOM      6  C   UNL     1       1.589  -2.448   3.689  0.00  0.00    +0.065 C 
ATOM      7  C   UNL     1       1.903  -0.069   4.386  0.00  0.00    +0.065 C 
BRANCH   5   8
ATOM      8  O   UNL     1      -0.251  -1.148   4.563  0.00  0.00    -0.477 OA
BRANCH   8   9
ATOM      9  C   UNL     1      -0.951   0.002   4.747  0.00  0.00    +0.122 A 
ATOM     10  C   UNL     1      -0.585   1.154   4.065  0.00  0.00    +0.046 A 
ATOM     11  C   UNL     1      -1.297   2.322   4.253  0.00  0.00    +0.008 A 
ATOM     12  C   UNL     1      -2.374   2.345   5.119  0.00  0.00    -0.042 A 
ATOM     13  C   UNL     1      -2.741   1.198   5.800  0.00  0.00    +0.008 A 
ATOM     14  C   UNL     1      -2.035   0.026   5.611  0.00  0.00    +0.046 A 
BRANCH  12  15
ATOM     15  C   UNL     1      -3.150   3.621   5.323  0.00  0.00    -0.013 C 
ATOM     16  C   UNL     1      -3.740   4.078   3.987  0.00  0.00    +0.015 C 
ATOM     17  C   UNL     1      -4.282   3.376   6.323  0.00  0.00    +0.015 C 
ATOM     18  C   UNL     1      -2.216   4.704   5.865  0.00  0.00    +0.015 C 
ENDBRANCH  12  15
ENDBRANCH   8   9
ENDBRANCH   5   8
ENDBRANCH   2   5
BRANCH   1  20
ATOM     19  C   UNL     1       1.103   1.503   0.051  0.00  0.00    +0.028 C 
ATOM     20  C   UNL     1       1.167  -0.025   0.086  0.00  0.00    +0.076 C 
BRANCH  20  21
ATOM     21  C   UNL     1       2.224  -0.515  -0.905  0.00  0.00    -0.010 C 
ATOM     22  C   UNL     1       2.288  -2.043  -0.870  0.00  0.00    +0.012 C 
ATOM     23  C   UNL     1       3.345  -2.532  -1.861  0.00  0.00    -0.010 C 
ATOM     24  C   UNL     1       2.974  -2.070  -3.272  0.00  0.00    +0.007 C 
ATOM     25  C   UNL     1       2.910  -0.542  -3.308  0.00  0.00    -0.010 C 
ATOM     26  C   UNL     1       1.853  -0.053  -2.316  0.00  0.00    +0.012 C 
ATOM     27  C   UNL     1       4.274   0.035  -2.925  0.00  0.00    +0.007 C 
ATOM     28  C   UNL     1       4.646  -0.427  -1.514  0.00  0.00    -0.010 C 
ATOM     29  C   UNL     1       4.710  -1.956  -1.478  0.00  0.00    +0.007 C 
ATOM     30  C   UNL     1       3.588   0.062  -0.522  0.00  0.00    +0.012 C 
ENDBRANCH  20  21
ENDBRANCH   1  20
TORSDOF 6
