REMARK  Name = ZINC64870329
REMARK  6 active torsions:
REMARK  status: ('A' for Active; 'I' for Inactive)
REMARK    1  A    between atoms: C_1  and  O_2
REMARK    2  A    between atoms: O_2  and  C_3
REMARK    3  A    between atoms: C_7  and  C_9
REMARK    4  A    between atoms: C_9  and  N_10
REMARK    5  A    between atoms: C_16  and  C_23
REMARK    6  A    between atoms: C_26  and  C_30
REMARK                            x       y       z     vdW  Elec       q    Type
REMARK                         _______ _______ _______ _____ _____    ______ ____
ROOT
ATOM      1  N   UNL     1      -2.570  -4.536  -1.409  0.00  0.00    -0.256 N 
ATOM      2  C   UNL     1      -3.758  -4.823  -1.985  0.00  0.00    +0.265 A 
ATOM      3  O   UNL     1      -4.799  -4.677  -1.374  0.00  0.00    -0.267 OA
ATOM      4  C   UNL     1      -3.759  -5.316  -3.374  0.00  0.00    +0.063 A 
ATOM      5  C   UNL     1      -4.942  -5.633  -4.037  0.00  0.00    +0.016 A 
ATOM      6  C   UNL     1      -4.890  -6.092  -5.337  0.00  0.00    +0.008 A 
ATOM      7  C   UNL     1      -3.671  -6.237  -5.982  0.00  0.00    -0.000 A 
ATOM      8  C   UNL     1      -2.491  -5.927  -5.335  0.00  0.00    +0.034 A 
ATOM      9  C   UNL     1      -2.524  -5.464  -4.028  0.00  0.00    +0.056 A 
ATOM     10  N   UNL     1      -1.362  -5.140  -3.343  0.00  0.00    -0.307 N 
ATOM     11  H   UNL     1      -0.503  -5.237  -3.782  0.00  0.00    +0.170 HD
ATOM     12  C   UNL     1      -1.417  -4.689  -2.078  0.00  0.00    +0.330 A 
ATOM     13  O   UNL     1      -0.376  -4.412  -1.514  0.00  0.00    -0.246 OA
ENDROOT
BRANCH   7  14
ATOM     14  C   UNL     1      -3.633  -6.740  -7.402  0.00  0.00    +0.242 C 
ATOM     15  N   UNL     1      -2.732  -7.910  -7.498  0.00  0.00    -0.265 NA
ATOM     16  C   UNL     1      -2.057  -7.739  -8.812  0.00  0.00    +0.180 C 
ATOM     17  N   UNL     1      -1.884  -6.264  -8.888  0.00  0.00    -0.177 NA
ATOM     18  O   UNL     1      -3.109  -5.722  -8.267  0.00  0.00    -0.274 OA
ATOM     19  H   UNL     1      -2.061  -7.912  -6.744  0.00  0.00    +0.127 HD
ATOM     20  H   UNL     1      -1.800  -5.958  -9.847  0.00  0.00    +0.156 HD
BRANCH  16  21
ATOM     21  C   UNL     1      -0.724  -8.441  -8.826  0.00  0.00    -0.014 A 
ATOM     22  C   UNL     1      -0.532  -9.576  -8.061  0.00  0.00    +0.008 A 
ATOM     23  C   UNL     1       0.690 -10.221  -8.073  0.00  0.00    +0.020 A 
ATOM     24  C   UNL     1       1.723  -9.730  -8.852  0.00  0.00    +0.041 A 
ATOM     25  C   UNL     1       1.531  -8.594  -9.618  0.00  0.00    +0.020 A 
ATOM     26  C   UNL     1       0.306  -7.954  -9.609  0.00  0.00    +0.008 A 
ATOM     27 CL   UNL     1       3.259 -10.539  -8.867  0.00  0.00    -0.084 Cl
ENDBRANCH  16  21
ENDBRANCH   7  14
BRANCH   1  28
ATOM     28  C   UNL     1      -2.541  -4.043  -0.030  0.00  0.00    +0.165 C 
BRANCH  28  33
ATOM     29  C   UNL     1      -1.559  -0.395  -0.085  0.00  0.00    +0.120 A 
ATOM     30  C   UNL     1      -2.799   0.224  -0.035  0.00  0.00    +0.045 A 
ATOM     31  C   UNL     1      -3.949  -0.539   0.016  0.00  0.00    +0.004 A 
ATOM     32  C   UNL     1      -3.865  -1.919   0.017  0.00  0.00    +0.005 A 
ATOM     33  C   UNL     1      -2.630  -2.539  -0.032  0.00  0.00    -0.024 A 
ATOM     34  C   UNL     1      -1.477  -1.780  -0.089  0.00  0.00    +0.051 A 
BRANCH  29  36
ATOM     35  C   UNL     1      -0.586   1.774  -0.129  0.00  0.00    +0.277 C 
ATOM     36  O   UNL     1      -0.426   0.354  -0.136  0.00  0.00    -0.495 OA
ENDBRANCH  29  36
ENDBRANCH  28  33
ENDBRANCH   1  28
TORSDOF 5
