REMARK  Name = ZINC17878394
REMARK  4 active torsions:
REMARK  status: ('A' for Active; 'I' for Inactive)
REMARK    1  A    between atoms: C_4  and  C_7
REMARK    2  A    between atoms: C_7  and  N_8
REMARK    3  A    between atoms: C_15  and  C_18
REMARK    4  A    between atoms: C_15  and  O_26
REMARK                            x       y       z     vdW  Elec       q    Type
REMARK                         _______ _______ _______ _____ _____    ______ ____
ROOT
ATOM      1  N   UNL     1       4.152  -0.952   1.338  0.00  0.00    -0.264 N 
ATOM      2  C   UNL     1       4.947  -0.069   2.069  0.00  0.00    +0.043 A 
ATOM      3  C   UNL     1       5.488   1.168   1.725  0.00  0.00    +0.024 A 
ATOM      4  C   UNL     1       6.255   1.866   2.635  0.00  0.00    +0.002 A 
ATOM      5  C   UNL     1       6.493   1.345   3.893  0.00  0.00    +0.000 A 
ATOM      6  C   UNL     1       5.959   0.117   4.243  0.00  0.00    +0.009 A 
ATOM      7  C   UNL     1       5.193  -0.581   3.336  0.00  0.00    +0.016 A 
ATOM      8  C   UNL     1       4.483  -1.914   3.402  0.00  0.00    +0.189 C 
ATOM      9  C   UNL     1       3.832  -2.051   2.042  0.00  0.00    +0.258 C 
ATOM     10  O   UNL     1       3.151  -2.979   1.660  0.00  0.00    -0.272 OA
ENDROOT
BRANCH   8  11
ATOM     11  C   UNL     1       3.420  -1.901   4.502  0.00  0.00    +0.187 C 
ATOM     12  C   UNL     1       2.618  -3.198   4.517  0.00  0.00    +0.255 C 
ATOM     13  O   UNL     1       3.106  -4.288   4.739  0.00  0.00    -0.272 OA
ATOM     14  N   UNL     1       1.347  -3.010   4.266  0.00  0.00    -0.159 NA
ATOM     15  C   UNL     1       0.804  -1.831   4.023  0.00  0.00    +0.145 C 
ATOM     16  S   UNL     1       2.065  -0.718   4.114  0.00  0.00    -0.077 S 
ATOM     17  N   UNL     1      -0.507  -1.569   3.755  0.00  0.00    -0.340 N 
ATOM     18  H   UNL     1      -1.151  -2.294   3.729  0.00  0.00    +0.144 HD
ATOM     19  H   UNL     1      -0.795  -0.658   3.591  0.00  0.00    +0.144 HD
ENDBRANCH   8  11
BRANCH   8  20
ATOM     20  O   UNL     1       5.420  -2.970   3.622  0.00  0.00    -0.373 OA
ATOM     21  H   UNL     1       6.099  -3.043   2.937  0.00  0.00    +0.211 HD
ENDBRANCH   8  20
BRANCH   1  22
ATOM     22  C   UNL     1       3.711  -0.707  -0.038  0.00  0.00    +0.148 C 
BRANCH  22  26
ATOM     23  C   UNL     1      -0.017   1.378   0.010  0.00  0.00    +0.000 A 
ATOM     24  C   UNL     1       1.171   2.086   0.002  0.00  0.00    +0.000 A 
ATOM     25  C   UNL     1       2.377   1.411  -0.013  0.00  0.00    +0.005 A 
ATOM     26  C   UNL     1       2.396   0.029  -0.020  0.00  0.00    -0.030 A 
ATOM     27  C   UNL     1       1.208  -0.679  -0.012  0.00  0.00    +0.005 A 
ATOM     28  C   UNL     1       0.002  -0.004   0.002  0.00  0.00    +0.000 A 
ENDBRANCH  22  26
ENDBRANCH   1  22
TORSDOF 4
