REMARK  Name = ZINC20752202
REMARK  8 active torsions:
REMARK  status: ('A' for Active; 'I' for Inactive)
REMARK    1  A    between atoms: C_1  and  C_2
REMARK    2  A    between atoms: C_2  and  C_3
REMARK    3  A    between atoms: C_3  and  C_5
REMARK    4  A    between atoms: C_3  and  N_6
REMARK    5  A    between atoms: N_6  and  S_7
REMARK    6  A    between atoms: S_7  and  C_10
REMARK    7  A    between atoms: C_23  and  C_26
REMARK    8  A    between atoms: C_35  and  O_36
REMARK                            x       y       z     vdW  Elec       q    Type
REMARK                         _______ _______ _______ _____ _____    ______ ____
ROOT
ATOM      1  C   UNL     1      -0.660   2.429  -1.583  0.00  0.00    +0.106 A 
ATOM      2  C   UNL     1      -0.576   3.640  -2.247  0.00  0.00    +0.030 A 
ATOM      3  C   UNL     1      -1.404   3.889  -3.322  0.00  0.00    +0.025 A 
ATOM      4  C   UNL     1      -2.318   2.926  -3.733  0.00  0.00    +0.031 A 
ATOM      5  C   UNL     1      -2.407   1.715  -3.072  0.00  0.00    -0.018 A 
ATOM      6  C   UNL     1      -1.564   1.471  -1.995  0.00  0.00    +0.034 A 
ATOM      7  C   UNL     1      -3.379   0.636  -3.467  0.00  0.00    +0.049 C 
ATOM      8  C   UNL     1      -4.279   0.371  -2.268  0.00  0.00    -0.023 C 
ATOM      9  C   UNL     1      -5.398   1.043  -2.378  0.00  0.00    -0.030 C 
ATOM     10  C   UNL     1      -5.409   1.848  -3.666  0.00  0.00    +0.033 C 
ATOM     11  C   UNL     1      -4.372   1.108  -4.544  0.00  0.00    +0.029 C 
ATOM     12  C   UNL     1      -3.730   2.053  -5.542  0.00  0.00    +0.109 C 
ATOM     13  N   UNL     1      -3.147   3.196  -4.829  0.00  0.00    -0.336 N 
ATOM     14  H   UNL     1      -3.367   4.221  -5.160  0.00  0.00    +0.147 HD
ENDROOT
BRANCH  12  15
ATOM     15  C   UNL     1      -2.646   1.327  -6.296  0.00  0.00    +0.022 A 
ATOM     16  C   UNL     1      -1.674   2.050  -7.006  0.00  0.00    -0.009 A 
ATOM     17  C   UNL     1      -1.685   3.455  -7.033  0.00  0.00    +0.009 A 
ATOM     18  C   UNL     1      -0.727   4.123  -7.732  0.00  0.00    +0.001 A 
ATOM     19  C   UNL     1       0.267   3.435  -8.424  0.00  0.00    +0.001 A 
ATOM     20  C   UNL     1       0.316   2.074  -8.412  0.00  0.00    +0.008 A 
ATOM     21  C   UNL     1      -0.659   1.350  -7.706  0.00  0.00    -0.017 A 
ATOM     22  C   UNL     1      -0.650  -0.056  -7.687  0.00  0.00    +0.012 A 
ATOM     23  C   UNL     1      -1.609  -0.727  -6.994  0.00  0.00    +0.046 A 
ATOM     24  C   UNL     1      -2.608  -0.038  -6.298  0.00  0.00    +0.122 A 
BRANCH  24  25
ATOM     25  O   UNL     1      -3.552  -0.737  -5.614  0.00  0.00    -0.506 OA
ATOM     26  H   UNL     1      -3.528  -1.836  -5.611  0.00  0.00    +0.292 HD
ENDBRANCH  24  25
ENDBRANCH  12  15
BRANCH   1  27
ATOM     27  S   UNL     1       0.397   2.105  -0.211  0.00  0.00    +0.059 S 
ATOM     28  O   UNL     1       0.501   0.692  -0.103  0.00  0.00    -0.153 OA
ATOM     29  O   UNL     1       1.533   2.943  -0.367  0.00  0.00    -0.153 OA
BRANCH  27  30
ATOM     30  N   UNL     1      -0.393   2.626   1.148  0.00  0.00    -0.187 NA
ATOM     31  H   UNL     1      -0.071   3.561   1.631  0.00  0.00    +0.148 HD
BRANCH  30  32
ATOM     32  C   UNL     1      -1.634   1.973   1.571  0.00  0.00    +0.073 C 
ATOM     33  C   UNL     1      -2.832   2.750   1.020  0.00  0.00    +0.025 C 
BRANCH  32  35
ATOM     34  C   UNL     1      -0.576   1.065   3.644  0.00  0.00    +0.005 C 
ATOM     35  C   UNL     1      -1.702   1.946   3.099  0.00  0.00    +0.017 C 
ENDBRANCH  32  35
ENDBRANCH  30  32
ENDBRANCH  27  30
ENDBRANCH   1  27
TORSDOF 6
