REMARK  Name = ZINC55881653
REMARK  8 active torsions:
REMARK  status: ('A' for Active; 'I' for Inactive)
REMARK    1  A    between atoms: C_1  and  C_2
REMARK    2  A    between atoms: C_2  and  N_3
REMARK    3  A    between atoms: C_4  and  C_6
REMARK    4  A    between atoms: C_9  and  N_13
REMARK    5  A    between atoms: C_10  and  C_12
REMARK    6  A    between atoms: N_13  and  C_14
REMARK    7  A    between atoms: C_14  and  C_15
REMARK    8  A    between atoms: C_26  and  C_28
REMARK                            x       y       z     vdW  Elec       q    Type
REMARK                         _______ _______ _______ _____ _____    ______ ____
ROOT
ATOM      1  N   UNL     1      -6.989  -3.940  -0.039  0.00  0.00    -0.335 N 
ATOM      2  H   UNL     1      -7.179  -4.879   0.116  0.00  0.00    +0.147 HD
ENDROOT
BRANCH   1   6
ATOM      3  C   UNL     1      -3.113  -2.722  -0.942  0.00  0.00    +0.037 A 
ATOM      4  C   UNL     1      -4.143  -1.780  -0.861  0.00  0.00    +0.015 A 
ATOM      5  C   UNL     1      -5.423  -2.186  -0.562  0.00  0.00    +0.024 A 
ATOM      6  C   UNL     1      -5.694  -3.533  -0.341  0.00  0.00    +0.030 A 
ATOM      7  C   UNL     1      -4.671  -4.474  -0.421  0.00  0.00    -0.029 A 
ATOM      8  C   UNL     1      -3.390  -4.075  -0.725  0.00  0.00    +0.018 A 
ATOM      9  C   UNL     1      -4.969  -5.932  -0.180  0.00  0.00    +0.045 C 
BRANCH   3  11
ATOM     10  N   UNL     1      -1.475  -0.986  -1.472  0.00  0.00    -0.312 N 
ATOM     11  C   UNL     1      -1.740  -2.291  -1.263  0.00  0.00    +0.244 C 
ATOM     12  O   UNL     1      -0.846  -3.112  -1.338  0.00  0.00    -0.270 OA
ATOM     13  H   UNL     1      -2.188  -0.331  -1.411  0.00  0.00    +0.149 HD
BRANCH  10  15
ATOM     14  C   UNL     1      -0.084   0.961  -1.978  0.00  0.00    +0.024 C 
ATOM     15  C   UNL     1      -0.111  -0.557  -1.790  0.00  0.00    +0.101 C 
ENDBRANCH  10  15
ENDBRANCH   3  11
ENDBRANCH   1   6
BRANCH   1  16
ATOM     16  C   UNL     1      -8.066  -2.951   0.046  0.00  0.00    +0.198 C 
BRANCH  16  17
ATOM     17  C   UNL     1      -9.360  -3.646   0.384  0.00  0.00    +0.237 C 
ATOM     18  O   UNL     1      -9.358  -4.822   0.680  0.00  0.00    -0.274 OA
ATOM     19  N   UNL     1     -10.520  -2.961   0.358  0.00  0.00    -0.267 N 
ATOM     20  C   UNL     1     -11.745  -3.627   0.504  0.00  0.00    +0.040 A 
ATOM     21  C   UNL     1     -11.780  -5.012   0.394  0.00  0.00    +0.024 A 
ATOM     22  C   UNL     1     -12.975  -5.687   0.539  0.00  0.00    +0.002 A 
ATOM     23  C   UNL     1     -14.138  -4.983   0.794  0.00  0.00    +0.000 A 
ATOM     24  C   UNL     1     -14.106  -3.606   0.901  0.00  0.00    +0.005 A 
ATOM     25  C   UNL     1     -12.911  -2.921   0.755  0.00  0.00    -0.026 A 
ATOM     26  C   UNL     1     -12.913  -1.420   0.870  0.00  0.00    +0.039 C 
ATOM     27  C   UNL     1     -11.509  -0.905   1.186  0.00  0.00    +0.027 C 
ATOM     28  C   UNL     1     -10.522  -1.502   0.181  0.00  0.00    +0.079 C 
ATOM     29  C   UNL     1      -9.120  -0.947   0.440  0.00  0.00    +0.028 C 
ENDBRANCH  16  17
ENDBRANCH   1  16
TORSDOF 5
