REMARK  Name = ZINC44361469
REMARK  9 active torsions:
REMARK  status: ('A' for Active; 'I' for Inactive)
REMARK    1  A    between atoms: C_1  and  C_2
REMARK    2  A    between atoms: N_10  and  C_11
REMARK    3  A    between atoms: C_11  and  C_13
REMARK    4  A    between atoms: N_18  and  S_19
REMARK    5  A    between atoms: S_19  and  C_22
REMARK    6  A    between atoms: N_23  and  C_24
REMARK    7  A    between atoms: C_24  and  C_25
REMARK    8  A    between atoms: C_25  and  S_26
REMARK    9  A    between atoms: S_26  and  C_27
REMARK                            x       y       z     vdW  Elec       q    Type
REMARK                         _______ _______ _______ _____ _____    ______ ____
ROOT
ATOM      1  C   UNL     1       2.223   0.707   0.419  0.00  0.00    +0.044 C 
ATOM      2  C   UNL     1       1.606  -0.665   0.328  0.00  0.00    -0.049 A 
ATOM      3  C   UNL     1       1.029  -1.095  -0.856  0.00  0.00    +0.005 A 
ATOM      4  C   UNL     1       0.460  -2.342  -0.959  0.00  0.00    +0.027 A 
ATOM      5  C   UNL     1       0.450  -3.215   0.138  0.00  0.00    +0.058 A 
ATOM      6  C   UNL     1       1.041  -2.755   1.324  0.00  0.00    +0.039 A 
ATOM      7  C   UNL     1       1.614  -1.509   1.424  0.00  0.00    +0.020 A 
ATOM      8  S   UNL     1       0.826  -4.119   2.437  0.00  0.00    -0.052 S 
ATOM      9  C   UNL     1       0.029  -5.176   1.401  0.00  0.00    +0.166 A 
ATOM     10  N   UNL     1      -0.408  -6.405   1.667  0.00  0.00    -0.155 NA
ATOM     11  N   UNL     1      -0.066  -4.494   0.232  0.00  0.00    -0.320 N 
ENDROOT
BRANCH  10  12
ATOM     12  C   UNL     1      -0.888  -7.166   0.689  0.00  0.00    +0.257 C 
ATOM     13  O   UNL     1      -0.184  -7.449  -0.262  0.00  0.00    -0.272 OA
BRANCH  12  14
ATOM     14  C   UNL     1      -2.304  -7.677   0.757  0.00  0.00    +0.167 C 
ATOM     15  C   UNL     1      -3.284  -6.571   0.311  0.00  0.00    +0.031 C 
ATOM     16  C   UNL     1      -3.546  -6.919  -1.178  0.00  0.00    +0.019 C 
ATOM     17  C   UNL     1      -3.522  -8.468  -1.144  0.00  0.00    +0.110 C 
ATOM     18  N   UNL     1      -2.471  -8.810  -0.164  0.00  0.00    -0.169 NA
BRANCH  18  19
ATOM     19  S   UNL     1      -1.621 -10.231  -0.112  0.00  0.00    +0.030 S 
ATOM     20  O   UNL     1      -1.617 -10.700  -1.453  0.00  0.00    -0.158 OA
ATOM     21  O   UNL     1      -0.404  -9.901   0.544  0.00  0.00    -0.158 OA
ATOM     22  C   UNL     1      -2.615 -11.331   0.932  0.00  0.00    +0.215 C 
ENDBRANCH  18  19
ENDBRANCH  12  14
ENDBRANCH  10  12
BRANCH  11  23
ATOM     23  C   UNL     1      -0.715  -5.111  -0.928  0.00  0.00    +0.135 C 
BRANCH  23  24
ATOM     24  C   UNL     1       0.351  -5.683  -1.864  0.00  0.00    +0.090 C 
BRANCH  24  25
ATOM     25  S   UNL     1      -0.453  -6.590  -3.213  0.00  0.00    -0.162 S 
ATOM     26  C   UNL     1       0.930  -7.198  -4.219  0.00  0.00    +0.084 C 
ENDBRANCH  24  25
ENDBRANCH  23  24
ENDBRANCH  11  23
TORSDOF 6
