REMARK  Name = ZINC55277853
REMARK  10 active torsions:
REMARK  status: ('A' for Active; 'I' for Inactive)
REMARK    1  A    between atoms: C_1  and  N_2
REMARK    2  A    between atoms: C_4  and  S_10
REMARK    3  A    between atoms: C_6  and  C_7
REMARK    4  A    between atoms: S_10  and  N_13
REMARK    5  A    between atoms: N_13  and  C_14
REMARK    6  A    between atoms: C_14  and  C_15
REMARK    7  A    between atoms: C_15  and  C_17
REMARK    8  A    between atoms: C_15  and  N_24
REMARK    9  A    between atoms: N_24  and  C_25
REMARK   10  A    between atoms: N_24  and  C_26
REMARK                            x       y       z     vdW  Elec       q    Type
REMARK                         _______ _______ _______ _____ _____    ______ ____
ROOT
ATOM      1  N   UNL     1       1.650  -3.801  -2.443  0.00  0.00    -0.191 NA
ATOM      2  H   UNL     1       1.981  -3.703  -3.350  0.00  0.00    +0.148 HD
ENDROOT
BRANCH   1   3
ATOM      3  S   UNL     1       0.104  -3.338  -2.072  0.00  0.00    +0.060 S 
ATOM      4  O   UNL     1      -0.481  -4.416  -1.354  0.00  0.00    -0.153 OA
ATOM      5  O   UNL     1      -0.464  -2.821  -3.267  0.00  0.00    -0.153 OA
BRANCH   3   9
ATOM      6  C   UNL     1       0.448   1.520  -0.073  0.00  0.00    +0.149 C 
ATOM      7  N   UNL     1       0.364   0.059  -0.141  0.00  0.00    -0.344 N 
ATOM      8  C   UNL     1       0.281  -0.676  -1.276  0.00  0.00    +0.114 A 
ATOM      9  C   UNL     1       0.221  -1.988  -0.945  0.00  0.00    +0.123 A 
ATOM     10  C   UNL     1       0.267  -2.081   0.449  0.00  0.00    +0.061 A 
ATOM     11  C   UNL     1       0.362  -0.795   0.938  0.00  0.00    +0.106 A 
BRANCH  11  12
ATOM     12  C   UNL     1       0.443  -0.409   2.351  0.00  0.00    +0.258 C 
ATOM     13  O   UNL     1       0.432   0.768   2.661  0.00  0.00    -0.269 OA
ATOM     14  N   UNL     1       0.529  -1.357   3.305  0.00  0.00    -0.324 N 
ATOM     15  H   UNL     1       0.607  -2.291   3.055  0.00  0.00    +0.145 HD
ATOM     16  H   UNL     1       0.514  -1.105   4.242  0.00  0.00    +0.145 HD
ENDBRANCH  11  12
ENDBRANCH   3   9
ENDBRANCH   1   3
BRANCH   1  17
ATOM     17  C   UNL     1       2.518  -4.358  -1.403  0.00  0.00    +0.095 C 
BRANCH  17  18
ATOM     18  C   UNL     1       3.715  -5.053  -2.055  0.00  0.00    -0.023 C 
BRANCH  18  19
ATOM     19  C   UNL     1       3.232  -6.228  -2.866  0.00  0.00    -0.060 A 
ATOM     20  C   UNL     1       2.919  -7.419  -2.238  0.00  0.00    +0.005 A 
ATOM     21  C   UNL     1       2.477  -8.497  -2.981  0.00  0.00    +0.038 A 
ATOM     22  C   UNL     1       2.346  -8.384  -4.355  0.00  0.00    +0.123 A 
ATOM     23  C   UNL     1       2.659  -7.190  -4.983  0.00  0.00    +0.038 A 
ATOM     24  C   UNL     1       3.097  -6.112  -4.237  0.00  0.00    +0.005 A 
ATOM     25  F   UNL     1       1.913  -9.437  -5.082  0.00  0.00    -0.205 F 
ENDBRANCH  18  19
BRANCH  18  26
ATOM     26  N   UNL     1       4.636  -5.524  -1.012  0.00  0.00    +0.381 N 
ATOM     27  C   UNL     1       5.812  -6.140  -1.640  0.00  0.00    -0.096 C 
ATOM     28  C   UNL     1       5.062  -4.386  -0.185  0.00  0.00    -0.096 C 
ATOM     29  H   UNL     1       4.168  -6.204  -0.432  0.00  0.00    -0.082 HD
ENDBRANCH  18  26
ENDBRANCH  17  18
ENDBRANCH   1  17
TORSDOF 7
