REMARK  Name = ZINC44783074
REMARK  4 active torsions:
REMARK  status: ('A' for Active; 'I' for Inactive)
REMARK    1  A    between atoms: C_5  and  N_8
REMARK    2  A    between atoms: C_9  and  C_11
REMARK    3  A    between atoms: C_11  and  C_16
REMARK    4  A    between atoms: N_17  and  O_18
REMARK                            x       y       z     vdW  Elec       q    Type
REMARK                         _______ _______ _______ _____ _____    ______ ____
ROOT
ATOM      1  N   UNL     1       1.287  -2.181  -0.206  0.00  0.00    -0.282 N 
ATOM      2  C   UNL     1       0.203  -2.797   0.306  0.00  0.00    +0.231 C 
ATOM      3  O   UNL     1      -0.772  -2.148   0.620  0.00  0.00    -0.274 OA
ATOM      4  H   UNL     1       2.035  -2.705  -0.530  0.00  0.00    +0.155 HD
ENDROOT
BRANCH   1   9
ATOM      5  C   UNL     1       0.337   1.302  -0.920  0.00  0.00    +0.042 A 
ATOM      6  C   UNL     1       1.422   1.982  -0.396  0.00  0.00    +0.044 A 
ATOM      7  C   UNL     1       2.462   1.284   0.191  0.00  0.00    +0.042 A 
ATOM      8  C   UNL     1       2.420  -0.096   0.256  0.00  0.00    +0.065 A 
ATOM      9  C   UNL     1       1.332  -0.782  -0.269  0.00  0.00    +0.071 A 
ATOM     10  C   UNL     1       0.289  -0.078  -0.859  0.00  0.00    +0.065 A 
ATOM     11 CL   UNL     1      -1.072  -0.930  -1.516  0.00  0.00    -0.082 Cl
ATOM     12 CL   UNL     1       3.726  -0.972   0.993  0.00  0.00    -0.082 Cl
ATOM     13 CL   UNL     1       1.479   3.716  -0.476  0.00  0.00    -0.083 Cl
ENDBRANCH   1   9
BRANCH   2  14
ATOM     14  C   UNL     1       0.204  -4.293   0.490  0.00  0.00    +0.105 C 
ATOM     15  C   UNL     1       0.512  -4.988  -0.848  0.00  0.00    +0.024 C 
ATOM     16  C   UNL     1      -0.712  -5.866  -1.181  0.00  0.00    +0.001 C 
ATOM     17  C   UNL     1      -1.876  -5.207  -0.400  0.00  0.00    +0.001 C 
ATOM     18  C   UNL     1      -1.197  -4.772   0.923  0.00  0.00    +0.024 C 
BRANCH  14  19
ATOM     19  C   UNL     1       1.227  -4.685   1.525  0.00  0.00    +0.147 C 
ATOM     20  N   UNL     1       1.367  -5.926   1.856  0.00  0.00    -0.076 NA
ATOM     21  N   UNL     1       2.012  -3.721   2.117  0.00  0.00    -0.343 N 
ATOM     22  H   UNL     1       1.851  -2.783   1.931  0.00  0.00    +0.144 HD
ATOM     23  H   UNL     1       2.725  -3.980   2.721  0.00  0.00    +0.144 HD
BRANCH  20  24
ATOM     24  O   UNL     1       0.657  -6.931   1.155  0.00  0.00    -0.408 OA
ATOM     25  H   UNL     1       0.826  -7.827   1.474  0.00  0.00    +0.328 HD
ENDBRANCH  20  24
ENDBRANCH  14  19
ENDBRANCH   2  14
TORSDOF 4
