REMARK  Name = ZINC39467466
REMARK  5 active torsions:
REMARK  status: ('A' for Active; 'I' for Inactive)
REMARK    1  A    between atoms: C_1  and  C_2
REMARK    2  A    between atoms: C_2  and  O_3
REMARK    3  A    between atoms: O_3  and  C_4
REMARK    4  A    between atoms: P_20  and  C_23
REMARK    5  A    between atoms: C_28  and  O_29
REMARK                            x       y       z     vdW  Elec       q    Type
REMARK                         _______ _______ _______ _____ _____    ______ ____
ROOT
ATOM      1  C   UNL     1       0.777  -1.810  -1.336  0.00  0.00    +0.130 C 
ATOM      2  C   UNL     1       0.262  -2.641  -0.421  0.00  0.00    +0.022 C 
ATOM      3  C   UNL     1       0.387  -4.123  -0.641  0.00  0.00    +0.008 C 
ATOM      4  C   UNL     1      -0.675  -4.899   0.129  0.00  0.00    -0.046 C 
ATOM      5  N   UNL     1      -0.488  -6.345  -0.082  0.00  0.00    +0.398 N 
ATOM      6  C   UNL     1      -0.601  -6.698  -1.497  0.00  0.00    -0.020 C 
ATOM      7  C   UNL     1       0.412  -5.916  -2.345  0.00  0.00    -0.003 C 
ATOM      8  C   UNL     1       0.199  -4.420  -2.135  0.00  0.00    +0.017 C 
ATOM      9  C   UNL     1       1.190  -3.607  -2.921  0.00  0.00    -0.005 C 
ATOM     10  C   UNL     1       1.454  -2.363  -2.526  0.00  0.00    +0.051 C 
ATOM     11  I   UNL     1       2.835  -1.198  -3.587  0.00  0.00    -0.040 I 
ATOM     12  C   UNL     1      -0.307  -8.186  -1.729  0.00  0.00    +0.157 C 
ATOM     13  O   UNL     1      -1.275  -8.979  -1.018  0.00  0.00    -0.316 OA
ATOM     14  P   UNL     1      -1.529  -8.636   0.552  0.00  0.00    +0.291 P 
ATOM     15  O   UNL     1      -0.472  -9.247   1.388  0.00  0.00    -0.269 OA
ATOM     16  N   UNL     1      -1.472  -6.973   0.651  0.00  0.00    -0.288 NA
ATOM     17  H   UNL     1      -2.087  -6.467   1.205  0.00  0.00    +0.111 HD
ATOM     18  H   UNL     1       0.418  -6.622   0.265  0.00  0.00    -0.055 HD
ENDROOT
BRANCH  14  19
ATOM     19  C   UNL     1      -3.162  -9.233   1.069  0.00  0.00    +0.091 A 
ATOM     20  C   UNL     1      -4.267  -8.412   0.954  0.00  0.00    +0.018 A 
ATOM     21  C   UNL     1      -5.512  -8.866   1.349  0.00  0.00    +0.001 A 
ATOM     22  C   UNL     1      -5.655 -10.143   1.860  0.00  0.00    +0.004 A 
ATOM     23  C   UNL     1      -4.553 -10.968   1.977  0.00  0.00    +0.046 A 
ATOM     24  C   UNL     1      -3.304 -10.516   1.576  0.00  0.00    +0.131 A 
BRANCH  24  25
ATOM     25  O   UNL     1      -2.219 -11.328   1.686  0.00  0.00    -0.506 OA
ATOM     26  H   UNL     1      -1.759 -11.257   2.533  0.00  0.00    +0.292 HD
ENDBRANCH  24  25
ENDBRANCH  14  19
BRANCH   1  27
ATOM     27  O   UNL     1       0.671  -0.465  -1.174  0.00  0.00    -0.492 OA
BRANCH  27  29
ATOM     28  C   UNL     1      -0.019   1.526   0.010  0.00  0.00    +0.048 C 
ATOM     29  C   UNL     1       0.002  -0.004   0.002  0.00  0.00    +0.226 C 
ENDBRANCH  27  29
ENDBRANCH   1  27
TORSDOF 4
