REMARK  Name = ZINC09953791
REMARK  3 active torsions:
REMARK  status: ('A' for Active; 'I' for Inactive)
REMARK    1  A    between atoms: C_4  and  C_8
REMARK    2  A    between atoms: C_8  and  N_9
REMARK    3  A    between atoms: C_11  and  N_16
REMARK                            x       y       z     vdW  Elec       q    Type
REMARK                         _______ _______ _______ _____ _____    ______ ____
ROOT
ATOM      1  N   UNL     1       2.385   0.027  -0.021  0.00  0.00    -0.309 N 
ATOM      2  C   UNL     1       2.369   1.385  -0.013  0.00  0.00    +0.122 A 
ATOM      3  C   UNL     1       1.197   2.062   0.002  0.00  0.00    +0.142 A 
ATOM      4  C   UNL     1      -0.016   1.360   0.009  0.00  0.00    +0.039 A 
ATOM      5  C   UNL     1       0.002  -0.004   0.002  0.00  0.00    +0.072 A 
ATOM      6  C   UNL     1       1.237  -0.675  -0.013  0.00  0.00    +0.252 A 
ATOM      7  O   UNL     1       1.268  -1.895  -0.020  0.00  0.00    -0.268 OA
ENDROOT
BRANCH   3   8
ATOM      8  N   UNL     1       1.197   3.542   0.009  0.00  0.00    +0.058 N 
ATOM      9  O   UNL     1       2.251   4.151   0.002  0.00  0.00    -0.126 OA
ATOM     10  O   UNL     1       0.142   4.150   0.022  0.00  0.00    -0.126 OA
ENDBRANCH   3   8
BRANCH   1  11
ATOM     11  C   UNL     1       3.668  -0.681  -0.036  0.00  0.00    +0.164 C 
BRANCH  11  15
ATOM     12  C   UNL     1       4.878  -1.351  -4.080  0.00  0.00    +0.004 A 
ATOM     13  C   UNL     1       5.261  -0.194  -3.428  0.00  0.00    +0.039 A 
ATOM     14  C   UNL     1       4.870   0.024  -2.118  0.00  0.00    +0.130 A 
ATOM     15  C   UNL     1       4.094  -0.917  -1.462  0.00  0.00    +0.026 A 
ATOM     16  C   UNL     1       3.715  -2.076  -2.115  0.00  0.00    +0.049 A 
ATOM     17  C   UNL     1       4.103  -2.290  -3.426  0.00  0.00    +0.020 A 
ATOM     18 CL   UNL     1       2.748  -3.260  -1.292  0.00  0.00    -0.083 Cl
ATOM     19  F   UNL     1       5.245   1.154  -1.480  0.00  0.00    -0.205 F 
ENDBRANCH  11  15
ENDBRANCH   1  11
TORSDOF 3
