REMARK  Name = ZINC01737471
REMARK  4 active torsions:
REMARK  status: ('A' for Active; 'I' for Inactive)
REMARK    1  A    between atoms: C_3  and  N_15
REMARK    2  A    between atoms: C_6  and  C_7
REMARK    3  A    between atoms: C_7  and  C_9
REMARK    4  A    between atoms: C_9  and  C_11
REMARK                            x       y       z     vdW  Elec       q    Type
REMARK                         _______ _______ _______ _____ _____    ______ ____
ROOT
ATOM      1  C   UNL     1       1.247   5.797   1.446  0.00  0.00    +0.007 A 
ATOM      2  C   UNL     1       1.302   7.178   1.457  0.00  0.00    +0.033 A 
ATOM      3  C   UNL     1       2.449   7.827   1.040  0.00  0.00    +0.126 A 
ATOM      4  C   UNL     1       3.543   7.095   0.617  0.00  0.00    +0.033 A 
ATOM      5  C   UNL     1       3.489   5.714   0.610  0.00  0.00    +0.007 A 
ATOM      6  C   UNL     1       2.342   5.065   1.027  0.00  0.00    -0.032 A 
ENDROOT
BRANCH   3   7
ATOM      7  N   UNL     1       2.506   9.306   1.046  0.00  0.00    +0.056 N 
ATOM      8  O   UNL     1       3.517   9.879   0.679  0.00  0.00    -0.126 OA
ATOM      9  O   UNL     1       1.543   9.951   1.420  0.00  0.00    -0.126 OA
ENDBRANCH   3   7
BRANCH   6  10
ATOM     10  C   UNL     1       2.284   3.559   1.019  0.00  0.00    +0.111 C 
ATOM     11 BR   UNL     1       1.796   2.913   2.811  0.00  0.00    -0.081 Br
BRANCH  10  12
ATOM     12  C   UNL     1       1.235   3.094   0.007  0.00  0.00    +0.187 C 
ATOM     13 BR   UNL     1       1.723   3.740  -1.785  0.00  0.00    -0.075 Br
BRANCH  12  14
ATOM     14  C   UNL     1       1.177   1.588  -0.001  0.00  0.00    +0.371 C 
ATOM     15  O   UNL     1       2.199   0.944  -0.014  0.00  0.00    -0.245 OA
ATOM     16  O   UNL     1      -0.011   0.963   0.007  0.00  0.00    -0.245 OA
ENDBRANCH  12  14
ENDBRANCH  10  12
ENDBRANCH   6  10
TORSDOF 4
