REMARK  Name = ZINC42361108
REMARK  7 active torsions:
REMARK  status: ('A' for Active; 'I' for Inactive)
REMARK    1  A    between atoms: C_1  and  N_2
REMARK    2  A    between atoms: N_2  and  C_3
REMARK    3  A    between atoms: N_2  and  C_10
REMARK    4  A    between atoms: C_3  and  C_4
REMARK    5  A    between atoms: C_10  and  C_12
REMARK    6  A    between atoms: C_10  and  C_14
REMARK    7  A    between atoms: C_12  and  N_13
REMARK                            x       y       z     vdW  Elec       q    Type
REMARK                         _______ _______ _______ _____ _____    ______ ____
ROOT
ATOM      1  C   UNL     1      -1.334  -0.618   0.048  0.00  0.00    +0.070 C 
ENDROOT
BRANCH   1   2
ATOM      2  C   UNL     1      -1.990  -0.260  -1.261  0.00  0.00    -0.018 A 
ATOM      3  C   UNL     1      -1.213   0.050  -2.362  0.00  0.00    +0.006 A 
ATOM      4  C   UNL     1      -1.814   0.377  -3.562  0.00  0.00    +0.000 A 
ATOM      5  C   UNL     1      -3.193   0.395  -3.663  0.00  0.00    +0.001 A 
ATOM      6  C   UNL     1      -3.970   0.085  -2.564  0.00  0.00    +0.015 A 
ATOM      7  C   UNL     1      -3.369  -0.248  -1.363  0.00  0.00    +0.022 A 
ATOM      8 BR   UNL     1      -4.432  -0.679   0.140  0.00  0.00    -0.050 Br
ENDBRANCH   1   2
BRANCH   1  10
ATOM      9  C   UNL     1      -0.083   1.455   0.070  0.00  0.00    +0.105 C 
ATOM     10  N   UNL     1       0.003  -0.011   0.108  0.00  0.00    -0.296 NA
BRANCH  10  11
ATOM     11  C   UNL     1       0.734  -0.465   1.298  0.00  0.00    +0.120 C 
BRANCH  11  12
ATOM     12  C   UNL     1       2.191  -0.103   1.161  0.00  0.00    -0.025 A 
ATOM     13  C   UNL     1       3.078  -0.980   0.563  0.00  0.00    +0.028 A 
ATOM     14  C   UNL     1       4.382  -0.623   0.456  0.00  0.00    +0.055 A 
ATOM     15  S   UNL     1       4.386   0.994   1.213  0.00  0.00    -0.090 S 
ATOM     16  C   UNL     1       2.649   1.088   1.616  0.00  0.00    +0.051 A 
ATOM     17 BR   UNL     1       5.822  -1.588  -0.299  0.00  0.00    -0.043 Br
ENDBRANCH  11  12
ENDBRANCH  10  11
ENDBRANCH   1  10
BRANCH   1  18
ATOM     18  C   UNL     1      -1.209  -2.139   0.157  0.00  0.00    -0.063 C 
BRANCH  18  19
ATOM     19  N   UNL     1      -0.277  -2.628  -0.868  0.00  0.00    +0.379 N 
ATOM     20  H   UNL     1      -0.667  -2.463  -1.784  0.00  0.00    -0.090 HD
ATOM     21  H   UNL     1       0.602  -2.140  -0.784  0.00  0.00    -0.090 HD
ATOM     22  H   UNL     1      -0.126  -3.618  -0.741  0.00  0.00    -0.090 HD
ENDBRANCH  18  19
ENDBRANCH   1  18
TORSDOF 6
