REMARK  Name = ZINC09124166
REMARK  13 active torsions:
REMARK  status: ('A' for Active; 'I' for Inactive)
REMARK    1  A    between atoms: C_1  and  C_2
REMARK    2  A    between atoms: C_4  and  C_39
REMARK    3  A    between atoms: C_5  and  O_38
REMARK    4  A    between atoms: C_6  and  C_8
REMARK    5  A    between atoms: N_16  and  C_26
REMARK    6  A    between atoms: C_17  and  C_19
REMARK    7  A    between atoms: C_23  and  O_25
REMARK    8  A    between atoms: C_26  and  C_27
REMARK    9  A    between atoms: C_27  and  C_28
REMARK   10  A    between atoms: C_31  and  O_36
REMARK   11  A    between atoms: C_32  and  O_34
REMARK   12  A    between atoms: O_34  and  C_35
REMARK   13  A    between atoms: O_36  and  C_37
REMARK                            x       y       z     vdW  Elec       q    Type
REMARK                         _______ _______ _______ _____ _____    ______ ____
ROOT
ATOM      1  C   UNL     1      -0.031  -2.991   2.559  0.00  0.00    +0.075 A 
ATOM      2  C   UNL     1       1.068  -3.638   3.028  0.00  0.00    +0.035 A 
ATOM      3  C   UNL     1       0.694  -4.186   4.275  0.00  0.00    +0.153 A 
ATOM      4  N   UNL     1      -0.564  -3.850   4.481  0.00  0.00    -0.168 NA
ATOM      5  N   UNL     1      -1.009  -3.149   3.499  0.00  0.00    -0.276 N 
ATOM      6  H   UNL     1      -1.907  -2.788   3.435  0.00  0.00    +0.189 HD
ATOM      7  C   UNL     1       1.861  -4.900   4.824  0.00  0.00    +0.268 C 
ATOM      8  O   UNL     1       1.877  -5.488   5.888  0.00  0.00    -0.268 OA
ATOM      9  N   UNL     1       2.904  -4.811   3.981  0.00  0.00    -0.285 N 
ATOM     10  C   UNL     1       2.504  -4.028   2.806  0.00  0.00    +0.141 C 
ENDROOT
BRANCH   1  16
ATOM     11  C   UNL     1      -2.017  -2.524  -1.994  0.00  0.00    +0.044 C 
ATOM     12  C   UNL     1      -1.097  -2.024  -0.911  0.00  0.00    -0.049 A 
ATOM     13  C   UNL     1      -0.357  -0.872  -1.113  0.00  0.00    +0.010 A 
ATOM     14  C   UNL     1       0.490  -0.404  -0.126  0.00  0.00    -0.008 A 
ATOM     15  C   UNL     1       0.603  -1.088   1.074  0.00  0.00    +0.129 A 
ATOM     16  C   UNL     1      -0.144  -2.253   1.282  0.00  0.00    +0.042 A 
ATOM     17  C   UNL     1      -1.000  -2.712   0.281  0.00  0.00    +0.017 A 
ATOM     18  C   UNL     1       1.293   0.851  -0.355  0.00  0.00    +0.047 C 
BRANCH  15  19
ATOM     19  O   UNL     1       1.435  -0.630   2.045  0.00  0.00    -0.506 OA
ATOM     20  H   UNL     1       1.040   0.043   2.616  0.00  0.00    +0.292 HD
ENDBRANCH  15  19
ENDBRANCH   1  16
BRANCH  10  21
ATOM     21  C   UNL     1       2.626  -4.865   1.559  0.00  0.00    -0.019 A 
ATOM     22  C   UNL     1       2.128  -6.155   1.542  0.00  0.00    +0.006 A 
ATOM     23  C   UNL     1       2.238  -6.926   0.399  0.00  0.00    +0.004 A 
ATOM     24  C   UNL     1       2.848  -6.409  -0.728  0.00  0.00    +0.045 A 
ATOM     25  C   UNL     1       3.349  -5.115  -0.713  0.00  0.00    +0.117 A 
ATOM     26  C   UNL     1       3.231  -4.342   0.433  0.00  0.00    +0.051 A 
BRANCH  25  27
ATOM     27  O   UNL     1       3.949  -4.604  -1.820  0.00  0.00    -0.507 OA
ATOM     28  H   UNL     1       3.342  -4.152  -2.422  0.00  0.00    +0.292 HD
ENDBRANCH  25  27
ENDBRANCH  10  21
BRANCH   9  29
ATOM     29  C   UNL     1       4.228  -5.401   4.200  0.00  0.00    +0.114 C 
BRANCH  29  30
ATOM     30  C   UNL     1       4.259  -6.814   3.616  0.00  0.00    +0.054 C 
BRANCH  30  31
ATOM     31  C   UNL     1       5.620  -7.421   3.842  0.00  0.00    -0.042 A 
ATOM     32  C   UNL     1       6.616  -7.252   2.897  0.00  0.00    +0.007 A 
ATOM     33  C   UNL     1       7.866  -7.806   3.099  0.00  0.00    +0.049 A 
ATOM     34  C   UNL     1       8.124  -8.532   4.250  0.00  0.00    +0.161 A 
ATOM     35  C   UNL     1       7.123  -8.702   5.202  0.00  0.00    +0.162 A 
ATOM     36  C   UNL     1       5.873  -8.140   4.995  0.00  0.00    +0.053 A 
BRANCH  35  37
ATOM     37  O   UNL     1       7.371  -9.414   6.333  0.00  0.00    -0.491 OA
ATOM     38  C   UNL     1       6.296  -9.547   7.265  0.00  0.00    +0.277 C 
ENDBRANCH  35  37
BRANCH  34  39
ATOM     39  O   UNL     1       9.354  -9.078   4.450  0.00  0.00    -0.491 OA
ATOM     40  C   UNL     1      10.332  -8.863   3.432  0.00  0.00    +0.277 C 
ENDBRANCH  34  39
ENDBRANCH  30  31
ENDBRANCH  29  30
ENDBRANCH   9  29
TORSDOF 9
