REMARK  Name = ZINC00725167
REMARK  5 active torsions:
REMARK  status: ('A' for Active; 'I' for Inactive)
REMARK    1  A    between atoms: C_5  and  C_7
REMARK    2  A    between atoms: N_9  and  N_10
REMARK    3  A    between atoms: C_11  and  C_12
REMARK    4  A    between atoms: C_15  and  O_19
REMARK    5  A    between atoms: C_17  and  O_18
REMARK                            x       y       z     vdW  Elec       q    Type
REMARK                         _______ _______ _______ _____ _____    ______ ____
ROOT
ATOM      1  N   UNL     1       3.551   3.319  -0.013  0.00  0.00    -0.187 NA
ATOM      2  C   UNL     1       2.414   3.947   0.000  0.00  0.00    +0.142 C 
ENDROOT
BRANCH   2   3
ATOM      3  C   UNL     1       1.153   3.186   0.008  0.00  0.00    +0.036 A 
ATOM      4  C   UNL     1      -0.072   3.858   0.022  0.00  0.00    +0.016 A 
ATOM      5  C   UNL     1      -1.249   3.142   0.030  0.00  0.00    +0.046 A 
ATOM      6  C   UNL     1      -1.224   1.752   0.017  0.00  0.00    +0.120 A 
ATOM      7  C   UNL     1      -0.013   1.076   0.008  0.00  0.00    +0.091 A 
ATOM      8  C   UNL     1       1.177   1.784   0.000  0.00  0.00    +0.129 A 
BRANCH   8   9
ATOM      9  O   UNL     1       2.363   1.122  -0.014  0.00  0.00    -0.506 OA
ATOM     10  H   UNL     1       2.698   0.935  -0.901  0.00  0.00    +0.292 HD
ENDBRANCH   8   9
BRANCH   6  11
ATOM     11  O   UNL     1      -2.389   1.054   0.019  0.00  0.00    -0.507 OA
ATOM     12  H   UNL     1      -2.722   0.847   0.903  0.00  0.00    +0.292 HD
ENDBRANCH   6  11
ENDBRANCH   2   3
BRANCH   1  15
ATOM     13  C   UNL     1       5.930   3.392  -0.034  0.00  0.00    +0.264 C 
ATOM     14  O   UNL     1       5.954   2.176  -0.041  0.00  0.00    -0.268 OA
ATOM     15  N   UNL     1       4.750   4.043  -0.020  0.00  0.00    -0.203 N 
ATOM     16  H   UNL     1       4.731   5.013  -0.015  0.00  0.00    +0.178 HD
BRANCH  13  21
ATOM     17  C   UNL     1       8.356   6.258  -0.042  0.00  0.00    +0.001 A 
ATOM     18  C   UNL     1       9.566   5.587  -0.057  0.00  0.00    +0.001 A 
ATOM     19  C   UNL     1       9.598   4.204  -0.063  0.00  0.00    +0.015 A 
ATOM     20  C   UNL     1       8.420   3.484  -0.056  0.00  0.00    +0.026 A 
ATOM     21  C   UNL     1       7.195   4.156  -0.042  0.00  0.00    +0.051 A 
ATOM     22  C   UNL     1       7.172   5.552  -0.040  0.00  0.00    +0.014 A 
ATOM     23  I   UNL     1       8.469   1.390  -0.067  0.00  0.00    -0.043 I 
ENDBRANCH  13  21
ENDBRANCH   1  15
TORSDOF 5
