REMARK  Name = ZINC35887403
REMARK  15 active torsions:
REMARK  status: ('A' for Active; 'I' for Inactive)
REMARK    1  A    between atoms: C_1  and  C_2
REMARK    2  A    between atoms: C_5  and  C_8
REMARK    3  A    between atoms: N_10  and  C_11
REMARK    4  A    between atoms: N_10  and  C_36
REMARK    5  A    between atoms: C_11  and  C_12
REMARK    6  A    between atoms: N_15  and  C_26
REMARK    7  A    between atoms: C_17  and  C_19
REMARK    8  A    between atoms: C_24  and  C_25
REMARK    9  A    between atoms: C_26  and  C_27
REMARK   10  A    between atoms: C_30  and  O_35
REMARK   11  A    between atoms: C_31  and  O_33
REMARK   12  A    between atoms: O_33  and  C_34
REMARK   13  A    between atoms: C_36  and  C_37
REMARK   14  A    between atoms: C_37  and  C_38
REMARK   15  A    between atoms: C_37  and  C_39
REMARK                            x       y       z     vdW  Elec       q    Type
REMARK                         _______ _______ _______ _____ _____    ______ ____
ROOT
ATOM      1  C   UNL     1       0.219  -6.630   2.482  0.00  0.00    -0.005 C 
ATOM      2  C   UNL     1       1.219  -7.242   1.477  0.00  0.00    -0.073 C 
ATOM      3  N   UNL     1       1.345  -8.662   1.892  0.00  0.00    +0.383 N 
ATOM      4  C   UNL     1      -0.036  -9.057   2.268  0.00  0.00    -0.070 C 
ATOM      5  C   UNL     1      -0.607  -7.824   3.005  0.00  0.00    +0.005 C 
ATOM      6  H   UNL     1       1.964  -8.745   2.685  0.00  0.00    -0.081 HD
ENDROOT
BRANCH   5   7
ATOM      7  C   UNL     1      -2.064  -7.639   2.667  0.00  0.00    -0.043 A 
ATOM      8  C   UNL     1      -2.477  -7.664   1.347  0.00  0.00    +0.004 A 
ATOM      9  C   UNL     1      -3.813  -7.496   1.038  0.00  0.00    +0.000 A 
ATOM     10  C   UNL     1      -4.738  -7.302   2.047  0.00  0.00    +0.000 A 
ATOM     11  C   UNL     1      -4.325  -7.278   3.366  0.00  0.00    +0.003 A 
ATOM     12  C   UNL     1      -2.989  -7.451   3.677  0.00  0.00    -0.047 A 
ATOM     13  C   UNL     1      -2.541  -7.430   5.115  0.00  0.00    +0.044 C 
ENDBRANCH   5   7
BRANCH   1  14
ATOM     14  C   UNL     1      -0.691  -5.621   1.778  0.00  0.00    +0.110 C 
BRANCH  14  17
ATOM     15  C   UNL     1       0.704  -4.362   0.228  0.00  0.00    +0.247 C 
ATOM     16  O   UNL     1       0.536  -5.241  -0.595  0.00  0.00    -0.270 OA
ATOM     17  N   UNL     1       0.084  -4.430   1.422  0.00  0.00    -0.297 N 
BRANCH  15  22
ATOM     18  C   UNL     1       4.147   0.089  -0.977  0.00  0.00    +0.044 C 
ATOM     19  C   UNL     1       3.246  -1.077  -0.662  0.00  0.00    -0.050 A 
ATOM     20  C   UNL     1       3.694  -2.370  -0.867  0.00  0.00    +0.004 A 
ATOM     21  C   UNL     1       2.873  -3.441  -0.580  0.00  0.00    +0.013 A 
ATOM     22  C   UNL     1       1.589  -3.219  -0.082  0.00  0.00    +0.037 A 
ATOM     23  C   UNL     1       1.143  -1.912   0.124  0.00  0.00    +0.013 A 
ATOM     24  C   UNL     1       1.976  -0.850  -0.162  0.00  0.00    +0.004 A 
ENDBRANCH  15  22
BRANCH  17  25
ATOM     25  C   UNL     1       0.184  -3.313   2.365  0.00  0.00    +0.111 C 
BRANCH  25  26
ATOM     26  C   UNL     1      -1.161  -3.117   3.068  0.00  0.00    +0.000 C 
ATOM     27  C   UNL     1      -1.024  -2.030   4.136  0.00  0.00    +0.009 C 
ATOM     28  C   UNL     1      -2.216  -2.695   2.043  0.00  0.00    +0.009 C 
ENDBRANCH  25  26
ENDBRANCH  17  25
ENDBRANCH  14  17
ENDBRANCH   1  14
BRANCH   3  29
ATOM     29  C   UNL     1       1.828  -9.483   0.773  0.00  0.00    -0.043 C 
BRANCH  29  30
ATOM     30  C   UNL     1       2.065 -10.893   1.251  0.00  0.00    -0.060 A 
ATOM     31  C   UNL     1       3.302 -11.252   1.753  0.00  0.00    +0.005 A 
ATOM     32  C   UNL     1       3.525 -12.544   2.192  0.00  0.00    +0.049 A 
ATOM     33  C   UNL     1       2.507 -13.482   2.130  0.00  0.00    +0.158 A 
ATOM     34  C   UNL     1       1.262 -13.120   1.625  0.00  0.00    +0.161 A 
ATOM     35  C   UNL     1       1.044 -11.823   1.191  0.00  0.00    +0.051 A 
BRANCH  34  36
ATOM     36  O   UNL     1       0.259 -14.037   1.562  0.00  0.00    -0.491 OA
ATOM     37  C   UNL     1      -0.992 -13.595   1.031  0.00  0.00    +0.277 C 
ENDBRANCH  34  36
BRANCH  33  38
ATOM     38  O   UNL     1       2.724 -14.753   2.561  0.00  0.00    -0.503 OA
ATOM     39  H   UNL     1       2.525 -14.891   3.498  0.00  0.00    +0.292 HD
ENDBRANCH  33  38
ENDBRANCH  29  30
ENDBRANCH   3  29
TORSDOF 10
