REMARK  Name = ZINC09560484
REMARK  11 active torsions:
REMARK  status: ('A' for Active; 'I' for Inactive)
REMARK    1  A    between atoms: C_1  and  C_2
REMARK    2  A    between atoms: C_2  and  N_73
REMARK    3  A    between atoms: C_6  and  C_8
REMARK    4  A    between atoms: C_8  and  N_9
REMARK    5  A    between atoms: C_10  and  C_12
REMARK    6  A    between atoms: C_27  and  O_36
REMARK    7  A    between atoms: C_28  and  O_33
REMARK    8  A    between atoms: O_33  and  C_34
REMARK    9  A    between atoms: C_34  and  C_35
REMARK   10  A    between atoms: O_36  and  C_37
REMARK   11  A    between atoms: C_37  and  C_38
REMARK                            x       y       z     vdW  Elec       q    Type
REMARK                         _______ _______ _______ _____ _____    ______ ____
ROOT
ATOM      1  C   UNL     1      -6.622   3.352   5.352  0.00  0.00    +0.130 C 
ATOM      2  C   UNL     1      -7.466   3.901   6.470  0.00  0.00    -0.021 A 
ATOM      3  C   UNL     1      -8.840   3.932   6.372  0.00  0.00    +0.005 A 
ATOM      4  C   UNL     1      -9.593   4.458   7.408  0.00  0.00    +0.000 A 
ATOM      5  C   UNL     1      -8.975   4.955   8.542  0.00  0.00    +0.001 A 
ATOM      6  C   UNL     1      -7.599   4.924   8.653  0.00  0.00    +0.013 A 
ATOM      7  C   UNL     1      -6.837   4.387   7.617  0.00  0.00    +0.041 A 
ATOM      8  C   UNL     1      -5.368   4.297   7.719  0.00  0.00    +0.247 C 
ATOM      9  O   UNL     1      -4.778   4.931   8.572  0.00  0.00    -0.270 OA
ATOM     10  N   UNL     1      -4.676   3.506   6.861  0.00  0.00    -0.289 N 
ATOM     11  C   UNL     1      -5.381   2.659   5.915  0.00  0.00    +0.123 C 
ATOM     12  C   UNL     1      -4.516   2.218   4.766  0.00  0.00    -0.019 A 
ATOM     13  C   UNL     1      -5.081   1.367   3.823  0.00  0.00    +0.055 A 
ATOM     14  C   UNL     1      -4.340   0.919   2.746  0.00  0.00    +0.162 A 
ATOM     15  C   UNL     1      -3.011   1.313   2.613  0.00  0.00    +0.162 A 
ATOM     16  C   UNL     1      -2.454   2.162   3.551  0.00  0.00    +0.053 A 
ATOM     17  C   UNL     1      -3.207   2.617   4.627  0.00  0.00    -0.037 A 
ATOM     18  C   UNL     1      -2.550   3.550   5.603  0.00  0.00    +0.054 C 
ATOM     19  C   UNL     1      -3.220   3.520   6.960  0.00  0.00    +0.113 C 
ENDROOT
BRANCH   1  21
ATOM     20  N   UNL     1      -7.127   5.240   3.836  0.00  0.00    -0.316 N 
ATOM     21  C   UNL     1      -6.197   4.482   4.450  0.00  0.00    +0.223 C 
ATOM     22  O   UNL     1      -5.018   4.709   4.277  0.00  0.00    -0.275 OA
ATOM     23  H   UNL     1      -8.069   5.059   3.974  0.00  0.00    +0.149 HD
BRANCH  20  24
ATOM     24  C   UNL     1      -6.713   6.339   2.959  0.00  0.00    +0.089 C 
BRANCH  24  28
ATOM     25  C   UNL     1      -7.905   7.845   0.071  0.00  0.00    -0.078 C 
ATOM     26  C   UNL     1      -9.047   6.802   0.144  0.00  0.00    -0.020 C 
ATOM     27  C   UNL     1      -8.600   5.927   1.348  0.00  0.00    -0.016 C 
ATOM     28  C   UNL     1      -7.947   6.954   2.296  0.00  0.00    -0.051 C 
ATOM     29  N   UNL     1      -7.569   8.121   1.482  0.00  0.00    +0.382 N 
ATOM     30  H   UNL     1      -8.095   8.943   1.802  0.00  0.00    -0.081 HD
BRANCH  29  32
ATOM     31  C   UNL     1      -5.722   9.537   0.683  0.00  0.00    -0.017 C 
ATOM     32  C   UNL     1      -6.114   8.392   1.619  0.00  0.00    -0.082 C 
ENDBRANCH  29  32
ENDBRANCH  24  28
ENDBRANCH  20  24
ENDBRANCH   1  21
BRANCH  15  33
ATOM     33  O   UNL     1      -2.268   0.871   1.563  0.00  0.00    -0.489 OA
BRANCH  33  34
ATOM     34  C   UNL     1      -0.915   1.323   1.490  0.00  0.00    +0.226 C 
ATOM     35  C   UNL     1      -0.244   0.726   0.251  0.00  0.00    +0.048 C 
ENDBRANCH  33  34
ENDBRANCH  15  33
BRANCH  14  36
ATOM     36  O   UNL     1      -4.903   0.092   1.825  0.00  0.00    -0.489 OA
BRANCH  36  37
ATOM     37  C   UNL     1      -6.270  -0.270   2.029  0.00  0.00    +0.226 C 
ATOM     38  C   UNL     1      -6.726  -1.197   0.900  0.00  0.00    +0.048 C 
ENDBRANCH  36  37
ENDBRANCH  14  36
TORSDOF 8
