REMARK  Name = ZINC09620415
REMARK  6 active torsions:
REMARK  status: ('A' for Active; 'I' for Inactive)
REMARK    1  A    between atoms: C_1  and  C_2
REMARK    2  A    between atoms: C_2  and  C_4
REMARK    3  A    between atoms: C_2  and  N_68
REMARK    4  A    between atoms: N_6  and  C_7
REMARK    5  A    between atoms: C_8  and  C_17
REMARK    6  A    between atoms: C_21  and  C_24
REMARK                            x       y       z     vdW  Elec       q    Type
REMARK                         _______ _______ _______ _____ _____    ______ ____
ROOT
ATOM      1  C   UNL     1       5.503   3.899  -0.220  0.00  0.00    -0.004 C 
ATOM      2  C   UNL     1       5.275   2.851  -1.311  0.00  0.00    +0.016 C 
ENDROOT
BRANCH   2   8
ATOM      3  C   UNL     1       3.799   1.541   0.090  0.00  0.00    -0.077 C 
ATOM      4  C   UNL     1       2.437   0.844   0.136  0.00  0.00    -0.006 C 
ATOM      5  C   UNL     1       1.328   1.894   0.024  0.00  0.00    +0.072 C 
ATOM      6  C   UNL     1       1.513   2.686  -1.273  0.00  0.00    -0.006 C 
ATOM      7  C   UNL     1       2.902   3.328  -1.278  0.00  0.00    -0.077 C 
ATOM      8  N   UNL     1       3.925   2.264  -1.193  0.00  0.00    +0.387 N 
ATOM      9  H   UNL     1       3.781   1.601  -1.964  0.00  0.00    -0.081 HD
BRANCH   5  10
ATOM     10  C   UNL     1      -0.014   1.209   0.009  0.00  0.00    +0.219 C 
ATOM     11  O   UNL     1      -0.125   0.103  -0.478  0.00  0.00    -0.275 OA
ATOM     12  N   UNL     1      -1.092   1.826   0.531  0.00  0.00    -0.301 N 
ATOM     13  C   UNL     1      -2.343   1.103   0.593  0.00  0.00    +0.108 C 
ATOM     14  C   UNL     1      -3.141   1.320  -0.710  0.00  0.00    +0.019 C 
ATOM     15  C   UNL     1      -3.658   2.696  -0.768  0.00  0.00    +0.002 C 
ATOM     16  C   UNL     1      -2.577   3.772  -0.802  0.00  0.00    +0.002 C 
ATOM     17  C   UNL     1      -2.148   4.094   0.608  0.00  0.00    +0.019 C 
ATOM     18  C   UNL     1      -0.949   3.215   1.010  0.00  0.00    +0.108 C 
ENDBRANCH   5  10
ENDBRANCH   2   8
BRANCH   2  19
ATOM     19  C   UNL     1       5.409   3.498  -2.665  0.00  0.00    +0.204 C 
ATOM     20  O   UNL     1       4.474   3.487  -3.437  0.00  0.00    -0.277 OA
ATOM     21  N   UNL     1       6.568   4.088  -3.019  0.00  0.00    -0.280 N 
ATOM     22  H   UNL     1       7.316   4.097  -2.401  0.00  0.00    +0.155 HD
BRANCH  21  23
ATOM     23  C   UNL     1       6.691   4.684  -4.266  0.00  0.00    +0.090 A 
ATOM     24  C   UNL     1       7.788   5.334  -4.806  0.00  0.00    +0.084 A 
ATOM     25  C   UNL     1       7.662   5.877  -6.151  0.00  0.00    -0.018 A 
ATOM     26  C   UNL     1       6.457   5.688  -6.730  0.00  0.00    -0.004 A 
ATOM     27  S   UNL     1       5.511   4.790  -5.530  0.00  0.00    -0.077 S 
ATOM     28  C   UNL     1       6.012   6.136  -8.087  0.00  0.00    +0.043 C 
ATOM     29  C   UNL     1       7.071   5.735  -9.123  0.00  0.00    +0.005 C 
ATOM     30  C   UNL     1       8.085   6.869  -9.241  0.00  0.00    +0.001 C 
ATOM     31  C   UNL     1       8.257   7.563  -7.892  0.00  0.00    +0.005 C 
ATOM     32  C   UNL     1       8.809   6.589  -6.857  0.00  0.00    +0.037 C 
BRANCH  24  33
ATOM     33  C   UNL     1       9.007   5.468  -4.065  0.00  0.00    +0.102 C 
ATOM     34  N   UNL     1       9.973   5.574  -3.478  0.00  0.00    -0.191 NA
ENDBRANCH  24  33
ENDBRANCH  21  23
ENDBRANCH   2  19
TORSDOF 5
