REMARK  Name = ZINC23956137
REMARK  6 active torsions:
REMARK  status: ('A' for Active; 'I' for Inactive)
REMARK    1  A    between atoms: C_1  and  C_2
REMARK    2  A    between atoms: C_5  and  C_9
REMARK    3  A    between atoms: C_7  and  C_8
REMARK    4  A    between atoms: C_9  and  C_29
REMARK    5  A    between atoms: N_12  and  C_16
REMARK    6  A    between atoms: C_16  and  N_17
REMARK                            x       y       z     vdW  Elec       q    Type
REMARK                         _______ _______ _______ _____ _____    ______ ____
ROOT
ATOM      1  C   UNL     1       1.158   1.862   0.001  0.00  0.00    +0.164 C 
ATOM      2  C   UNL     1       1.287   3.183   0.734  0.00  0.00    +0.257 C 
ATOM      3  O   UNL     1       2.278   3.627   1.273  0.00  0.00    -0.272 OA
ATOM      4  N   UNL     1       0.071   3.760   0.661  0.00  0.00    -0.210 N 
ATOM      5  C   UNL     1      -0.797   2.997  -0.012  0.00  0.00    +0.311 C 
ATOM      6  O   UNL     1      -1.955   3.308  -0.212  0.00  0.00    -0.252 OA
ATOM      7  N   UNL     1      -0.247   1.847  -0.440  0.00  0.00    -0.278 N 
ATOM      8  H   UNL     1      -0.637   0.988  -1.007  0.00  0.00    +0.152 HD
ENDROOT
BRANCH   1  13
ATOM      9  C   UNL     1       4.719   1.688  -4.547  0.00  0.00    +0.044 C 
ATOM     10  C   UNL     1       3.791   1.734  -3.361  0.00  0.00    -0.048 A 
ATOM     11  C   UNL     1       4.284   2.046  -2.108  0.00  0.00    +0.004 A 
ATOM     12  C   UNL     1       3.433   2.087  -1.020  0.00  0.00    +0.007 A 
ATOM     13  C   UNL     1       2.087   1.817  -1.185  0.00  0.00    -0.010 A 
ATOM     14  C   UNL     1       1.594   1.500  -2.437  0.00  0.00    +0.010 A 
ATOM     15  C   UNL     1       2.445   1.463  -3.526  0.00  0.00    -0.047 A 
ATOM     16  C   UNL     1       1.907   1.122  -4.891  0.00  0.00    +0.044 C 
ENDBRANCH   1  13
BRANCH   1  17
ATOM     17  C   UNL     1       1.434   0.710   0.932  0.00  0.00    -0.011 A 
ATOM     18  C   UNL     1       0.553  -0.353   0.996  0.00  0.00    +0.006 A 
ATOM     19  C   UNL     1       0.808  -1.413   1.847  0.00  0.00    +0.000 A 
ATOM     20  C   UNL     1       1.940  -1.404   2.641  0.00  0.00    +0.000 A 
ATOM     21  C   UNL     1       2.818  -0.338   2.582  0.00  0.00    +0.000 A 
ATOM     22  C   UNL     1       2.565   0.719   1.727  0.00  0.00    +0.006 A 
ENDBRANCH   1  17
BRANCH   4  23
ATOM     23  C   UNL     1      -0.257   5.064   1.244  0.00  0.00    +0.205 C 
BRANCH  23  24
ATOM     24  N   UNL     1      -0.002   6.119   0.254  0.00  0.00    -0.283 NA
ATOM     25  C   UNL     1       1.424   6.471   0.215  0.00  0.00    +0.105 C 
ATOM     26  C   UNL     1       1.660   7.514  -0.880  0.00  0.00    +0.122 C 
ATOM     27  N   UNL     1       0.835   8.700  -0.609  0.00  0.00    -0.314 N 
ATOM     28  C   UNL     1      -0.591   8.348  -0.569  0.00  0.00    +0.122 C 
ATOM     29  C   UNL     1      -0.826   7.305   0.526  0.00  0.00    +0.105 C 
ATOM     30  C   UNL     1       1.077   9.699  -1.545  0.00  0.00    +0.099 A 
ATOM     31  C   UNL     1       2.372  10.171  -1.732  0.00  0.00    +0.042 A 
ATOM     32  C   UNL     1       2.598  11.165  -2.666  0.00  0.00    +0.005 A 
ATOM     33  C   UNL     1       1.516  11.656  -3.385  0.00  0.00    +0.018 A 
ATOM     34  C   UNL     1       0.257  11.142  -3.149  0.00  0.00    +0.084 A 
ATOM     35  N   UNL     1       0.072  10.189  -2.254  0.00  0.00    -0.350 N 
ATOM     36  H   UNL     1      -0.947   9.803  -2.105  0.00  0.00    +0.166 HD
ENDBRANCH  23  24
ENDBRANCH   4  23
TORSDOF 4
