REMARK  Name = ZINC63704973
REMARK  9 active torsions:
REMARK  status: ('A' for Active; 'I' for Inactive)
REMARK    1  A    between atoms: C_1  and  C_2
REMARK    2  A    between atoms: C_2  and  C_3
REMARK    3  A    between atoms: C_3  and  C_5
REMARK    4  A    between atoms: C_3  and  N_6
REMARK    5  A    between atoms: C_7  and  C_9
REMARK    6  A    between atoms: C_20  and  C_25
REMARK    7  A    between atoms: N_27  and  C_28
REMARK    8  A    between atoms: C_28  and  C_29
REMARK    9  A    between atoms: C_28  and  C_30
REMARK                            x       y       z     vdW  Elec       q    Type
REMARK                         _______ _______ _______ _____ _____    ______ ____
ROOT
ATOM      1  C   UNL     1      -4.128   0.350  -2.521  0.00  0.00    +0.039 A 
ATOM      2  C   UNL     1      -3.372   0.598  -3.672  0.00  0.00    +0.014 A 
ATOM      3  C   UNL     1      -3.985   0.959  -4.840  0.00  0.00    +0.016 A 
ATOM      4  C   UNL     1      -5.373   1.078  -4.878  0.00  0.00    +0.065 A 
ATOM      5  C   UNL     1      -6.139   0.832  -3.735  0.00  0.00    +0.062 A 
ATOM      6  C   UNL     1      -5.515   0.461  -2.552  0.00  0.00    +0.040 A 
ATOM      7  N   UNL     1      -7.543   0.956  -3.781  0.00  0.00    -0.284 N 
ATOM      8  C   UNL     1      -8.121   1.313  -4.944  0.00  0.00    +0.142 A 
ATOM      9  N   UNL     1      -7.423   1.551  -6.041  0.00  0.00    -0.193 NA
ATOM     10  C   UNL     1      -6.090   1.464  -6.109  0.00  0.00    +0.281 A 
ATOM     11  O   UNL     1      -5.491   1.694  -7.145  0.00  0.00    -0.265 OA
ATOM     12  C   UNL     1      -9.652   1.424  -4.906  0.00  0.00    +0.205 C 
ATOM     13  S   UNL     1      -9.977   0.981  -3.155  0.00  0.00    -0.079 S 
ATOM     14  C   UNL     1      -8.290   0.714  -2.660  0.00  0.00    +0.128 C 
ATOM     15  S   UNL     1      -7.721   0.254  -1.112  0.00  0.00    -0.025 S 
ENDROOT
BRANCH   1  17
ATOM     16  N   UNL     1      -2.105  -0.148  -1.230  0.00  0.00    -0.309 N 
ATOM     17  C   UNL     1      -3.448  -0.040  -1.265  0.00  0.00    +0.244 C 
ATOM     18  O   UNL     1      -4.102  -0.261  -0.264  0.00  0.00    -0.270 OA
ATOM     19  H   UNL     1      -1.584   0.029  -2.029  0.00  0.00    +0.149 HD
BRANCH  16  20
ATOM     20  C   UNL     1      -1.433  -0.534   0.013  0.00  0.00    +0.070 C 
ATOM     21  C   UNL     1      -1.413  -2.059   0.130  0.00  0.00    +0.028 C 
BRANCH  20  23
ATOM     22  C   UNL     1      -0.019   1.526   0.010  0.00  0.00    +0.005 C 
ATOM     23  C   UNL     1       0.002  -0.004   0.002  0.00  0.00    +0.018 C 
ENDBRANCH  20  23
ENDBRANCH  16  20
ENDBRANCH   1  17
BRANCH  12  24
ATOM     24  C   UNL     1     -10.104   2.829  -5.206  0.00  0.00    +0.234 C 
ATOM     25  O   UNL     1      -9.398   3.770  -4.910  0.00  0.00    -0.274 OA
ATOM     26  N   UNL     1     -11.293   3.042  -5.804  0.00  0.00    -0.312 N 
ATOM     27  H   UNL     1     -11.858   2.289  -6.041  0.00  0.00    +0.149 HD
BRANCH  26  28
ATOM     28  C   UNL     1     -11.733   4.408  -6.096  0.00  0.00    +0.067 C 
ATOM     29  C   UNL     1     -12.722   4.387  -7.263  0.00  0.00    +0.027 C 
ATOM     30  C   UNL     1     -12.414   5.000  -4.861  0.00  0.00    +0.027 C 
ENDBRANCH  26  28
ENDBRANCH  12  24
TORSDOF 5
