REMARK  Name = ZINC15503025
REMARK  5 active torsions:
REMARK  status: ('A' for Active; 'I' for Inactive)
REMARK    1  A    between atoms: C_1  and  C_2
REMARK    2  A    between atoms: C_2  and  C_10
REMARK    3  A    between atoms: C_3  and  C_4
REMARK    4  A    between atoms: N_21  and  C_22
REMARK    5  A    between atoms: C_22  and  C_23
REMARK                            x       y       z     vdW  Elec       q    Type
REMARK                         _______ _______ _______ _____ _____    ______ ____
ROOT
ATOM      1  C   UNL     1       0.006  -0.395   1.229  0.00  0.00    +0.188 C 
ATOM      2  N   UNL     1      -1.024  -1.438   1.151  0.00  0.00    -0.322 N 
ATOM      3  C   UNL     1      -1.032  -2.283   0.047  0.00  0.00    +0.041 A 
ATOM      4  C   UNL     1      -1.493  -3.585   0.123  0.00  0.00    +0.024 A 
ATOM      5  C   UNL     1      -1.475  -4.384  -1.005  0.00  0.00    +0.002 A 
ATOM      6  C   UNL     1      -0.999  -3.891  -2.210  0.00  0.00    +0.001 A 
ATOM      7  C   UNL     1      -0.536  -2.595  -2.303  0.00  0.00    +0.015 A 
ATOM      8  C   UNL     1      -0.550  -1.778  -1.175  0.00  0.00    +0.058 A 
ATOM      9  C   UNL     1      -0.081  -0.382  -1.220  0.00  0.00    +0.250 C 
ATOM     10  O   UNL     1       0.101   0.171  -2.287  0.00  0.00    -0.270 OA
ATOM     11  N   UNL     1       0.148   0.275  -0.064  0.00  0.00    -0.273 N 
ATOM     12  H   UNL     1      -1.684  -1.537   1.855  0.00  0.00    +0.148 HD
ENDROOT
BRANCH   1  14
ATOM     13  C   UNL     1       1.943  -2.071   0.725  0.00  0.00    +0.042 C 
ATOM     14  C   UNL     1       1.321  -1.024   1.613  0.00  0.00    -0.034 C 
ATOM     15  C   UNL     1       1.930  -0.656   2.732  0.00  0.00    +0.010 C 
BRANCH  15  16
ATOM     16  C   UNL     1       3.289  -1.153   3.030  0.00  0.00    -0.025 A 
ATOM     17  C   UNL     1       3.639  -1.496   4.337  0.00  0.00    +0.008 A 
ATOM     18  C   UNL     1       4.908  -1.965   4.608  0.00  0.00    +0.001 A 
ATOM     19  C   UNL     1       5.836  -2.085   3.590  0.00  0.00    +0.000 A 
ATOM     20  C   UNL     1       5.498  -1.741   2.293  0.00  0.00    +0.001 A 
ATOM     21  C   UNL     1       4.231  -1.276   2.008  0.00  0.00    +0.008 A 
ENDBRANCH  15  16
ENDBRANCH   1  14
BRANCH  11  22
ATOM     22  C   UNL     1       0.542   1.685  -0.103  0.00  0.00    +0.141 C 
BRANCH  22  23
ATOM     23  C   UNL     1       2.067   1.788  -0.166  0.00  0.00    +0.136 C 
ATOM     24  C   UNL     1       2.507   3.273  -0.137  0.00  0.00    +0.035 C 
ATOM     25  C   UNL     1       3.946   3.143   0.434  0.00  0.00    +0.031 C 
ATOM     26  C   UNL     1       3.806   1.951   1.406  0.00  0.00    +0.160 C 
ATOM     27  O   UNL     1       2.654   1.199   1.006  0.00  0.00    -0.375 OA
ENDBRANCH  22  23
ENDBRANCH  11  22
TORSDOF 4
