REMARK  Name = ZINC00875567
REMARK  5 active torsions:
REMARK  status: ('A' for Active; 'I' for Inactive)
REMARK    1  A    between atoms: C_1  and  C_2
REMARK    2  A    between atoms: C_3  and  O_28
REMARK    3  A    between atoms: C_11  and  C_13
REMARK    4  A    between atoms: C_21  and  C_26
REMARK    5  A    between atoms: C_21  and  C_27
REMARK                            x       y       z     vdW  Elec       q    Type
REMARK                         _______ _______ _______ _____ _____    ______ ____
ROOT
ATOM      1  C   UNL     1       3.716  -0.697  -0.086  0.00  0.00    +0.051 C 
ATOM      2  C   UNL     1       2.398   0.034  -0.050  0.00  0.00    +0.033 A 
ATOM      3  C   UNL     1       1.212  -0.681  -0.026  0.00  0.00    +0.123 A 
ATOM      4  C   UNL     1       0.002  -0.004   0.002  0.00  0.00    +0.046 A 
ATOM      5  C   UNL     1      -0.017   1.377   0.010  0.00  0.00    +0.011 A 
ATOM      6  C   UNL     1       1.167   2.097   0.002  0.00  0.00    +0.002 A 
ATOM      7  C   UNL     1       2.377   1.423  -0.041  0.00  0.00    +0.133 A 
ATOM      8  O   UNL     1       3.563   2.085  -0.077  0.00  0.00    -0.468 OA
ATOM      9  C   UNL     1       3.538   3.452  -0.524  0.00  0.00    +0.180 C 
ATOM     10  C   UNL     1       2.494   4.184   0.320  0.00  0.00    +0.081 C 
ATOM     11  C   UNL     1       1.107   3.602   0.047  0.00  0.00    +0.059 C 
ATOM     12  C   UNL     1       3.189   3.481  -2.002  0.00  0.00    +0.094 C 
ATOM     13  C   UNL     1       3.525   4.798  -2.688  0.00  0.00    +0.033 C 
ATOM     14  N   UNL     1       4.758   5.391  -2.183  0.00  0.00    -0.321 N 
ATOM     15  C   UNL     1       5.369   4.982  -1.066  0.00  0.00    +0.133 C 
ATOM     16  S   UNL     1       6.853   5.712  -0.623  0.00  0.00    -0.019 S 
ATOM     17  N   UNL     1       4.858   4.030  -0.277  0.00  0.00    -0.289 N 
ATOM     18  C   UNL     1       3.710   4.526  -4.194  0.00  0.00    +0.031 C 
ATOM     19  C   UNL     1       2.372   5.795  -2.532  0.00  0.00    +0.031 C 
ATOM     20  H   UNL     1       5.159   6.127  -2.685  0.00  0.00    +0.148 HD
ATOM     21  H   UNL     1       5.377   3.713   0.481  0.00  0.00    +0.151 HD
ENDROOT
BRANCH  11  22
ATOM     22  C   UNL     1       0.175   4.036   1.149  0.00  0.00    -0.021 A 
ATOM     23  C   UNL     1       0.440   3.682   2.458  0.00  0.00    +0.005 A 
ATOM     24  C   UNL     1      -0.412   4.084   3.469  0.00  0.00    +0.000 A 
ATOM     25  C   UNL     1      -1.537   4.831   3.170  0.00  0.00    +0.001 A 
ATOM     26  C   UNL     1      -1.806   5.180   1.860  0.00  0.00    +0.020 A 
ATOM     27  C   UNL     1      -0.950   4.783   0.849  0.00  0.00    +0.045 A 
ATOM     28 CL   UNL     1      -1.287   5.222  -0.797  0.00  0.00    -0.083 Cl
ENDBRANCH  11  22
BRANCH   3  29
ATOM     29  O   UNL     1       1.235  -2.039  -0.030  0.00  0.00    -0.506 OA
ATOM     30  H   UNL     1       1.222  -2.430  -0.914  0.00  0.00    +0.292 HD
ENDBRANCH   3  29
TORSDOF 2
