REMARK  Name = ZINC44420390
REMARK  3 active torsions:
REMARK  status: ('A' for Active; 'I' for Inactive)
REMARK    1  A    between atoms: C_3  and  N_11
REMARK    2  A    between atoms: C_4  and  N_10
REMARK    3  A    between atoms: C_6  and  C_7
REMARK                            x       y       z     vdW  Elec       q    Type
REMARK                         _______ _______ _______ _____ _____    ______ ____
ROOT
ATOM      1  C   UNL     1      -0.017   1.393   0.010  0.00  0.00    +0.015 A 
ATOM      2  C   UNL     1       1.166   2.099   0.002  0.00  0.00    +0.026 A 
ATOM      3  C   UNL     1       2.381   1.425  -0.013  0.00  0.00    +0.051 A 
ATOM      4  C   UNL     1       2.408   0.027  -0.021  0.00  0.00    +0.047 A 
ATOM      5  C   UNL     1       1.224  -0.685  -0.014  0.00  0.00    +0.037 A 
ATOM      6  C   UNL     1       0.002  -0.004   0.002  0.00  0.00    +0.038 A 
ENDROOT
BRANCH   3   7
ATOM      7  N   UNL     1       3.575   2.143  -0.021  0.00  0.00    -0.321 N 
ATOM      8  C   UNL     1       4.195   2.537  -1.295  0.00  0.00    +0.133 C 
ATOM      9  C   UNL     1       4.516   4.036  -1.209  0.00  0.00    +0.179 C 
ATOM     10  O   UNL     1       5.321   4.261  -0.053  0.00  0.00    -0.373 OA
ATOM     11  C   UNL     1       4.693   3.979   1.198  0.00  0.00    +0.139 C 
ATOM     12  C   UNL     1       4.217   2.515   1.236  0.00  0.00    +0.102 C 
ATOM     13  C   UNL     1       5.498   1.697   1.463  0.00  0.00    +0.025 C 
ATOM     14  C   UNL     1       6.508   2.650   2.131  0.00  0.00    +0.004 C 
ATOM     15  C   UNL     1       5.800   3.999   2.287  0.00  0.00    +0.033 C 
ENDBRANCH   3   7
BRANCH   6  16
ATOM     16  C   UNL     1      -1.265  -0.760   0.011  0.00  0.00    +0.242 C 
ATOM     17  O   UNL     1      -1.247  -1.976   0.004  0.00  0.00    -0.270 OA
ATOM     18  N   UNL     1      -2.441  -0.103   0.026  0.00  0.00    -0.325 N 
ATOM     19  H   UNL     1      -2.455   0.867   0.031  0.00  0.00    +0.145 HD
ATOM     20  H   UNL     1      -3.274  -0.600   0.031  0.00  0.00    +0.145 HD
ENDBRANCH   6  16
BRANCH   4  21
ATOM     21  N   UNL     1       3.633  -0.650  -0.038  0.00  0.00    -0.357 N 
ATOM     22  H   UNL     1       4.464  -0.150  -0.043  0.00  0.00    +0.142 HD
ATOM     23  H   UNL     1       3.651  -1.620  -0.043  0.00  0.00    +0.142 HD
ENDBRANCH   4  21
TORSDOF 3
