REMARK  Name = ZINC16629198
REMARK  7 active torsions:
REMARK  status: ('A' for Active; 'I' for Inactive)
REMARK    1  A    between atoms: C_1  and  N_54
REMARK    2  A    between atoms: C_2  and  C_3
REMARK    3  A    between atoms: C_2  and  N_54
REMARK    4  A    between atoms: C_14  and  C_15
REMARK    5  A    between atoms: C_14  and  N_54
REMARK    6  A    between atoms: N_17  and  C_18
REMARK    7  A    between atoms: C_19  and  C_28
REMARK                            x       y       z     vdW  Elec       q    Type
REMARK                         _______ _______ _______ _____ _____    ______ ____
ROOT
ATOM      1  C   UNL     1      -4.052   0.938   2.661  0.00  0.00    +0.201 C 
ATOM      2  O   UNL     1      -4.420   0.264   1.723  0.00  0.00    -0.278 OA
ATOM      3  N   UNL     1      -4.816   1.027   3.768  0.00  0.00    -0.281 N 
ATOM      4  H   UNL     1      -4.521   1.566   4.519  0.00  0.00    +0.155 HD
ENDROOT
BRANCH   3   5
ATOM      5  C   UNL     1      -6.023   0.345   3.835  0.00  0.00    +0.090 A 
ATOM      6  C   UNL     1      -6.937   0.312   4.875  0.00  0.00    +0.084 A 
ATOM      7  C   UNL     1      -8.142  -0.484   4.694  0.00  0.00    -0.018 A 
ATOM      8  C   UNL     1      -8.230  -1.123   3.507  0.00  0.00    -0.004 A 
ATOM      9  S   UNL     1      -6.757  -0.664   2.634  0.00  0.00    -0.077 S 
ATOM     10  C   UNL     1      -9.326  -2.022   3.029  0.00  0.00    +0.043 C 
ATOM     11  C   UNL     1     -10.680  -1.338   3.266  0.00  0.00    +0.005 C 
ATOM     12  C   UNL     1     -11.175  -1.716   4.659  0.00  0.00    +0.001 C 
ATOM     13  C   UNL     1      -9.991  -1.889   5.609  0.00  0.00    +0.005 C 
ATOM     14  C   UNL     1      -9.229  -0.577   5.758  0.00  0.00    +0.037 C 
BRANCH   6  15
ATOM     15  C   UNL     1      -6.704   1.037   6.088  0.00  0.00    +0.102 C 
ATOM     16  N   UNL     1      -6.519   1.612   7.050  0.00  0.00    -0.191 NA
ENDBRANCH   6  15
ENDBRANCH   3   5
BRANCH   1  17
ATOM     17  C   UNL     1      -2.741   1.678   2.589  0.00  0.00    +0.019 C 
BRANCH  17  19
ATOM     18  C   UNL     1      -2.893   2.000   0.194  0.00  0.00    -0.095 C 
ATOM     19  N   UNL     1      -2.104   1.393   1.286  0.00  0.00    +0.386 N 
ATOM     20  H   UNL     1      -2.069   0.376   1.148  0.00  0.00    -0.081 HD
BRANCH  19  21
ATOM     21  C   UNL     1      -0.726   1.927   1.271  0.00  0.00    -0.030 C 
BRANCH  21  22
ATOM     22  C   UNL     1      -0.017   1.427   0.010  0.00  0.00    +0.194 C 
ATOM     23  C   UNL     1       1.433   1.928  -0.001  0.00  0.00    +0.271 C 
ATOM     24  O   UNL     1       2.069   1.433  -1.185  0.00  0.00    -0.485 OA
ATOM     25  C   UNL     1       1.878   0.117  -1.476  0.00  0.00    +0.162 A 
ATOM     26  C   UNL     1       2.727  -0.511  -2.376  0.00  0.00    +0.049 A 
ATOM     27  C   UNL     1       2.542  -1.845  -2.686  0.00  0.00    +0.004 A 
ATOM     28  C   UNL     1       1.512  -2.557  -2.102  0.00  0.00    +0.004 A 
ATOM     29  C   UNL     1       0.663  -1.938  -1.203  0.00  0.00    +0.049 A 
ATOM     30  C   UNL     1       0.844  -0.600  -0.886  0.00  0.00    +0.162 A 
ATOM     31  O   UNL     1       0.002  -0.004   0.002  0.00  0.00    -0.484 OA
ENDBRANCH  21  22
ENDBRANCH  19  21
ENDBRANCH  17  19
ENDBRANCH   1  17
TORSDOF 6
