REMARK  Name = ZINC63349876
REMARK  10 active torsions:
REMARK  status: ('A' for Active; 'I' for Inactive)
REMARK    1  A    between atoms: C_1  and  C_2
REMARK    2  A    between atoms: C_4  and  O_11
REMARK    3  A    between atoms: C_7  and  N_8
REMARK    4  A    between atoms: O_11  and  C_12
REMARK    5  A    between atoms: C_12  and  C_13
REMARK    6  A    between atoms: C_15  and  C_21
REMARK    7  A    between atoms: C_18  and  O_19
REMARK    8  A    between atoms: O_19  and  C_20
REMARK    9  A    between atoms: C_28  and  O_33
REMARK   10  A    between atoms: O_33  and  C_34
REMARK                            x       y       z     vdW  Elec       q    Type
REMARK                         _______ _______ _______ _____ _____    ______ ____
ROOT
ATOM      1  C   UNL     1      -0.047  -4.944  -3.748  0.00  0.00    +0.032 A 
ATOM      2  C   UNL     1      -0.424  -4.017  -4.700  0.00  0.00    +0.015 A 
ATOM      3  C   UNL     1      -0.572  -4.400  -6.020  0.00  0.00    -0.028 A 
ATOM      4  C   UNL     1      -0.343  -5.713  -6.391  0.00  0.00    +0.009 A 
ATOM      5  C   UNL     1       0.034  -6.644  -5.443  0.00  0.00    +0.046 A 
ATOM      6  C   UNL     1       0.189  -6.260  -4.119  0.00  0.00    +0.126 A 
ENDROOT
BRANCH   3   7
ATOM      7  C   UNL     1      -0.984  -3.386  -7.056  0.00  0.00    +0.111 C 
ATOM      8  C   UNL     1       0.017  -3.396  -8.214  0.00  0.00    +0.128 C 
ATOM      9  C   UNL     1      -0.124  -4.756  -8.888  0.00  0.00    -0.035 C 
ATOM     10  C   UNL     1       1.090  -5.287  -8.920  0.00  0.00    +0.003 A 
ATOM     11  C   UNL     1       1.606  -6.530  -9.512  0.00  0.00    +0.055 A 
ATOM     12  C   UNL     1       2.933  -6.783  -9.343  0.00  0.00    +0.121 A 
ATOM     13  C   UNL     1       3.811  -5.937  -8.650  0.00  0.00    +0.047 A 
ATOM     14  C   UNL     1       3.443  -4.765  -8.070  0.00  0.00    +0.029 A 
ATOM     15  C   UNL     1       2.031  -4.380  -8.191  0.00  0.00    +0.043 A 
ATOM     16  N   UNL     1       1.404  -3.304  -7.759  0.00  0.00    -0.376 N 
ATOM     17  C   UNL     1      -1.471  -5.303  -9.294  0.00  0.00    +0.048 C 
ATOM     18  C   UNL     1      -2.396  -5.113  -8.078  0.00  0.00    +0.086 C 
ATOM     19  N   UNL     1      -2.311  -3.733  -7.589  0.00  0.00    -0.307 NA
ATOM     20  H   UNL     1      -3.034  -3.544  -6.910  0.00  0.00    +0.123 HD
ATOM     21  H   UNL     1       1.782  -2.582  -7.233  0.00  0.00    +0.160 HD
BRANCH  12  22
ATOM     22  O   UNL     1       3.439  -7.925  -9.879  0.00  0.00    -0.495 OA
ATOM     23  C   UNL     1       4.834  -8.169  -9.689  0.00  0.00    +0.277 C 
ENDBRANCH  12  22
ENDBRANCH   3   7
BRANCH   6  24
ATOM     24  O   UNL     1       0.565  -7.173  -3.185  0.00  0.00    -0.495 OA
ATOM     25  C   UNL     1       0.791  -8.509  -3.639  0.00  0.00    +0.277 C 
ENDBRANCH   6  24
BRANCH   1  26
ATOM     26  C   UNL     1       0.114  -4.526  -2.310  0.00  0.00    +0.268 C 
BRANCH  26  27
ATOM     27  O   UNL     1      -0.183  -3.134  -2.183  0.00  0.00    -0.487 OA
BRANCH  27  31
ATOM     28  C   UNL     1      -0.556   0.762   0.734  0.00  0.00    +0.046 C 
ATOM     29  C   UNL     1      -0.259  -0.700   0.521  0.00  0.00    -0.017 A 
ATOM     30  C   UNL     1      -0.359  -1.247  -0.744  0.00  0.00    +0.051 A 
ATOM     31  C   UNL     1      -0.085  -2.593  -0.940  0.00  0.00    +0.121 A 
ATOM     32  C   UNL     1       0.288  -3.386   0.136  0.00  0.00    +0.048 A 
ATOM     33  C   UNL     1       0.387  -2.834   1.398  0.00  0.00    +0.036 A 
ATOM     34  C   UNL     1       0.118  -1.491   1.590  0.00  0.00    +0.129 A 
BRANCH  34  35
ATOM     35  N   UNL     1       0.231  -0.900   2.942  0.00  0.00    +0.057 N 
ATOM     36  O   UNL     1       0.671   0.217   3.079  0.00  0.00    -0.126 OA
ATOM     37  O   UNL     1      -0.118  -1.536   3.910  0.00  0.00    -0.126 OA
ENDBRANCH  34  35
ENDBRANCH  27  31
ENDBRANCH  26  27
ENDBRANCH   1  26
TORSDOF 7
