REMARK  Name = ZINC64182160
REMARK  5 active torsions:
REMARK  status: ('A' for Active; 'I' for Inactive)
REMARK    1  A    between atoms: C_1  and  C_2
REMARK    2  A    between atoms: C_5  and  S_8
REMARK    3  A    between atoms: S_8  and  N_11
REMARK    4  A    between atoms: C_15  and  C_17
REMARK    5  A    between atoms: C_22  and  C_25
REMARK                            x       y       z     vdW  Elec       q    Type
REMARK                         _______ _______ _______ _____ _____    ______ ____
ROOT
ATOM      1  C   UNL     1       2.292  -3.879   2.289  0.00  0.00    +0.235 C 
ATOM      2  O   UNL     1       1.843  -2.789   2.005  0.00  0.00    -0.274 OA
ATOM      3  N   UNL     1       3.011  -4.038   3.417  0.00  0.00    -0.296 N 
ATOM      4  C   UNL     1       3.264  -2.910   4.329  0.00  0.00    +0.113 C 
ATOM      5  C   UNL     1       2.609  -3.232   5.674  0.00  0.00    +0.054 C 
ATOM      6  C   UNL     1       2.926  -4.639   6.087  0.00  0.00    -0.043 C 
ATOM      7  C   UNL     1       3.346  -5.583   5.253  0.00  0.00    -0.004 C 
ATOM      8  C   UNL     1       3.568  -5.346   3.789  0.00  0.00    +0.135 C 
ENDROOT
BRANCH   6   9
ATOM      9  C   UNL     1       2.767  -4.981   7.445  0.00  0.00    -0.016 C 
ATOM     10  C   UNL     1       2.238  -4.186   8.454  0.00  0.00    +0.003 A 
ATOM     11  C   UNL     1       1.721  -2.870   8.462  0.00  0.00    +0.010 A 
ATOM     12  C   UNL     1       1.262  -2.335   9.620  0.00  0.00    +0.001 A 
ATOM     13  C   UNL     1       1.285  -3.053  10.820  0.00  0.00    +0.002 A 
ATOM     14  C   UNL     1       1.765  -4.317  10.888  0.00  0.00    +0.026 A 
ATOM     15  C   UNL     1       2.265  -4.947   9.716  0.00  0.00    +0.043 A 
ATOM     16  N   UNL     1       2.776  -6.144   9.521  0.00  0.00    -0.380 N 
ATOM     17  C   UNL     1       3.131  -6.292   8.107  0.00  0.00    +0.149 C 
ATOM     18  H   UNL     1       2.894  -6.822  10.204  0.00  0.00    +0.160 HD
ENDBRANCH   6   9
BRANCH   1  23
ATOM     19  N   UNL     1       0.943  -4.751   0.456  0.00  0.00    -0.165 NA
ATOM     20  C   UNL     1       1.446  -4.842  -0.927  0.00  0.00    +0.110 C 
ATOM     21  C   UNL     1       2.973  -4.606  -0.809  0.00  0.00    +0.019 C 
ATOM     22  C   UNL     1       3.298  -5.332   0.523  0.00  0.00    +0.031 C 
ATOM     23  C   UNL     1       2.045  -5.055   1.380  0.00  0.00    +0.166 C 
BRANCH  19  24
ATOM     24  S   UNL     1      -0.606  -4.364   0.895  0.00  0.00    +0.062 S 
ATOM     25  O   UNL     1      -1.111  -3.501  -0.115  0.00  0.00    -0.153 OA
ATOM     26  O   UNL     1      -0.557  -3.987   2.265  0.00  0.00    -0.153 OA
BRANCH  24  31
ATOM     27  C   UNL     1      -3.863  -9.435   0.620  0.00  0.00    +0.044 C 
ATOM     28  C   UNL     1      -3.050  -8.169   0.689  0.00  0.00    -0.050 A 
ATOM     29  C   UNL     1      -2.320  -7.877   1.826  0.00  0.00    +0.005 A 
ATOM     30  C   UNL     1      -1.573  -6.715   1.889  0.00  0.00    +0.029 A 
ATOM     31  C   UNL     1      -1.557  -5.845   0.815  0.00  0.00    +0.106 A 
ATOM     32  C   UNL     1      -2.286  -6.138  -0.323  0.00  0.00    +0.029 A 
ATOM     33  C   UNL     1      -3.029  -7.301  -0.387  0.00  0.00    +0.005 A 
ENDBRANCH  24  31
ENDBRANCH  19  24
ENDBRANCH   1  23
TORSDOF 4
