REMARK  Name = ZINC08582650
REMARK  13 active torsions:
REMARK  status: ('A' for Active; 'I' for Inactive)
REMARK    1  A    between atoms: C_1  and  C_2
REMARK    2  A    between atoms: C_2  and  C_3
REMARK    3  A    between atoms: C_3  and  C_5
REMARK    4  A    between atoms: C_3  and  N_66
REMARK    5  A    between atoms: N_9  and  C_10
REMARK    6  A    between atoms: C_10  and  C_11
REMARK    7  A    between atoms: C_16  and  C_17
REMARK    8  A    between atoms: C_16  and  N_66
REMARK    9  A    between atoms: C_17  and  C_18
REMARK   10  A    between atoms: C_24  and  C_25
REMARK   11  A    between atoms: C_24  and  N_66
REMARK   12  A    between atoms: C_29  and  C_36
REMARK   13  A    between atoms: C_34  and  O_35
REMARK                            x       y       z     vdW  Elec       q    Type
REMARK                         _______ _______ _______ _____ _____    ______ ____
ROOT
ATOM      1  N   UNL     1      -0.446   1.388  -0.701  0.00  0.00    +0.389 N 
ATOM      2  H   UNL     1      -1.468   1.382  -0.606  0.00  0.00    -0.080 HD
ENDROOT
BRANCH   1   3
ATOM      3  C   UNL     1      -0.091   1.042  -2.093  0.00  0.00    +0.003 C 
BRANCH   3   4
ATOM      4  C   UNL     1       1.205   1.703  -2.485  0.00  0.00    +0.139 A 
ATOM      5  N   UNL     1       1.433   2.992  -2.567  0.00  0.00    -0.115 NA
ATOM      6  N   UNL     1       2.658   3.157  -2.930  0.00  0.00    -0.023 NA
ATOM      7  N   UNL     1       3.215   2.008  -3.090  0.00  0.00    -0.044 NA
ATOM      8  N   UNL     1       2.352   1.086  -2.825  0.00  0.00    -0.223 N 
BRANCH   8   9
ATOM      9  C   UNL     1       2.578  -0.360  -2.884  0.00  0.00    +0.221 C 
BRANCH   9  10
ATOM     10  C   UNL     1       2.247  -0.864  -4.265  0.00  0.00    +0.126 A 
ATOM     11  C   UNL     1       3.105  -0.949  -5.297  0.00  0.00    +0.046 A 
ATOM     12  C   UNL     1       2.379  -1.474  -6.391  0.00  0.00    +0.041 A 
ATOM     13  C   UNL     1       1.119  -1.671  -5.964  0.00  0.00    +0.195 A 
ATOM     14  O   UNL     1       1.045  -1.300  -4.675  0.00  0.00    -0.466 OA
ENDBRANCH   9  10
ENDBRANCH   8   9
ENDBRANCH   3   4
BRANCH   3  16
ATOM     15  C   UNL     1      -2.492   0.745  -2.718  0.00  0.00    +0.002 C 
ATOM     16  C   UNL     1      -1.211   1.526  -3.016  0.00  0.00    -0.011 C 
ENDBRANCH   3  16
ENDBRANCH   1   3
BRANCH   1  17
ATOM     17  C   UNL     1       0.059   2.739  -0.372  0.00  0.00    -0.073 C 
BRANCH  17  18
ATOM     18  C   UNL     1      -0.820   3.775  -1.075  0.00  0.00    +0.016 C 
BRANCH  18  19
ATOM     19  C   UNL     1      -0.440   5.156  -0.606  0.00  0.00    -0.049 A 
ATOM     20  C   UNL     1      -1.072   5.712   0.490  0.00  0.00    +0.003 A 
ATOM     21  C   UNL     1      -0.720   6.977   0.923  0.00  0.00    +0.000 A 
ATOM     22  C   UNL     1       0.257   7.690   0.254  0.00  0.00    +0.000 A 
ATOM     23  C   UNL     1       0.885   7.136  -0.846  0.00  0.00    +0.000 A 
ATOM     24  C   UNL     1       0.537   5.869  -1.276  0.00  0.00    +0.003 A 
ENDBRANCH  18  19
ENDBRANCH  17  18
ENDBRANCH   1  17
BRANCH   1  25
ATOM     25  C   UNL     1       0.129   0.394   0.230  0.00  0.00    -0.037 C 
BRANCH  25  26
ATOM     26  C   UNL     1      -0.665  -0.882   0.126  0.00  0.00    -0.002 A 
ATOM     27  C   UNL     1      -0.141  -1.962  -0.521  0.00  0.00    +0.017 A 
ATOM     28  C   UNL     1      -0.917  -3.136  -0.595  0.00  0.00    +0.001 A 
ATOM     29  C   UNL     1      -0.441  -4.285  -1.246  0.00  0.00    +0.013 A 
ATOM     30  C   UNL     1      -1.219  -5.401  -1.298  0.00  0.00    -0.050 A 
ATOM     31  C   UNL     1      -2.483  -5.418  -0.713  0.00  0.00    +0.005 A 
ATOM     32  C   UNL     1      -2.977  -4.322  -0.075  0.00  0.00    +0.029 A 
ATOM     33  C   UNL     1      -2.203  -3.151  -0.000  0.00  0.00    +0.075 A 
ATOM     34  N   UNL     1      -2.663  -2.059   0.620  0.00  0.00    -0.213 NA
ATOM     35  C   UNL     1      -1.940  -0.962   0.698  0.00  0.00    +0.214 A 
ATOM     36  C   UNL     1      -0.706  -6.633  -1.997  0.00  0.00    +0.044 C 
BRANCH  35  37
ATOM     37  O   UNL     1      -2.445   0.118   1.343  0.00  0.00    -0.492 OA
ATOM     38  H   UNL     1      -3.014   0.674   0.793  0.00  0.00    +0.294 HD
ENDBRANCH  35  37
ENDBRANCH  25  26
ENDBRANCH   1  25
TORSDOF 11
