REMARK  Name = ZINC01382417
REMARK  11 active torsions:
REMARK  status: ('A' for Active; 'I' for Inactive)
REMARK    1  A    between atoms: C_1  and  C_2
REMARK    2  A    between atoms: C_2  and  C_3
REMARK    3  A    between atoms: C_10  and  C_15
REMARK    4  A    between atoms: C_15  and  C_17
REMARK    5  A    between atoms: C_15  and  N_28
REMARK    6  A    between atoms: N_21  and  C_22
REMARK    7  A    between atoms: C_22  and  C_23
REMARK    8  A    between atoms: N_28  and  C_29
REMARK    9  A    between atoms: N_28  and  C_37
REMARK   10  A    between atoms: C_29  and  C_30
REMARK   11  A    between atoms: C_37  and  C_38
REMARK                            x       y       z     vdW  Elec       q    Type
REMARK                         _______ _______ _______ _____ _____    ______ ____
ROOT
ATOM      1  C   UNL     1       5.955  -1.737  -5.171  0.00  0.00    +0.163 C 
ENDROOT
BRANCH   1   9
ATOM      2  C   UNL     1      -0.183  -1.229  -5.771  0.00  0.00    -0.047 A 
ATOM      3  C   UNL     1      -0.256  -1.736  -7.061  0.00  0.00    +0.005 A 
ATOM      4  C   UNL     1       0.883  -2.140  -7.723  0.00  0.00    +0.026 A 
ATOM      5  C   UNL     1       2.120  -2.039  -7.094  0.00  0.00    +0.049 A 
ATOM      6  C   UNL     1       2.190  -1.524  -5.786  0.00  0.00    -0.001 A 
ATOM      7  C   UNL     1       1.021  -1.115  -5.135  0.00  0.00    +0.013 A 
ATOM      8  C   UNL     1       3.496  -1.422  -5.133  0.00  0.00    +0.021 A 
ATOM      9  C   UNL     1       4.595  -1.829  -5.814  0.00  0.00    +0.042 A 
ATOM     10  C   UNL     1       4.471  -2.338  -7.125  0.00  0.00    +0.254 A 
ATOM     11  O   UNL     1       5.471  -2.699  -7.720  0.00  0.00    -0.268 OA
ATOM     12  N   UNL     1       3.276  -2.436  -7.733  0.00  0.00    -0.322 N 
ATOM     13  H   UNL     1       3.225  -2.792  -8.634  0.00  0.00    +0.169 HD
BRANCH   2  15
ATOM     14  C   UNL     1      -1.709   0.683  -5.367  0.00  0.00    +0.009 C 
ATOM     15  C   UNL     1      -1.442  -0.793  -5.067  0.00  0.00    +0.032 C 
ENDBRANCH   2  15
ENDBRANCH   1   9
BRANCH   1  16
ATOM     16  C   UNL     1       6.803  -0.748  -5.928  0.00  0.00    +0.174 A 
ATOM     17  N   UNL     1       7.368  -0.934  -7.096  0.00  0.00    -0.111 NA
ATOM     18  N   UNL     1       8.006   0.142  -7.405  0.00  0.00    -0.023 NA
ATOM     19  N   UNL     1       7.863   1.009  -6.464  0.00  0.00    -0.043 NA
ATOM     20  N   UNL     1       7.123   0.500  -5.538  0.00  0.00    -0.220 N 
BRANCH  20  21
ATOM     21  C   UNL     1       6.712   1.155  -4.294  0.00  0.00    +0.221 C 
BRANCH  21  22
ATOM     22  C   UNL     1       7.733   0.880  -3.220  0.00  0.00    +0.126 A 
ATOM     23  C   UNL     1       8.811   1.636  -2.947  0.00  0.00    +0.046 A 
ATOM     24  C   UNL     1       9.488   1.013  -1.873  0.00  0.00    +0.041 A 
ATOM     25  C   UNL     1       8.782  -0.086  -1.554  0.00  0.00    +0.195 A 
ATOM     26  O   UNL     1       7.717  -0.159  -2.369  0.00  0.00    -0.466 OA
ENDBRANCH  21  22
ENDBRANCH  20  21
ENDBRANCH   1  16
BRANCH   1  27
ATOM     27  N   UNL     1       6.600  -3.057  -5.198  0.00  0.00    -0.277 NA
BRANCH  27  28
ATOM     28  C   UNL     1       7.930  -3.005  -4.577  0.00  0.00    +0.122 C 
BRANCH  28  29
ATOM     29  C   UNL     1       8.685  -4.269  -4.902  0.00  0.00    -0.015 A 
ATOM     30  C   UNL     1       9.295  -4.989  -3.892  0.00  0.00    +0.006 A 
ATOM     31  C   UNL     1       9.987  -6.147  -4.189  0.00  0.00    +0.000 A 
ATOM     32  C   UNL     1      10.070  -6.587  -5.498  0.00  0.00    +0.001 A 
ATOM     33  C   UNL     1       9.461  -5.868  -6.508  0.00  0.00    +0.020 A 
ATOM     34  C   UNL     1       8.763  -4.711  -6.210  0.00  0.00    +0.045 A 
ATOM     35 CL   UNL     1       7.991  -3.811  -7.479  0.00  0.00    -0.083 Cl
ENDBRANCH  28  29
ENDBRANCH  27  28
BRANCH  27  36
ATOM     36  C   UNL     1       5.755  -4.069  -4.550  0.00  0.00    +0.160 C 
BRANCH  36  37
ATOM     37  C   UNL     1       6.100  -5.432  -5.090  0.00  0.00    +0.119 A 
ATOM     38  C   UNL     1       6.470  -6.499  -4.358  0.00  0.00    +0.046 A 
ATOM     39  C   UNL     1       6.696  -7.559  -5.265  0.00  0.00    +0.041 A 
ATOM     40  C   UNL     1       6.451  -7.078  -6.497  0.00  0.00    +0.195 A 
ATOM     41  O   UNL     1       6.085  -5.791  -6.385  0.00  0.00    -0.467 OA
ENDBRANCH  36  37
ENDBRANCH  27  36
ENDBRANCH   1  27
TORSDOF 10
