REMARK  Name = ZINC34747470
REMARK  8 active torsions:
REMARK  status: ('A' for Active; 'I' for Inactive)
REMARK    1  A    between atoms: C_1  and  C_2
REMARK    2  A    between atoms: C_2  and  N_3
REMARK    3  A    between atoms: N_3  and  C_4
REMARK    4  A    between atoms: C_4  and  C_5
REMARK    5  A    between atoms: C_6  and  C_8
REMARK    6  A    between atoms: C_8  and  N_9
REMARK    7  A    between atoms: N_28  and  C_29
REMARK    8  A    between atoms: C_29  and  C_30
REMARK                            x       y       z     vdW  Elec       q    Type
REMARK                         _______ _______ _______ _____ _____    ______ ____
ROOT
ATOM      1  N   UNL     1      -1.137  -1.117  -4.829  0.00  0.00    +0.387 N 
ATOM      2  C   UNL     1      -1.422  -1.294  -6.259  0.00  0.00    -0.059 C 
ATOM      3  C   UNL     1      -2.924  -1.113  -6.505  0.00  0.00    +0.089 C 
ATOM      4  N   UNL     1      -3.655  -2.034  -5.621  0.00  0.00    -0.304 N 
ATOM      5  C   UNL     1      -3.314  -2.039  -4.190  0.00  0.00    +0.089 C 
ATOM      6  C   UNL     1      -1.794  -2.176  -4.053  0.00  0.00    -0.059 C 
ATOM      7  C   UNL     1      -4.629  -2.865  -6.117  0.00  0.00    +0.202 A 
ATOM      8  N   UNL     1      -4.299  -4.063  -6.554  0.00  0.00    -0.208 NA
ATOM      9  C   UNL     1      -5.221  -4.887  -7.039  0.00  0.00    +0.117 A 
ATOM     10  C   UNL     1      -6.578  -4.531  -7.112  0.00  0.00    +0.076 A 
ATOM     11  C   UNL     1      -7.475  -5.544  -7.671  0.00  0.00    -0.023 A 
ATOM     12  C   UNL     1      -6.918  -6.709  -8.058  0.00  0.00    -0.004 A 
ATOM     13  S   UNL     1      -5.190  -6.532  -7.706  0.00  0.00    -0.073 S 
ATOM     14  C   UNL     1      -7.614  -7.894  -8.655  0.00  0.00    +0.043 C 
ATOM     15  C   UNL     1      -9.124  -7.735  -8.427  0.00  0.00    +0.005 C 
ATOM     16  C   UNL     1      -9.535  -6.315  -8.826  0.00  0.00    +0.005 C 
ATOM     17  C   UNL     1      -8.976  -5.310  -7.819  0.00  0.00    +0.037 C 
ATOM     18  C   UNL     1      -6.906  -3.224  -6.630  0.00  0.00    +0.264 A 
ATOM     19  O   UNL     1      -8.058  -2.828  -6.653  0.00  0.00    -0.267 OA
ATOM     20  N   UNL     1      -5.924  -2.441  -6.146  0.00  0.00    -0.271 N 
ATOM     21  H   UNL     1      -1.482  -0.218  -4.529  0.00  0.00    -0.081 HD
ENDROOT
BRANCH   1  22
ATOM     22  C   UNL     1       0.315  -1.181  -4.611  0.00  0.00    +0.019 C 
BRANCH  22  24
ATOM     23  N   UNL     1       2.318   0.125  -5.243  0.00  0.00    -0.304 N 
ATOM     24  C   UNL     1       0.979  -0.022  -5.307  0.00  0.00    +0.199 C 
ATOM     25  O   UNL     1       0.310   0.779  -5.925  0.00  0.00    -0.278 OA
BRANCH  23  27
ATOM     26  C   UNL     1       3.263  -0.380  -3.045  0.00  0.00    +0.024 C 
ATOM     27  C   UNL     1       3.126  -0.843  -4.497  0.00  0.00    +0.104 C 
ENDBRANCH  23  27
BRANCH  23  28
ATOM     28  C   UNL     1       2.964   1.252  -5.920  0.00  0.00    +0.104 C 
ATOM     29  C   UNL     1       3.333   0.845  -7.348  0.00  0.00    +0.024 C 
ENDBRANCH  23  28
ENDBRANCH  22  24
ENDBRANCH   1  22
BRANCH  20  30
ATOM     30  C   UNL     1      -6.253  -1.103  -5.647  0.00  0.00    +0.224 C 
BRANCH  30  31
ATOM     31  C   UNL     1      -6.247  -0.123  -6.792  0.00  0.00    +0.236 C 
ATOM     32  O   UNL     1      -5.992  -0.505  -7.915  0.00  0.00    -0.274 OA
ATOM     33  N   UNL     1      -6.524   1.176  -6.568  0.00  0.00    -0.296 N 
ATOM     34  C   UNL     1      -6.830   1.663  -5.213  0.00  0.00    +0.136 C 
ATOM     35  C   UNL     1      -5.945   2.882  -4.927  0.00  0.00    +0.179 C 
ATOM     36  O   UNL     1      -6.088   3.828  -5.989  0.00  0.00    -0.377 OA
ATOM     37  C   UNL     1      -5.659   3.345  -7.264  0.00  0.00    +0.179 C 
ATOM     38  C   UNL     1      -6.524   2.152  -7.670  0.00  0.00    +0.136 C 
ENDBRANCH  30  31
ENDBRANCH  20  30
TORSDOF 6
