REMARK  Name = ZINC22506803
REMARK  13 active torsions:
REMARK  status: ('A' for Active; 'I' for Inactive)
REMARK    1  A    between atoms: C_1  and  C_2
REMARK    2  A    between atoms: C_2  and  C_30
REMARK    3  A    between atoms: N_3  and  N_4
REMARK    4  A    between atoms: N_4  and  C_5
REMARK    5  A    between atoms: C_9  and  C_12
REMARK    6  A    between atoms: C_12  and  C_13
REMARK    7  A    between atoms: N_15  and  C_16
REMARK    8  A    between atoms: C_19  and  N_22
REMARK    9  A    between atoms: N_23  and  C_24
REMARK   10  A    between atoms: C_30  and  C_31
REMARK   11  A    between atoms: C_31  and  C_32
REMARK   12  A    between atoms: C_31  and  C_33
REMARK   13  A    between atoms: C_31  and  O_34
REMARK                            x       y       z     vdW  Elec       q    Type
REMARK                         _______ _______ _______ _____ _____    ______ ____
ROOT
ATOM      1  C   UNL     1       1.307  -6.617   4.786  0.00  0.00    +0.219 C 
ATOM      2  O   UNL     1       0.324  -7.131   4.296  0.00  0.00    -0.275 OA
ATOM      3  N   UNL     1       2.328  -7.385   5.212  0.00  0.00    -0.285 N 
ATOM      4  H   UNL     1       3.142  -6.972   5.542  0.00  0.00    +0.155 HD
ENDROOT
BRANCH   3   5
ATOM      5  C   UNL     1       2.216  -8.776   5.179  0.00  0.00    +0.034 A 
ATOM      6  C   UNL     1       1.519  -9.392   4.144  0.00  0.00    +0.025 A 
ATOM      7  C   UNL     1       1.406 -10.763   4.108  0.00  0.00    +0.031 A 
ATOM      8  C   UNL     1       1.993 -11.538   5.114  0.00  0.00    +0.086 A 
ATOM      9  C   UNL     1       2.693 -10.916   6.153  0.00  0.00    +0.031 A 
ATOM     10  C   UNL     1       2.806  -9.544   6.178  0.00  0.00    +0.025 A 
BRANCH   8  11
ATOM     11  N   UNL     1       1.883 -12.898   5.082  0.00  0.00    -0.149 NA
ATOM     12  N   UNL     1       2.425 -13.611   6.010  0.00  0.00    -0.149 NA
BRANCH  12  13
ATOM     13  C   UNL     1       2.314 -14.974   5.978  0.00  0.00    +0.086 A 
ATOM     14  C   UNL     1       1.620 -15.598   4.938  0.00  0.00    +0.029 A 
ATOM     15  C   UNL     1       1.513 -16.972   4.912  0.00  0.00    +0.002 A 
ATOM     16  C   UNL     1       2.090 -17.734   5.913  0.00  0.00    +0.000 A 
ATOM     17  C   UNL     1       2.779 -17.123   6.946  0.00  0.00    +0.002 A 
ATOM     18  C   UNL     1       2.900 -15.750   6.982  0.00  0.00    +0.029 A 
ENDBRANCH  12  13
ENDBRANCH   8  11
ENDBRANCH   3   5
BRANCH   1  19
ATOM     19  C   UNL     1       1.386  -5.117   4.918  0.00  0.00    +0.120 C 
BRANCH  19  24
ATOM     20  C   UNL     1       0.053  -2.750   2.268  0.00  0.00    +0.191 C 
ATOM     21  N   UNL     1       0.061  -2.257   3.500  0.00  0.00    -0.155 NA
ATOM     22  C   UNL     1       0.086  -2.981   4.585  0.00  0.00    +0.252 C 
ATOM     23  O   UNL     1       0.091  -2.487   5.696  0.00  0.00    -0.272 OA
ATOM     24  C   UNL     1       0.107  -4.488   4.362  0.00  0.00    +0.150 C 
ATOM     25  S   UNL     1       0.078  -4.519   2.521  0.00  0.00    -0.076 S 
BRANCH  20  26
ATOM     26  N   UNL     1       0.027  -2.067   1.086  0.00  0.00    -0.094 NA
BRANCH  26  29
ATOM     27  C   UNL     1      -0.030   1.482  -0.021  0.00  0.00    +0.062 C 
ATOM     28  C   UNL     1      -0.013  -0.025  -0.021  0.00  0.00    +0.038 C 
ATOM     29  N   UNL     1       0.011  -0.666   1.087  0.00  0.00    -0.167 NA
BRANCH  28  30
ATOM     30  C   UNL     1      -0.025  -0.778  -1.327  0.00  0.00    +0.086 C 
BRANCH  30  31
ATOM     31  C   UNL     1      -1.346  -0.520  -2.053  0.00  0.00    +0.066 C 
ATOM     32  C   UNL     1      -1.411  -1.381  -3.316  0.00  0.00    +0.041 C 
ATOM     33  C   UNL     1      -2.513  -0.879  -1.131  0.00  0.00    +0.041 C 
BRANCH  31  34
ATOM     34  O   UNL     1      -1.431   0.860  -2.412  0.00  0.00    -0.389 OA
ATOM     35  H   UNL     1      -0.721   1.159  -2.997  0.00  0.00    +0.210 HD
ENDBRANCH  31  34
ENDBRANCH  30  31
ENDBRANCH  28  30
ENDBRANCH  26  29
ENDBRANCH  20  26
ENDBRANCH  19  24
ENDBRANCH   1  19
TORSDOF 10
