REMARK  Name = ZINC39859463
REMARK  10 active torsions:
REMARK  status: ('A' for Active; 'I' for Inactive)
REMARK    1  A    between atoms: C_1  and  C_2
REMARK    2  A    between atoms: C_2  and  C_3
REMARK    3  A    between atoms: C_8  and  N_9
REMARK    4  A    between atoms: N_9  and  C_10
REMARK    5  A    between atoms: C_10  and  N_12
REMARK    6  A    between atoms: N_12  and  C_13
REMARK    7  A    between atoms: C_13  and  C_15
REMARK    8  A    between atoms: C_13  and  N_19
REMARK    9  A    between atoms: C_20  and  C_22
REMARK   10  A    between atoms: C_26  and  N_28
REMARK                            x       y       z     vdW  Elec       q    Type
REMARK                         _______ _______ _______ _____ _____    ______ ____
ROOT
ATOM      1  C   UNL     1       6.311  -0.469   1.061  0.00  0.00    +0.211 C 
ENDROOT
BRANCH   1   2
ATOM      2  C   UNL     1       6.999   0.709   1.755  0.00  0.00    +0.225 C 
ATOM      3 CL   UNL     1       6.385   0.852   3.444  0.00  0.00    -0.080 Cl
ATOM      4 CL   UNL     1       8.780   0.433   1.784  0.00  0.00    -0.080 Cl
ATOM      5 CL   UNL     1       6.640   2.229   0.855  0.00  0.00    -0.080 Cl
ENDBRANCH   1   2
BRANCH   1   6
ATOM      6  N   UNL     1       6.603  -1.704   1.792  0.00  0.00    -0.290 N 
ATOM      7  C   UNL     1       6.957  -2.818   1.120  0.00  0.00    +0.246 C 
ATOM      8  O   UNL     1       7.035  -2.796  -0.093  0.00  0.00    -0.270 OA
ATOM      9  H   UNL     1       6.541  -1.721   2.760  0.00  0.00    +0.151 HD
BRANCH   7  10
ATOM     10  C   UNL     1       7.251  -4.065   1.858  0.00  0.00    +0.039 A 
ATOM     11  C   UNL     1       7.157  -4.094   3.250  0.00  0.00    +0.013 A 
ATOM     12  C   UNL     1       7.432  -5.261   3.933  0.00  0.00    +0.003 A 
ATOM     13  C   UNL     1       7.801  -6.400   3.240  0.00  0.00    +0.033 A 
ATOM     14  C   UNL     1       7.896  -6.378   1.860  0.00  0.00    +0.127 A 
ATOM     15  C   UNL     1       7.618  -5.219   1.165  0.00  0.00    +0.045 A 
BRANCH  14  16
ATOM     16  N   UNL     1       8.292  -7.602   1.127  0.00  0.00    +0.056 N 
ATOM     17  O   UNL     1       8.532  -8.619   1.735  0.00  0.00    -0.126 OA
ATOM     18  O   UNL     1       8.376  -7.584  -0.079  0.00  0.00    -0.126 OA
ENDBRANCH  14  16
ENDBRANCH   7  10
ENDBRANCH   1   6
BRANCH   1  19
ATOM     19  N   UNL     1       4.864  -0.245   1.037  0.00  0.00    -0.305 N 
ATOM     20  H   UNL     1       4.409   0.068   1.835  0.00  0.00    +0.150 HD
BRANCH  19  21
ATOM     21  C   UNL     1       4.165  -0.474  -0.092  0.00  0.00    +0.136 C 
ATOM     22  S   UNL     1       4.968  -1.026  -1.499  0.00  0.00    -0.019 S 
BRANCH  21  23
ATOM     23  N   UNL     1       2.833  -0.268  -0.113  0.00  0.00    -0.297 N 
ATOM     24  H   UNL     1       2.387   0.104   0.664  0.00  0.00    +0.154 HD
BRANCH  23  30
ATOM     25  C   UNL     1       0.917  -1.320  -1.141  0.00  0.00    -0.026 A 
ATOM     26  C   UNL     1       0.186  -1.632  -2.270  0.00  0.00    +0.005 A 
ATOM     27  C   UNL     1       0.627  -1.224  -3.515  0.00  0.00    +0.000 A 
ATOM     28  C   UNL     1       1.801  -0.502  -3.634  0.00  0.00    +0.002 A 
ATOM     29  C   UNL     1       2.537  -0.187  -2.509  0.00  0.00    +0.023 A 
ATOM     30  C   UNL     1       2.094  -0.591  -1.256  0.00  0.00    +0.036 A 
BRANCH  25  32
ATOM     31  C   UNL     1      -0.371  -0.639   0.866  0.00  0.00    +0.009 C 
ATOM     32  C   UNL     1       0.436  -1.765   0.216  0.00  0.00    +0.033 C 
ENDBRANCH  25  32
ENDBRANCH  23  30
ENDBRANCH  21  23
ENDBRANCH  19  21
ENDBRANCH   1  19
TORSDOF 9
