REMARK  Name = ZINC43261315
REMARK  7 active torsions:
REMARK  status: ('A' for Active; 'I' for Inactive)
REMARK    1  A    between atoms: C_1  and  C_2
REMARK    2  A    between atoms: C_2  and  C_4
REMARK    3  A    between atoms: C_2  and  N_21
REMARK    4  A    between atoms: C_4  and  C_6
REMARK    5  A    between atoms: C_4  and  N_12
REMARK    6  A    between atoms: C_17  and  C_19
REMARK    7  A    between atoms: C_19  and  O_20
REMARK                            x       y       z     vdW  Elec       q    Type
REMARK                         _______ _______ _______ _____ _____    ______ ____
ROOT
ATOM      1  C   UNL     1       1.001  -0.491   1.019  0.00  0.00    -0.014 C 
ENDROOT
BRANCH   1   2
ATOM      2  N   UNL     1       2.413  -0.220   1.320  0.00  0.00    +0.389 N 
ATOM      3  C   UNL     1       2.661   1.225   1.235  0.00  0.00    -0.077 C 
ATOM      4  C   UNL     1       4.147   1.506   1.467  0.00  0.00    -0.019 C 
ATOM      5  C   UNL     1       4.545   0.999   2.856  0.00  0.00    -0.003 C 
ATOM      6  C   UNL     1       4.214  -0.493   2.959  0.00  0.00    -0.013 C 
ATOM      7  C   UNL     1       2.725  -0.700   2.671  0.00  0.00    -0.042 C 
ATOM      8  H   UNL     1       2.997  -0.699   0.650  0.00  0.00    -0.080 HD
BRANCH   7   9
ATOM      9  C   UNL     1       2.389  -2.189   2.773  0.00  0.00    +0.140 C 
BRANCH   9  10
ATOM     10  O   UNL     1       3.213  -2.926   1.867  0.00  0.00    -0.397 OA
ATOM     11  H   UNL     1       3.002  -3.869   1.823  0.00  0.00    +0.209 HD
ENDBRANCH   9  10
ENDBRANCH   7   9
ENDBRANCH   1   2
BRANCH   1  12
ATOM     12  C   UNL     1       0.797  -0.494  -0.474  0.00  0.00    -0.021 A 
ATOM     13  C   UNL     1       0.115  -1.379  -1.241  0.00  0.00    +0.011 A 
ATOM     14  C   UNL     1       0.059  -1.179  -2.608  0.00  0.00    +0.023 A 
ATOM     15  C   UNL     1       0.690  -0.103  -3.141  0.00  0.00    +0.055 A 
ATOM     16  S   UNL     1       1.385   0.673  -1.691  0.00  0.00    -0.088 S 
ATOM     17 BR   UNL     1       0.799   0.438  -4.949  0.00  0.00    -0.043 Br
ENDBRANCH   1  12
BRANCH   1  19
ATOM     18  C   UNL     1       0.238   0.513   3.175  0.00  0.00    +0.022 C 
ATOM     19  C   UNL     1       0.127   0.594   1.651  0.00  0.00    +0.039 C 
BRANCH  19  20
ATOM     20  N   UNL     1      -1.272   0.391   1.251  0.00  0.00    -0.329 NA
ATOM     21  H   UNL     1      -1.878   1.056   1.707  0.00  0.00    +0.118 HD
ATOM     22  H   UNL     1      -1.371   0.439   0.248  0.00  0.00    +0.118 HD
ENDBRANCH  19  20
ENDBRANCH   1  19
TORSDOF 6
