REMARK  Name = ZINC42423666
REMARK  7 active torsions:
REMARK  status: ('A' for Active; 'I' for Inactive)
REMARK    1  A    between atoms: C_1  and  C_2
REMARK    2  A    between atoms: C_2  and  C_3
REMARK    3  A    between atoms: C_3  and  O_4
REMARK    4  A    between atoms: O_4  and  C_5
REMARK    5  A    between atoms: N_10  and  C_12
REMARK    6  A    between atoms: C_12  and  C_13
REMARK    7  A    between atoms: C_13  and  C_15
REMARK                            x       y       z     vdW  Elec       q    Type
REMARK                         _______ _______ _______ _____ _____    ______ ____
ROOT
ATOM      1  C   UNL     1       1.387  -2.493  -2.405  0.00  0.00    +0.102 C 
ATOM      2  C   UNL     1       0.363  -2.710  -3.522  0.00  0.00    +0.028 C 
ATOM      3  C   UNL     1       1.052  -3.389  -4.708  0.00  0.00    -0.016 C 
ATOM      4  C   UNL     1       1.688  -4.700  -4.241  0.00  0.00    -0.078 C 
ATOM      5  N   UNL     1       2.676  -4.422  -3.192  0.00  0.00    +0.386 N 
ATOM      6  C   UNL     1       2.011  -3.836  -2.022  0.00  0.00    -0.046 C 
ATOM      7  H   UNL     1       3.366  -3.775  -3.544  0.00  0.00    -0.081 HD
ENDROOT
BRANCH   1   8
ATOM      8  O   UNL     1       0.738  -1.926  -1.265  0.00  0.00    -0.378 OA
BRANCH   8   9
ATOM      9  C   UNL     1       0.718  -0.497  -1.257  0.00  0.00    +0.160 C 
BRANCH   9  11
ATOM     10  C   UNL     1      -0.019   1.526   0.010  0.00  0.00    +0.006 C 
ATOM     11  C   UNL     1       0.002  -0.004   0.002  0.00  0.00    +0.025 C 
ENDBRANCH   9  11
ENDBRANCH   8   9
ENDBRANCH   1   8
BRANCH   5  12
ATOM     12  C   UNL     1       3.339  -5.673  -2.801  0.00  0.00    +0.002 C 
BRANCH  12  13
ATOM     13  C   UNL     1       4.132  -6.207  -3.967  0.00  0.00    +0.148 C 
ATOM     14  O   UNL     1       4.144  -5.603  -5.020  0.00  0.00    -0.294 OA
BRANCH  13  15
ATOM     15  C   UNL     1       4.887  -7.451  -3.829  0.00  0.00    +0.038 A 
ATOM     16  C   UNL     1       4.893  -8.202  -2.593  0.00  0.00    +0.035 A 
ATOM     17  C   UNL     1       5.629  -9.331  -2.598  0.00  0.00    +0.057 A 
ATOM     18  S   UNL     1       6.299  -9.374  -4.245  0.00  0.00    -0.074 S 
ATOM     19  C   UNL     1       5.626  -7.972  -4.875  0.00  0.00    +0.066 A 
ATOM     20 BR   UNL     1       5.833  -7.264  -6.616  0.00  0.00    -0.042 Br
ATOM     21 BR   UNL     1       5.887 -10.569  -1.192  0.00  0.00    -0.043 Br
ENDBRANCH  13  15
ENDBRANCH  12  13
ENDBRANCH   5  12
TORSDOF 6
