REMARK  Name = ZINC09144446
REMARK  14 active torsions:
REMARK  status: ('A' for Active; 'I' for Inactive)
REMARK    1  A    between atoms: C_1  and  C_2
REMARK    2  A    between atoms: C_2  and  O_3
REMARK    3  A    between atoms: O_3  and  C_4
REMARK    4  A    between atoms: C_7  and  C_11
REMARK    5  A    between atoms: C_8  and  O_10
REMARK    6  A    between atoms: N_12  and  N_13
REMARK    7  A    between atoms: N_13  and  C_14
REMARK    8  A    between atoms: C_14  and  N_16
REMARK    9  A    between atoms: P_17  and  C_18
REMARK   10  A    between atoms: P_17  and  N_22
REMARK   11  A    between atoms: P_17  and  N_28
REMARK   12  A    between atoms: C_18  and  C_19
REMARK   13  A    between atoms: C_18  and  C_20
REMARK   14  A    between atoms: C_18  and  C_21
REMARK                            x       y       z     vdW  Elec       q    Type
REMARK                         _______ _______ _______ _____ _____    ______ ____
ROOT
ATOM      1  N   UNL     1       4.987   8.053   0.282  0.00  0.00    -0.179 NA
ATOM      2  P   UNL     1       5.336   9.502  -0.156  0.00  0.00    +0.102 P 
ENDROOT
BRANCH   2   3
ATOM      3  N   UNL     1       4.050  10.524   0.208  0.00  0.00    -0.254 NA
ATOM      4  C   UNL     1       4.461  11.934   0.142  0.00  0.00    +0.119 C 
ATOM      5  C   UNL     1       3.249  12.827   0.421  0.00  0.00    +0.175 C 
ATOM      6  O   UNL     1       2.693  12.484   1.693  0.00  0.00    -0.377 OA
ATOM      7  C   UNL     1       2.281  11.118   1.792  0.00  0.00    +0.175 C 
ATOM      8  C   UNL     1       3.483  10.208   1.528  0.00  0.00    +0.119 C 
ENDBRANCH   2   3
BRANCH   2   9
ATOM      9  N   UNL     1       6.713  10.020   0.663  0.00  0.00    -0.254 NA
ATOM     10  C   UNL     1       7.907   9.307   0.188  0.00  0.00    +0.119 C 
ATOM     11  C   UNL     1       9.141   9.849   0.915  0.00  0.00    +0.175 C 
ATOM     12  O   UNL     1       8.955   9.712   2.326  0.00  0.00    -0.377 OA
ATOM     13  C   UNL     1       7.800  10.395   2.823  0.00  0.00    +0.175 C 
ATOM     14  C   UNL     1       6.553   9.858   2.116  0.00  0.00    +0.119 C 
ENDBRANCH   2   9
BRANCH   2  15
ATOM     15  C   UNL     1       5.649   9.536  -1.952  0.00  0.00    +0.021 C 
ATOM     16  C   UNL     1       6.498  10.761  -2.299  0.00  0.00    +0.019 C 
ATOM     17  C   UNL     1       6.396   8.265  -2.363  0.00  0.00    +0.019 C 
ATOM     18  C   UNL     1       4.317   9.609  -2.700  0.00  0.00    +0.019 C 
ENDBRANCH   2  15
BRANCH   1  19
ATOM     19  C   UNL     1       3.756   7.609   0.162  0.00  0.00    +0.175 C 
ATOM     20  S   UNL     1       2.526   8.644  -0.428  0.00  0.00    -0.015 S 
BRANCH  19  21
ATOM     21  N   UNL     1       3.461   6.339   0.504  0.00  0.00    -0.217 N 
ATOM     22  H   UNL     1       2.553   6.011   0.415  0.00  0.00    +0.176 HD
BRANCH  21  24
ATOM     23  C   UNL     1       4.099   4.314   1.284  0.00  0.00    +0.141 C 
ATOM     24  N   UNL     1       4.388   5.559   0.948  0.00  0.00    -0.188 NA
BRANCH  23  28
ATOM     25  C   UNL     1       7.114   1.779   2.729  0.00  0.00    +0.124 A 
ATOM     26  C   UNL     1       5.798   1.318   2.597  0.00  0.00    +0.046 A 
ATOM     27  C   UNL     1       4.814   2.129   2.131  0.00  0.00    +0.016 A 
ATOM     28  C   UNL     1       5.111   3.462   1.769  0.00  0.00    +0.036 A 
ATOM     29  C   UNL     1       6.487   3.946   1.907  0.00  0.00    +0.129 A 
ATOM     30  C   UNL     1       7.453   3.085   2.391  0.00  0.00    +0.091 A 
BRANCH  29  31
ATOM     31  O   UNL     1       6.806   5.218   1.570  0.00  0.00    -0.506 OA
ATOM     32  H   UNL     1       6.724   5.850   2.298  0.00  0.00    +0.292 HD
ENDBRANCH  29  31
BRANCH  25  33
ATOM     33  O   UNL     1       8.070   0.943   3.197  0.00  0.00    -0.492 OA
BRANCH  33  35
ATOM     34  C   UNL     1       8.868  -1.177   4.040  0.00  0.00    +0.048 C 
ATOM     35  C   UNL     1       7.661  -0.385   3.533  0.00  0.00    +0.225 C 
ENDBRANCH  33  35
ENDBRANCH  25  33
ENDBRANCH  23  28
ENDBRANCH  21  24
ENDBRANCH  19  21
ENDBRANCH   1  19
TORSDOF 10
