REMARK  Name = ZINC28848057
REMARK  8 active torsions:
REMARK  status: ('A' for Active; 'I' for Inactive)
REMARK    1  A    between atoms: C_1  and  C_2
REMARK    2  A    between atoms: C_2  and  C_3
REMARK    3  A    between atoms: C_2  and  C_4
REMARK    4  A    between atoms: C_2  and  C_5
REMARK    5  A    between atoms: C_12  and  C_14
REMARK    6  A    between atoms: N_16  and  N_17
REMARK    7  A    between atoms: C_20  and  C_25
REMARK    8  A    between atoms: C_25  and  C_26
REMARK                            x       y       z     vdW  Elec       q    Type
REMARK                         _______ _______ _______ _____ _____    ______ ____
ROOT
ATOM      1  N   UNL     1       2.502   5.650   0.009  0.00  0.00    -0.137 N 
ATOM      2  C   UNL     1       2.637   6.446   1.088  0.00  0.00    +0.260 C 
ATOM      3  O   UNL     1       2.192   6.255   2.200  0.00  0.00    -0.272 OA
ATOM      4  C   UNL     1       3.462   7.629   0.624  0.00  0.00    +0.167 C 
ATOM      5  N   UNL     1       3.714   7.338  -0.798  0.00  0.00    -0.286 N 
ATOM      6  C   UNL     1       3.115   6.163  -1.063  0.00  0.00    +0.326 C 
ATOM      7  O   UNL     1       3.128   5.629  -2.154  0.00  0.00    -0.251 OA
ATOM      8  H   UNL     1       4.300   8.042  -1.408  0.00  0.00    +0.151 HD
ENDROOT
BRANCH   1  11
ATOM      9  C   UNL     1       2.474   3.269  -0.004  0.00  0.00    +0.267 C 
ATOM     10  O   UNL     1       3.691   3.269  -0.016  0.00  0.00    -0.268 OA
ATOM     11  N   UNL     1       1.801   4.437   0.009  0.00  0.00    -0.219 N 
ATOM     12  H   UNL     1       0.701   4.437   0.020  0.00  0.00    +0.174 HD
BRANCH   9  19
ATOM     13  C   UNL     1       0.582  -2.664   0.445  0.00  0.00    -0.001 C 
ATOM     14  C   UNL     1      -0.665  -2.340  -0.382  0.00  0.00    +0.009 C 
ATOM     15  C   UNL     1      -1.166  -0.942   0.007  0.00  0.00    +0.043 C 
ATOM     16  C   UNL     1       0.002  -0.004   0.002  0.00  0.00    -0.006 A 
ATOM     17  C   UNL     1       1.326  -0.338  -0.012  0.00  0.00    -0.036 A 
ATOM     18  C   UNL     1       2.234   0.708  -0.015  0.00  0.00    +0.024 A 
ATOM     19  C   UNL     1       1.741   2.000  -0.004  0.00  0.00    +0.076 A 
ATOM     20  S   UNL     1      -0.021   1.718   0.011  0.00  0.00    -0.088 S 
ATOM     21  C   UNL     1       1.756  -1.803  -0.022  0.00  0.00    +0.040 C 
BRANCH  13  23
ATOM     22  C   UNL     1       2.174  -4.473   1.105  0.00  0.00    +0.011 C 
ATOM     23  C   UNL     1       0.934  -4.143   0.271  0.00  0.00    -0.035 C 
ATOM     24  C   UNL     1      -0.239  -5.006   0.738  0.00  0.00    +0.011 C 
ATOM     25  C   UNL     1       1.222  -4.428  -1.205  0.00  0.00    +0.011 C 
ENDBRANCH  13  23
ENDBRANCH   9  19
ENDBRANCH   1  11
BRANCH   4  26
ATOM     26  C   UNL     1       2.671   8.930   0.775  0.00  0.00    +0.069 C 
BRANCH  26  27
ATOM     27  C   UNL     1       3.519  10.090   0.321  0.00  0.00    -0.020 A 
ATOM     28  C   UNL     1       4.272  10.882   1.100  0.00  0.00    +0.087 A 
ATOM     29  N   UNL     1       4.903  11.825   0.335  0.00  0.00    -0.360 N 
ATOM     30  H   UNL     1       5.572  12.559   0.808  0.00  0.00    +0.165 HD
ATOM     31  C   UNL     1       4.555  11.665  -0.987  0.00  0.00    +0.047 A 
ATOM     32  C   UNL     1       3.672  10.571  -1.054  0.00  0.00    +0.003 A 
ATOM     33  C   UNL     1       3.149  10.173  -2.286  0.00  0.00    +0.010 A 
ATOM     34  C   UNL     1       3.497  10.849  -3.421  0.00  0.00    +0.001 A 
ATOM     35  C   UNL     1       4.367  11.928  -3.360  0.00  0.00    +0.002 A 
ATOM     36  C   UNL     1       4.895  12.338  -2.156  0.00  0.00    +0.026 A 
ENDBRANCH  26  27
ENDBRANCH   4  26
TORSDOF 5
