REMARK  Name = ZINC48033074
REMARK  7 active torsions:
REMARK  status: ('A' for Active; 'I' for Inactive)
REMARK    1  A    between atoms: C_1  and  C_2
REMARK    2  A    between atoms: C_4  and  C_7
REMARK    3  A    between atoms: C_7  and  N_8
REMARK    4  A    between atoms: N_8  and  C_9
REMARK    5  A    between atoms: C_10  and  C_12
REMARK    6  A    between atoms: N_14  and  C_15
REMARK    7  A    between atoms: C_16  and  C_24
REMARK                            x       y       z     vdW  Elec       q    Type
REMARK                         _______ _______ _______ _____ _____    ______ ____
ROOT
ATOM      1  C   UNL     1      -3.467  -3.989  -3.223  0.00  0.00    +0.304 C 
ATOM      2  O   UNL     1      -2.876  -4.899  -3.767  0.00  0.00    -0.265 OA
ATOM      3  N   UNL     1      -4.604  -3.506  -3.762  0.00  0.00    -0.271 N 
ATOM      4  H   UNL     1      -5.076  -2.779  -3.328  0.00  0.00    +0.156 HD
ENDROOT
BRANCH   3   5
ATOM      5  C   UNL     1      -5.098  -4.048  -4.937  0.00  0.00    +0.090 A 
ATOM      6  C   UNL     1      -6.237  -3.694  -5.649  0.00  0.00    +0.084 A 
ATOM      7  C   UNL     1      -6.534  -4.431  -6.865  0.00  0.00    -0.018 A 
ATOM      8  C   UNL     1      -5.662  -5.410  -7.199  0.00  0.00    -0.004 A 
ATOM      9  S   UNL     1      -4.430  -5.375  -5.925  0.00  0.00    -0.077 S 
ATOM     10  C   UNL     1      -5.728  -6.316  -8.389  0.00  0.00    +0.043 C 
ATOM     11  C   UNL     1      -7.138  -6.223  -8.991  0.00  0.00    +0.005 C 
ATOM     12  C   UNL     1      -7.519  -4.746  -9.124  0.00  0.00    +0.005 C 
ATOM     13  C   UNL     1      -7.750  -4.141  -7.739  0.00  0.00    +0.037 C 
BRANCH   6  14
ATOM     14  C   UNL     1      -7.091  -2.636  -5.199  0.00  0.00    +0.102 C 
ATOM     15  N   UNL     1      -7.769  -1.797  -4.842  0.00  0.00    -0.191 NA
ENDBRANCH   6  14
ENDBRANCH   3   5
BRANCH   1  18
ATOM     16  N   UNL     1      -1.738  -3.803  -1.482  0.00  0.00    -0.291 N 
ATOM     17  C   UNL     1      -0.907  -4.721  -2.265  0.00  0.00    +0.133 C 
ATOM     18  C   UNL     1      -2.934  -3.404  -1.957  0.00  0.00    +0.302 C 
ATOM     19  O   UNL     1      -3.579  -2.570  -1.356  0.00  0.00    -0.265 OA
BRANCH  16  20
ATOM     20  C   UNL     1      -1.268  -3.318  -0.182  0.00  0.00    +0.166 C 
BRANCH  20  24
ATOM     21  C   UNL     1      -0.086   1.628  -0.489  0.00  0.00    +0.089 C 
ATOM     22  C   UNL     1       0.014   0.124  -0.503  0.00  0.00    +0.135 A 
ATOM     23  C   UNL     1      -0.992  -0.738  -0.262  0.00  0.00    +0.072 A 
ATOM     24  C   UNL     1      -0.485  -2.045  -0.374  0.00  0.00    +0.101 A 
ATOM     25  N   UNL     1       0.781  -1.963  -0.672  0.00  0.00    -0.081 NA
ATOM     26  O   UNL     1       1.119  -0.590  -0.765  0.00  0.00    -0.360 OA
ENDBRANCH  20  24
ENDBRANCH  16  20
ENDBRANCH   1  18
TORSDOF 5
