REMARK  Name = ZINC16611649
REMARK  13 active torsions:
REMARK  status: ('A' for Active; 'I' for Inactive)
REMARK    1  A    between atoms: C_1  and  C_2
REMARK    2  A    between atoms: C_2  and  N_68
REMARK    3  A    between atoms: C_3  and  C_4
REMARK    4  A    between atoms: C_3  and  N_68
REMARK    5  A    between atoms: C_5  and  C_6
REMARK    6  A    between atoms: C_5  and  N_68
REMARK    7  A    between atoms: C_6  and  C_7
REMARK    8  A    between atoms: C_7  and  C_8
REMARK    9  A    between atoms: C_8  and  C_10
REMARK   10  A    between atoms: C_8  and  N_11
REMARK   11  A    between atoms: C_12  and  C_14
REMARK   12  A    between atoms: C_14  and  S_15
REMARK   13  A    between atoms: S_15  and  C_16
REMARK                            x       y       z     vdW  Elec       q    Type
REMARK                         _______ _______ _______ _____ _____    ______ ____
ROOT
ATOM      1  S   UNL     1       4.274  -4.295   5.284  0.00  0.00    -0.077 S 
ENDROOT
BRANCH   1   2
ATOM      2  C   UNL     1       5.008  -3.158   4.156  0.00  0.00    +0.192 A 
ATOM      3  N   UNL     1       4.253  -2.223   3.599  0.00  0.00    -0.207 NA
ATOM      4  C   UNL     1       4.777  -1.349   2.744  0.00  0.00    +0.127 A 
ATOM      5  C   UNL     1       6.136  -1.434   2.436  0.00  0.00    +0.083 A 
ATOM      6  C   UNL     1       6.890  -2.422   3.044  0.00  0.00    +0.135 A 
ATOM      7  N   UNL     1       6.302  -3.259   3.887  0.00  0.00    -0.210 NA
ATOM      8 CL   UNL     1       8.585  -2.567   2.702  0.00  0.00    -0.062 Cl
ATOM      9  N   UNL     1       3.984  -0.373   2.163  0.00  0.00    -0.315 N 
ATOM     10  C   UNL     1       2.595  -0.478   2.626  0.00  0.00    +0.112 C 
ATOM     11  C   UNL     1       1.787   0.706   2.089  0.00  0.00    +0.084 C 
ATOM     12  C   UNL     1       1.854   0.714   0.565  0.00  0.00    +0.173 C 
ATOM     13  C   UNL     1       3.305   0.752   0.096  0.00  0.00    +0.084 C 
ATOM     14  C   UNL     1       4.064  -0.434   0.698  0.00  0.00    +0.112 C 
ATOM     15  O   UNL     1       1.131   1.841   0.041  0.00  0.00    -0.346 OA
ATOM     16  C   UNL     1      -0.253   1.432   0.071  0.00  0.00    +0.191 C 
ATOM     17  C   UNL     1      -0.213  -0.110   0.066  0.00  0.00    +0.191 C 
ATOM     18  O   UNL     1       1.191  -0.446   0.033  0.00  0.00    -0.346 OA
ENDBRANCH   1   2
BRANCH   1  19
ATOM     19  C   UNL     1       5.721  -5.297   5.707  0.00  0.00    +0.173 C 
BRANCH  19  21
ATOM     20  N   UNL     1       6.241  -7.239   7.149  0.00  0.00    -0.312 N 
ATOM     21  C   UNL     1       5.321  -6.368   6.689  0.00  0.00    +0.224 C 
ATOM     22  O   UNL     1       4.170  -6.446   7.066  0.00  0.00    -0.275 OA
ATOM     23  H   UNL     1       7.161  -7.176   6.848  0.00  0.00    +0.149 HD
BRANCH  20  24
ATOM     24  C   UNL     1       5.852  -8.279   8.104  0.00  0.00    +0.070 C 
ATOM     25  C   UNL     1       5.895  -7.711   9.524  0.00  0.00    +0.028 C 
BRANCH  24  26
ATOM     26  C   UNL     1       6.822  -9.458   7.997  0.00  0.00    +0.020 C 
BRANCH  26  27
ATOM     27  C   UNL     1       6.689 -10.104   6.617  0.00  0.00    -0.017 C 
BRANCH  27  28
ATOM     28  C   UNL     1       7.659 -11.283   6.510  0.00  0.00    -0.079 C 
BRANCH  28  29
ATOM     29  N   UNL     1       7.417 -11.981   5.230  0.00  0.00    +0.379 N 
ATOM     30  H   UNL     1       6.404 -12.052   5.075  0.00  0.00    -0.082 HD
BRANCH  29  32
ATOM     31  C   UNL     1       7.568 -11.836   2.792  0.00  0.00    -0.017 C 
ATOM     32  C   UNL     1       8.021 -11.218   4.117  0.00  0.00    -0.082 C 
ENDBRANCH  29  32
BRANCH  29  33
ATOM     33  C   UNL     1       7.991 -13.342   5.280  0.00  0.00    -0.082 C 
ATOM     34  C   UNL     1       7.059 -14.237   6.099  0.00  0.00    -0.017 C 
ENDBRANCH  29  33
ENDBRANCH  28  29
ENDBRANCH  27  28
ENDBRANCH  26  27
ENDBRANCH  24  26
ENDBRANCH  20  24
ENDBRANCH  19  21
ENDBRANCH   1  19
TORSDOF 10
