REMARK  Name = ZINC02181049
REMARK  7 active torsions:
REMARK  status: ('A' for Active; 'I' for Inactive)
REMARK    1  A    between atoms: C_1  and  C_2
REMARK    2  A    between atoms: C_3  and  C_22
REMARK    3  A    between atoms: N_9  and  N_21
REMARK    4  A    between atoms: C_10  and  S_12
REMARK    5  A    between atoms: S_12  and  C_13
REMARK    6  A    between atoms: C_13  and  C_14
REMARK    7  A    between atoms: C_14  and  C_16
REMARK                            x       y       z     vdW  Elec       q    Type
REMARK                         _______ _______ _______ _____ _____    ______ ____
ROOT
ATOM      1  C   UNL     1     -10.119   0.788   0.103  0.00  0.00    +0.045 C 
ATOM      2  C   UNL     1      -8.718   1.342   0.092  0.00  0.00    -0.026 A 
ATOM      3  C   UNL     1      -8.512   2.667   0.098  0.00  0.00    -0.008 A 
ATOM      4  S   UNL     1      -6.736   2.811   0.081  0.00  0.00    -0.073 S 
ATOM      5  C   UNL     1      -6.320   1.086   0.067  0.00  0.00    +0.117 A 
ATOM      6  C   UNL     1      -7.574   0.446   0.076  0.00  0.00    +0.077 A 
ATOM      7  C   UNL     1      -7.543  -0.984   0.067  0.00  0.00    +0.280 A 
ATOM      8  O   UNL     1      -8.581  -1.624   0.073  0.00  0.00    -0.265 OA
ATOM      9  N   UNL     1      -6.354  -1.614   0.051  0.00  0.00    -0.209 N 
ATOM     10  C   UNL     1      -5.183  -0.914   0.045  0.00  0.00    +0.190 A 
ATOM     11  N   UNL     1      -5.181   0.403   0.058  0.00  0.00    -0.215 NA
ATOM     12  C   UNL     1      -9.538   3.771   0.114  0.00  0.00    +0.052 C 
ENDROOT
BRANCH   9  13
ATOM     13  N   UNL     1      -6.320  -2.979   0.043  0.00  0.00    -0.293 N 
ATOM     14  H   UNL     1      -5.369  -3.317   0.032  0.00  0.00    +0.163 HD
ATOM     15  H   UNL     1      -6.829  -3.359   0.827  0.00  0.00    +0.163 HD
ENDBRANCH   9  13
BRANCH  10  16
ATOM     16  S   UNL     1      -3.651  -1.785   0.025  0.00  0.00    -0.078 S 
BRANCH  16  17
ATOM     17  C   UNL     1      -2.497  -0.391   0.023  0.00  0.00    +0.157 C 
BRANCH  17  18
ATOM     18  C   UNL     1      -1.082  -0.909   0.007  0.00  0.00    +0.180 C 
ATOM     19  O   UNL     1      -0.874  -2.106  -0.002  0.00  0.00    -0.291 OA
BRANCH  18  20
ATOM     20  C   UNL     1       0.002  -0.004   0.002  0.00  0.00    +0.055 A 
ATOM     21  C   UNL     1       1.367  -0.271  -0.013  0.00  0.00    +0.019 A 
ATOM     22  C   UNL     1       2.212   0.808  -0.015  0.00  0.00    +0.008 A 
ATOM     23  C   UNL     1       1.688   2.063  -0.003  0.00  0.00    +0.046 A 
ATOM     24  S   UNL     1      -0.022   1.780   0.012  0.00  0.00    -0.094 S 
ENDBRANCH  18  20
ENDBRANCH  17  18
ENDBRANCH  16  17
ENDBRANCH  10  16
TORSDOF 5
