REMARK  Name = ZINC35212273
REMARK  7 active torsions:
REMARK  status: ('A' for Active; 'I' for Inactive)
REMARK    1  A    between atoms: C_4  and  S_7
REMARK    2  A    between atoms: S_7  and  N_10
REMARK    3  A    between atoms: N_10  and  C_11
REMARK    4  A    between atoms: C_14  and  N_20
REMARK    5  A    between atoms: C_16  and  C_17
REMARK    6  A    between atoms: C_23  and  C_26
REMARK    7  A    between atoms: C_23  and  N_29
REMARK                            x       y       z     vdW  Elec       q    Type
REMARK                         _______ _______ _______ _____ _____    ______ ____
ROOT
ATOM      1  C   UNL     1       4.028  -0.992   4.370  0.00  0.00    +0.062 A 
ATOM      2  C   UNL     1       3.706  -1.199   5.705  0.00  0.00    +0.027 A 
ATOM      3  C   UNL     1       2.932  -2.280   6.072  0.00  0.00    +0.025 A 
ATOM      4  C   UNL     1       2.466  -3.171   5.109  0.00  0.00    +0.031 A 
ATOM      5  C   UNL     1       2.776  -2.980   3.776  0.00  0.00    +0.040 A 
ATOM      6  C   UNL     1       3.557  -1.884   3.392  0.00  0.00    +0.087 A 
ENDROOT
BRANCH   4   7
ATOM      7  N   UNL     1       1.681  -4.265   5.493  0.00  0.00    -0.330 N 
ATOM      8  C   UNL     1       1.231  -4.412   6.885  0.00  0.00    +0.104 C 
ATOM      9  C   UNL     1       1.641  -5.798   7.391  0.00  0.00    +0.016 C 
ATOM     10  C   UNL     1       1.098  -6.866   6.439  0.00  0.00    +0.015 C 
ATOM     11  C   UNL     1       1.699  -6.663   5.046  0.00  0.00    +0.016 C 
ATOM     12  C   UNL     1       1.285  -5.284   4.512  0.00  0.00    +0.104 C 
BRANCH  10  13
ATOM     13  N   UNL     1       1.461  -8.199   6.939  0.00  0.00    +0.389 N 
ATOM     14  C   UNL     1       0.869  -8.399   8.267  0.00  0.00    -0.077 C 
ATOM     15  C   UNL     1       1.310  -9.753   8.828  0.00  0.00    -0.019 C 
ATOM     16  C   UNL     1       0.844 -10.866   7.885  0.00  0.00    -0.004 C 
ATOM     17  C   UNL     1       1.407 -10.606   6.485  0.00  0.00    -0.019 C 
ATOM     18  C   UNL     1       0.962  -9.221   6.011  0.00  0.00    -0.077 C 
ATOM     19  H   UNL     1       2.465  -8.269   7.007  0.00  0.00    -0.080 HD
ENDBRANCH  10  13
BRANCH  10  20
ATOM     20  C   UNL     1      -0.402  -6.752   6.359  0.00  0.00    +0.200 C 
ATOM     21  O   UNL     1      -1.010  -6.139   7.211  0.00  0.00    -0.278 OA
ATOM     22  N   UNL     1      -1.069  -7.331   5.341  0.00  0.00    -0.330 N 
ATOM     23  H   UNL     1      -0.593  -7.878   4.698  0.00  0.00    +0.145 HD
ATOM     24  H   UNL     1      -2.027  -7.200   5.252  0.00  0.00    +0.145 HD
ENDBRANCH  10  20
ENDBRANCH   4   7
BRANCH   6  25
ATOM     25  C   UNL     1       3.886  -1.670   1.975  0.00  0.00    +0.388 C 
ATOM     26  O   UNL     1       3.474  -2.449   1.127  0.00  0.00    -0.241 OA
ATOM     27  O   UNL     1       4.573  -0.712   1.645  0.00  0.00    -0.241 OA
ENDBRANCH   6  25
BRANCH   1  28
ATOM     28  N   UNL     1       4.809   0.097   4.002  0.00  0.00    -0.215 N 
ATOM     29  H   UNL     1       4.637   0.556   3.164  0.00  0.00    +0.174 HD
BRANCH  28  30
ATOM     30  S   UNL     1       6.033   0.611   4.992  0.00  0.00    +0.072 S 
ATOM     31  O   UNL     1       5.458   0.816   6.275  0.00  0.00    -0.150 OA
ATOM     32  O   UNL     1       6.718   1.640   4.290  0.00  0.00    -0.150 OA
BRANCH  30  36
ATOM     33  C   UNL     1       8.947  -2.827   5.416  0.00  0.00    +0.000 A 
ATOM     34  C   UNL     1       9.107  -1.907   4.397  0.00  0.00    +0.002 A 
ATOM     35  C   UNL     1       8.217  -0.857   4.267  0.00  0.00    +0.029 A 
ATOM     36  C   UNL     1       7.167  -0.728   5.156  0.00  0.00    +0.108 A 
ATOM     37  C   UNL     1       7.006  -1.648   6.175  0.00  0.00    +0.029 A 
ATOM     38  C   UNL     1       7.897  -2.697   6.306  0.00  0.00    +0.002 A 
ENDBRANCH  30  36
ENDBRANCH  28  30
ENDBRANCH   1  28
TORSDOF 7
