REMARK  Name = ZINC04163581
REMARK  8 active torsions:
REMARK  status: ('A' for Active; 'I' for Inactive)
REMARK    1  A    between atoms: C_1  and  C_2
REMARK    2  A    between atoms: C_3  and  C_12
REMARK    3  A    between atoms: C_12  and  C_14
REMARK    4  A    between atoms: N_16  and  C_17
REMARK    5  A    between atoms: C_17  and  C_18
REMARK    6  A    between atoms: C_18  and  C_19
REMARK    7  A    between atoms: C_22  and  S_25
REMARK    8  A    between atoms: S_25  and  N_28
REMARK                            x       y       z     vdW  Elec       q    Type
REMARK                         _______ _______ _______ _____ _____    ______ ____
ROOT
ATOM      1  C   UNL     1       0.119   0.873  -3.009  0.00  0.00    +0.285 C 
ATOM      2  O   UNL     1       0.323   1.740  -2.184  0.00  0.00    -0.267 OA
ATOM      3  N   UNL     1       0.006   1.196  -4.313  0.00  0.00    -0.308 N 
ATOM      4  H   UNL     1      -0.157   0.504  -4.972  0.00  0.00    +0.149 HD
ENDROOT
BRANCH   1   5
ATOM      5  C   UNL     1      -0.006  -0.551  -2.581  0.00  0.00    +0.249 C 
ATOM      6  O   UNL     1      -0.113  -1.429  -3.414  0.00  0.00    -0.282 OA
BRANCH   5   9
ATOM      7  C   UNL     1      -2.536  -0.926  -0.776  0.00  0.00    +0.064 C 
ATOM      8  C   UNL     1      -1.100  -1.061  -0.340  0.00  0.00    +0.025 A 
ATOM      9  C   UNL     1       0.001  -0.889  -1.158  0.00  0.00    +0.055 A 
ATOM     10  C   UNL     1       1.185  -1.117  -0.307  0.00  0.00    +0.011 A 
ATOM     11  C   UNL     1       2.558  -1.092  -0.533  0.00  0.00    +0.011 A 
ATOM     12  C   UNL     1       3.425  -1.358   0.504  0.00  0.00    +0.001 A 
ATOM     13  C   UNL     1       2.935  -1.649   1.768  0.00  0.00    +0.002 A 
ATOM     14  C   UNL     1       1.578  -1.677   2.006  0.00  0.00    +0.026 A 
ATOM     15  C   UNL     1       0.686  -1.411   0.972  0.00  0.00    +0.047 A 
ATOM     16  N   UNL     1      -0.693  -1.360   0.906  0.00  0.00    -0.358 N 
ATOM     17  H   UNL     1      -1.286  -1.521   1.657  0.00  0.00    +0.166 HD
ENDBRANCH   5   9
ENDBRANCH   1   5
BRANCH   3  18
ATOM     18  C   UNL     1       0.128   2.594  -4.734  0.00  0.00    +0.109 C 
BRANCH  18  19
ATOM     19  C   UNL     1      -0.038   2.686  -6.252  0.00  0.00    +0.054 C 
BRANCH  19  20
ATOM     20  C   UNL     1       0.088   4.124  -6.685  0.00  0.00    -0.046 A 
ATOM     21  C   UNL     1      -1.034   4.931  -6.739  0.00  0.00    +0.005 A 
ATOM     22  C   UNL     1      -0.918   6.250  -7.137  0.00  0.00    +0.029 A 
ATOM     23  C   UNL     1       0.319   6.762  -7.479  0.00  0.00    +0.105 A 
ATOM     24  C   UNL     1       1.441   5.956  -7.423  0.00  0.00    +0.029 A 
ATOM     25  C   UNL     1       1.326   4.638  -7.022  0.00  0.00    +0.005 A 
BRANCH  23  26
ATOM     26  S   UNL     1       0.466   8.443  -7.986  0.00  0.00    +0.056 S 
ATOM     27  O   UNL     1       1.645   8.527  -8.775  0.00  0.00    -0.153 OA
ATOM     28  O   UNL     1      -0.809   8.832  -8.477  0.00  0.00    -0.153 OA
BRANCH  26  29
ATOM     29  N   UNL     1       0.743   9.343  -6.624  0.00  0.00    -0.204 NA
ATOM     30  H   UNL     1       1.264  10.160  -6.680  0.00  0.00    +0.144 HD
ATOM     31  H   UNL     1       0.385   9.054  -5.770  0.00  0.00    +0.144 HD
ENDBRANCH  26  29
ENDBRANCH  23  26
ENDBRANCH  19  20
ENDBRANCH  18  19
ENDBRANCH   3  18
TORSDOF 7
