REMARK  Name = ZINC39975387
REMARK  4 active torsions:
REMARK  status: ('A' for Active; 'I' for Inactive)
REMARK    1  A    between atoms: C_4  and  N_11
REMARK    2  A    between atoms: C_6  and  C_7
REMARK    3  A    between atoms: C_12  and  C_19
REMARK    4  A    between atoms: C_16  and  S_18
REMARK                            x       y       z     vdW  Elec       q    Type
REMARK                         _______ _______ _______ _____ _____    ______ ____
ROOT
ATOM      1  N   UNL     1       3.620  -0.652  -0.036  0.00  0.00    -0.281 N 
ATOM      2  C   UNL     1       4.399  -1.093   1.134  0.00  0.00    +0.209 C 
ATOM      3  N   UNL     1       5.608  -1.766   0.607  0.00  0.00    -0.229 NA
ATOM      4  N   UNL     1       5.781  -1.204  -0.742  0.00  0.00    -0.226 NA
ATOM      5  C   UNL     1       4.380  -1.077  -1.229  0.00  0.00    +0.214 C 
ATOM      6  H   UNL     1       6.411  -1.571   1.186  0.00  0.00    +0.143 HD
ATOM      7  H   UNL     1       6.311  -1.831  -1.329  0.00  0.00    +0.143 HD
ENDROOT
BRANCH   2   8
ATOM      8  C   UNL     1       3.588  -2.059   1.960  0.00  0.00    +0.098 A 
ATOM      9  C   UNL     1       4.240  -2.993   2.781  0.00  0.00    +0.034 A 
ATOM     10  C   UNL     1       3.476  -3.853   3.517  0.00  0.00    +0.073 A 
ATOM     11  C   UNL     1       2.073  -3.749   3.405  0.00  0.00    +0.265 A 
ATOM     12  O   UNL     1       1.346  -4.494   4.042  0.00  0.00    -0.266 OA
ATOM     13  N   UNL     1       1.545  -2.818   2.588  0.00  0.00    -0.243 N 
ATOM     14  N   UNL     1       2.285  -2.017   1.911  0.00  0.00    -0.173 NA
ATOM     15  H   UNL     1       0.580  -2.748   2.512  0.00  0.00    +0.192 HD
ENDBRANCH   2   8
BRANCH   1  19
ATOM     16  C   UNL     1      -0.017   1.378   0.010  0.00  0.00    +0.014 A 
ATOM     17  C   UNL     1       1.170   2.089   0.002  0.00  0.00    +0.022 A 
ATOM     18  C   UNL     1       2.378   1.419  -0.013  0.00  0.00    +0.062 A 
ATOM     19  C   UNL     1       2.400   0.029  -0.021  0.00  0.00    +0.052 A 
ATOM     20  C   UNL     1       1.207  -0.680  -0.013  0.00  0.00    +0.037 A 
ATOM     21  C   UNL     1       0.002  -0.004   0.002  0.00  0.00    +0.057 A 
ATOM     22 CL   UNL     1       3.867   2.312  -0.023  0.00  0.00    -0.082 Cl
BRANCH  21  23
ATOM     23  C   UNL     1      -1.293  -0.774   0.011  0.00  0.00    +0.417 C 
ATOM     24  F   UNL     1      -2.368   0.121   0.026  0.00  0.00    -0.166 F 
ATOM     25  F   UNL     1      -1.368  -1.573  -1.135  0.00  0.00    -0.166 F 
ATOM     26  F   UNL     1      -1.346  -1.585   1.149  0.00  0.00    -0.166 F 
ENDBRANCH  21  23
ENDBRANCH   1  19
BRANCH   5  27
ATOM     27  S   UNL     1       4.274   0.182  -2.531  0.00  0.00    -0.139 S 
ATOM     28  H   UNL     1       5.000  -0.331  -3.540  0.00  0.00    +0.105 HD
ENDBRANCH   5  27
TORSDOF 4
