REMARK  Name = ZINC24985834
REMARK  6 active torsions:
REMARK  status: ('A' for Active; 'I' for Inactive)
REMARK    1  A    between atoms: C_1  and  C_2
REMARK    2  A    between atoms: C_2  and  C_4
REMARK    3  A    between atoms: C_2  and  N_11
REMARK    4  A    between atoms: N_11  and  C_12
REMARK    5  A    between atoms: C_12  and  C_13
REMARK    6  A    between atoms: C_17  and  C_26
REMARK                            x       y       z     vdW  Elec       q    Type
REMARK                         _______ _______ _______ _____ _____    ______ ____
ROOT
ATOM      1  C   UNL     1      -2.535   1.206  -2.760  0.00  0.00    +0.203 C 
ATOM      2  O   UNL     1      -2.200   2.269  -3.238  0.00  0.00    -0.277 OA
ATOM      3  N   UNL     1      -3.525   0.492  -3.330  0.00  0.00    -0.266 N 
ATOM      4  C   UNL     1      -4.014  -0.756  -2.720  0.00  0.00    +0.168 C 
ATOM      5  C   UNL     1      -4.223  -1.775  -3.850  0.00  0.00    +0.276 C 
ATOM      6  O   UNL     1      -5.153  -1.234  -4.791  0.00  0.00    -0.476 OA
ATOM      7  C   UNL     1      -4.934   0.029  -5.242  0.00  0.00    +0.143 A 
ATOM      8  C   UNL     1      -4.131   0.915  -4.526  0.00  0.00    +0.078 A 
ATOM      9  C   UNL     1      -3.917   2.198  -4.998  0.00  0.00    +0.027 A 
ATOM     10  C   UNL     1      -4.508   2.605  -6.181  0.00  0.00    +0.002 A 
ATOM     11  C   UNL     1      -5.308   1.731  -6.892  0.00  0.00    +0.004 A 
ATOM     12  C   UNL     1      -5.523   0.447  -6.427  0.00  0.00    +0.047 A 
ENDROOT
BRANCH   5  13
ATOM     13  C   UNL     1      -4.771  -3.057  -3.279  0.00  0.00    +0.253 C 
ATOM     14  O   UNL     1      -5.885  -3.429  -3.582  0.00  0.00    -0.272 OA
ATOM     15  N   UNL     1      -4.023  -3.791  -2.431  0.00  0.00    -0.326 N 
ATOM     16  H   UNL     1      -4.423  -4.727  -2.014  0.00  0.00    +0.145 HD
ATOM     17  H   UNL     1      -3.013  -3.454  -2.156  0.00  0.00    +0.145 HD
ENDBRANCH   5  13
BRANCH   1  18
ATOM     18  C   UNL     1      -1.843   0.684  -1.527  0.00  0.00    +0.016 C 
BRANCH  18  19
ATOM     19  N   UNL     1      -0.733   1.578  -1.173  0.00  0.00    +0.389 N 
ATOM     20  H   UNL     1      -1.136   2.584  -0.985  0.00  0.00    -0.084 HD
ATOM     21  H   UNL     1      -0.028   1.617  -2.017  0.00  0.00    -0.084 HD
BRANCH  19  23
ATOM     22  C   UNL     1      -0.756   1.609   1.276  0.00  0.00    -0.009 C 
ATOM     23  C   UNL     1      -0.033   1.099   0.027  0.00  0.00    -0.042 C 
BRANCH  23  24
ATOM     24  C   UNL     1       1.383   1.613   0.022  0.00  0.00    -0.043 A 
ATOM     25  C   UNL     1       1.698   2.764  -0.675  0.00  0.00    +0.003 A 
ATOM     26  C   UNL     1       2.997   3.238  -0.677  0.00  0.00    +0.000 A 
ATOM     27  C   UNL     1       3.983   2.555   0.011  0.00  0.00    +0.001 A 
ATOM     28  C   UNL     1       3.671   1.401   0.704  0.00  0.00    +0.020 A 
ATOM     29  C   UNL     1       2.370   0.929   0.710  0.00  0.00    +0.043 A 
ATOM     30 CL   UNL     1       1.976  -0.520   1.580  0.00  0.00    -0.083 Cl
ENDBRANCH  23  24
ENDBRANCH  19  23
ENDBRANCH  18  19
ENDBRANCH   1  18
TORSDOF 5
