REMARK  Name = ZINC13523732
REMARK  6 active torsions:
REMARK  status: ('A' for Active; 'I' for Inactive)
REMARK    1  A    between atoms: C_8  and  C_10
REMARK    2  A    between atoms: N_12  and  C_13
REMARK    3  A    between atoms: C_13  and  C_14
REMARK    4  A    between atoms: N_16  and  C_17
REMARK    5  A    between atoms: C_21  and  S_23
REMARK    6  A    between atoms: S_23  and  N_26
REMARK                            x       y       z     vdW  Elec       q    Type
REMARK                         _______ _______ _______ _____ _____    ______ ____
ROOT
ATOM      1  C   UNL     1       3.325  10.249   0.750  0.00  0.00    +0.234 C 
ATOM      2  O   UNL     1       2.324  10.431   1.410  0.00  0.00    -0.274 OA
ATOM      3  N   UNL     1       3.848  11.258   0.026  0.00  0.00    -0.284 N 
ATOM      4  H   UNL     1       4.690  11.136  -0.440  0.00  0.00    +0.155 HD
ENDROOT
BRANCH   3   5
ATOM      5  C   UNL     1       3.177  12.483  -0.054  0.00  0.00    +0.035 A 
ATOM      6  C   UNL     1       1.788  12.518  -0.039  0.00  0.00    +0.023 A 
ATOM      7  C   UNL     1       1.128  13.729  -0.112  0.00  0.00    +0.004 A 
ATOM      8  C   UNL     1       1.848  14.905  -0.212  0.00  0.00    +0.029 A 
ATOM      9  C   UNL     1       3.231  14.874  -0.232  0.00  0.00    +0.114 A 
ATOM     10  C   UNL     1       3.897  13.666  -0.154  0.00  0.00    +0.052 A 
BRANCH   9  11
ATOM     11  S   UNL     1       4.143  16.376  -0.359  0.00  0.00    +0.100 S 
ATOM     12  O   UNL     1       3.298  17.408   0.131  0.00  0.00    -0.146 OA
ATOM     13  O   UNL     1       5.428  16.118   0.191  0.00  0.00    -0.146 OA
BRANCH  11  14
ATOM     14  N   UNL     1       4.370  16.676  -1.972  0.00  0.00    -0.118 NA
ATOM     15  C   UNL     1       5.019  17.730  -2.348  0.00  0.00    +0.117 C 
ATOM     16  C   UNL     1       5.571  18.702  -1.308  0.00  0.00    +0.073 C 
ATOM     17  C   UNL     1       7.084  18.575  -1.340  0.00  0.00    +0.008 C 
ATOM     18  C   UNL     1       7.750  19.505  -2.356  0.00  0.00    +0.002 C 
ATOM     19  C   UNL     1       7.016  19.553  -3.696  0.00  0.00    +0.019 C 
ATOM     20  C   UNL     1       6.561  18.192  -4.177  0.00  0.00    +0.102 C 
ATOM     21  N   UNL     1       5.201  17.970  -3.632  0.00  0.00    -0.331 N 
ATOM     22  H   UNL     1       4.435  18.003  -4.226  0.00  0.00    +0.147 HD
ENDBRANCH  11  14
ENDBRANCH   9  11
ENDBRANCH   3   5
BRANCH   1  23
ATOM     23  C   UNL     1       3.985   8.894   0.741  0.00  0.00    +0.200 C 
BRANCH  23  26
ATOM     24  C   UNL     1       3.639   6.702   1.745  0.00  0.00    +0.253 C 
ATOM     25  O   UNL     1       4.633   6.310   1.163  0.00  0.00    -0.270 OA
ATOM     26  N   UNL     1       3.231   7.978   1.600  0.00  0.00    -0.302 N 
ATOM     27  H   UNL     1       2.439   8.290   2.064  0.00  0.00    +0.150 HD
BRANCH  24  35
ATOM     28  C   UNL     1       1.461   1.861   4.984  0.00  0.00    +0.001 A 
ATOM     29  C   UNL     1       0.401   2.608   5.484  0.00  0.00    +0.001 A 
ATOM     30  C   UNL     1       0.276   3.935   5.125  0.00  0.00    +0.016 A 
ATOM     31  C   UNL     1       1.197   4.496   4.266  0.00  0.00    +0.021 A 
ATOM     32  C   UNL     1       2.282   3.758   3.738  0.00  0.00    +0.008 A 
ATOM     33  C   UNL     1       2.376   2.401   4.138  0.00  0.00    +0.010 A 
ATOM     34  C   UNL     1       3.135   4.473   2.876  0.00  0.00    +0.068 A 
ATOM     35  C   UNL     1       2.883   5.783   2.606  0.00  0.00    +0.093 A 
ATOM     36  S   UNL     1       1.409   6.110   3.558  0.00  0.00    -0.082 S 
ATOM     37 CL   UNL     1       4.505   3.685   2.158  0.00  0.00    -0.082 Cl
ENDBRANCH  24  35
ENDBRANCH  23  26
ENDBRANCH   1  23
TORSDOF 6
