REMARK  Name = ZINC44853880
REMARK  9 active torsions:
REMARK  status: ('A' for Active; 'I' for Inactive)
REMARK    1  A    between atoms: C_1  and  C_2
REMARK    2  A    between atoms: C_5  and  C_8
REMARK    3  A    between atoms: C_8  and  N_9
REMARK    4  A    between atoms: C_13  and  C_16
REMARK    5  A    between atoms: N_18  and  C_19
REMARK    6  A    between atoms: C_19  and  C_21
REMARK    7  A    between atoms: C_19  and  C_22
REMARK    8  A    between atoms: C_25  and  N_28
REMARK    9  A    between atoms: C_31  and  C_34
REMARK                            x       y       z     vdW  Elec       q    Type
REMARK                         _______ _______ _______ _____ _____    ______ ____
ROOT
ATOM      1  C   UNL     1       2.922  -8.208  -0.364  0.00  0.00    +0.215 C 
ATOM      2  O   UNL     1       1.882  -8.832  -0.397  0.00  0.00    -0.276 OA
ATOM      3  N   UNL     1       4.099  -8.857  -0.459  0.00  0.00    -0.309 N 
ATOM      4  H   UNL     1       4.931  -8.358  -0.433  0.00  0.00    +0.149 HD
ENDROOT
BRANCH   1   9
ATOM      5  N   UNL     1       1.422  -4.767   0.022  0.00  0.00    +0.383 N 
ATOM      6  C   UNL     1       2.073  -4.380   1.279  0.00  0.00    -0.078 C 
ATOM      7  C   UNL     1       3.547  -4.791   1.241  0.00  0.00    -0.018 C 
ATOM      8  C   UNL     1       3.644  -6.308   1.060  0.00  0.00    +0.009 C 
ATOM      9  C   UNL     1       2.897  -6.709  -0.216  0.00  0.00    +0.058 C 
ATOM     10  C   UNL     1       1.448  -6.227  -0.124  0.00  0.00    -0.066 C 
ATOM     11  H   UNL     1       1.911  -4.344  -0.752  0.00  0.00    -0.081 HD
BRANCH   5  12
ATOM     12  C   UNL     1       0.028  -4.302   0.031  0.00  0.00    -0.043 C 
BRANCH  12  17
ATOM     13  C   UNL     1      -0.077   1.475   0.131  0.00  0.00    +0.044 C 
ATOM     14  C   UNL     1      -0.050  -0.031   0.105  0.00  0.00    -0.050 A 
ATOM     15  C   UNL     1      -0.037  -0.702  -1.104  0.00  0.00    +0.003 A 
ATOM     16  C   UNL     1      -0.011  -2.083  -1.128  0.00  0.00    +0.002 A 
ATOM     17  C   UNL     1       0.002  -2.795   0.057  0.00  0.00    -0.064 A 
ATOM     18  C   UNL     1      -0.010  -2.125   1.266  0.00  0.00    +0.002 A 
ATOM     19  C   UNL     1      -0.031  -0.743   1.290  0.00  0.00    +0.003 A 
ENDBRANCH  12  17
ENDBRANCH   5  12
ENDBRANCH   1   9
BRANCH   3  20
ATOM     20  C   UNL     1       4.123 -10.314  -0.603  0.00  0.00    +0.100 C 
ATOM     21  C   UNL     1       3.967 -10.684  -2.080  0.00  0.00    +0.033 C 
BRANCH  20  22
ATOM     22  C   UNL     1       5.435 -10.849  -0.088  0.00  0.00    -0.027 A 
ATOM     23  C   UNL     1       6.607 -10.162  -0.343  0.00  0.00    +0.007 A 
ATOM     24  C   UNL     1       7.811 -10.649   0.128  0.00  0.00    +0.023 A 
ATOM     25  C   UNL     1       7.843 -11.829   0.859  0.00  0.00    +0.030 A 
ATOM     26  C   UNL     1       6.663 -12.517   1.114  0.00  0.00    +0.023 A 
ATOM     27  C   UNL     1       5.462 -12.021   0.645  0.00  0.00    +0.007 A 
BRANCH  25  28
ATOM     28  N   UNL     1       9.058 -12.325   1.337  0.00  0.00    -0.330 N 
ATOM     29  C   UNL     1       9.094 -13.505   2.211  0.00  0.00    +0.105 C 
ATOM     30  C   UNL     1       9.878 -13.155   3.480  0.00  0.00    +0.022 C 
ATOM     31  C   UNL     1      11.258 -12.619   3.091  0.00  0.00    -0.011 C 
ATOM     32  C   UNL     1      11.096 -11.346   2.256  0.00  0.00    +0.022 C 
ATOM     33  C   UNL     1      10.326 -11.679   0.969  0.00  0.00    +0.105 C 
ATOM     34  C   UNL     1      12.057 -12.301   4.356  0.00  0.00    +0.007 C 
ENDBRANCH  25  28
ENDBRANCH  20  22
ENDBRANCH   3  20
TORSDOF 6
