REMARK  Name = ZINC39791938
REMARK  8 active torsions:
REMARK  status: ('A' for Active; 'I' for Inactive)
REMARK    1  A    between atoms: C_1  and  O_2
REMARK    2  A    between atoms: O_2  and  C_3
REMARK    3  A    between atoms: C_6  and  C_13
REMARK    4  A    between atoms: C_7  and  O_11
REMARK    5  A    between atoms: C_8  and  O_9
REMARK    6  A    between atoms: O_9  and  C_10
REMARK    7  A    between atoms: O_11  and  C_12
REMARK    8  A    between atoms: C_18  and  C_21
REMARK                            x       y       z     vdW  Elec       q    Type
REMARK                         _______ _______ _______ _____ _____    ______ ____
ROOT
ATOM      1  C   UNL     1       2.592  -2.551   4.312  0.00  0.00    +0.251 C 
ATOM      2  O   UNL     1       2.573  -3.761   4.437  0.00  0.00    -0.270 OA
ATOM      3  N   UNL     1       3.228  -1.789   5.224  0.00  0.00    -0.293 N 
ATOM      4  C   UNL     1       3.994  -2.395   6.327  0.00  0.00    +0.113 C 
ATOM      5  C   UNL     1       5.460  -1.985   6.167  0.00  0.00    +0.054 C 
ATOM      6  C   UNL     1       5.563  -0.517   5.874  0.00  0.00    -0.043 C 
ATOM      7  C   UNL     1       4.561   0.225   5.419  0.00  0.00    -0.004 C 
ATOM      8  C   UNL     1       3.189  -0.322   5.153  0.00  0.00    +0.135 C 
ENDROOT
BRANCH   6   9
ATOM      9  C   UNL     1       6.804   0.114   6.096  0.00  0.00    -0.016 C 
ATOM     10  C   UNL     1       8.005  -0.493   6.441  0.00  0.00    +0.003 A 
ATOM     11  C   UNL     1       8.363  -1.842   6.668  0.00  0.00    +0.010 A 
ATOM     12  C   UNL     1       9.641  -2.152   7.000  0.00  0.00    +0.001 A 
ATOM     13  C   UNL     1      10.626  -1.166   7.125  0.00  0.00    +0.002 A 
ATOM     14  C   UNL     1      10.356   0.145   6.923  0.00  0.00    +0.026 A 
ATOM     15  C   UNL     1       9.040   0.549   6.572  0.00  0.00    +0.043 A 
ATOM     16  N   UNL     1       8.530   1.737   6.327  0.00  0.00    -0.380 N 
ATOM     17  C   UNL     1       7.107   1.593   6.003  0.00  0.00    +0.149 C 
ATOM     18  H   UNL     1       9.018   2.574   6.352  0.00  0.00    +0.160 HD
ENDBRANCH   6   9
BRANCH   1  22
ATOM     19  C   UNL     1       0.649  -0.722   1.004  0.00  0.00    +0.165 A 
ATOM     20  C   UNL     1       0.384  -0.285   2.297  0.00  0.00    +0.050 A 
ATOM     21  C   UNL     1       1.011  -0.875   3.371  0.00  0.00    +0.020 A 
ATOM     22  C   UNL     1       1.919  -1.919   3.164  0.00  0.00    +0.082 A 
ATOM     23  C   UNL     1       2.187  -2.360   1.861  0.00  0.00    +0.177 A 
ATOM     24  C   UNL     1       1.545  -1.762   0.786  0.00  0.00    +0.204 A 
BRANCH  19  26
ATOM     25  C   UNL     1      -0.883   0.929   0.245  0.00  0.00    +0.277 C 
ATOM     26  O   UNL     1       0.025  -0.134  -0.050  0.00  0.00    -0.491 OA
ENDBRANCH  19  26
BRANCH  24  27
ATOM     27  O   UNL     1       1.798  -2.189  -0.482  0.00  0.00    -0.488 OA
ATOM     28  C   UNL     1       2.870  -1.552  -1.180  0.00  0.00    +0.277 C 
ENDBRANCH  24  27
BRANCH  23  29
ATOM     29  O   UNL     1       3.067  -3.372   1.652  0.00  0.00    -0.491 OA
ATOM     30  C   UNL     1       2.539  -4.700   1.643  0.00  0.00    +0.277 C 
ENDBRANCH  23  29
ENDBRANCH   1  22
TORSDOF 5
