REMARK  Name = ZINC36095561
REMARK  6 active torsions:
REMARK  status: ('A' for Active; 'I' for Inactive)
REMARK    1  A    between atoms: C_1  and  C_2
REMARK    2  A    between atoms: C_2  and  O_3
REMARK    3  A    between atoms: O_3  and  C_4
REMARK    4  A    between atoms: C_9  and  N_12
REMARK    5  A    between atoms: N_12  and  C_13
REMARK    6  A    between atoms: C_17  and  O_18
REMARK                            x       y       z     vdW  Elec       q    Type
REMARK                         _______ _______ _______ _____ _____    ______ ____
ROOT
ATOM      1  C   UNL     1       5.236  -4.695  -5.045  0.00  0.00    +0.101 C 
ATOM      2  C   UNL     1       6.498  -5.320  -5.484  0.00  0.00    +0.114 C 
ATOM      3  C   UNL     1       5.678  -6.300  -6.238  0.00  0.00    +0.247 C 
ATOM      4  O   UNL     1       5.906  -7.259  -6.951  0.00  0.00    -0.282 OA
ATOM      5  C   UNL     1       4.480  -5.620  -5.750  0.00  0.00    +0.189 C 
ATOM      6  N   UNL     1       7.769  -5.106  -5.293  0.00  0.00    -0.365 N 
ATOM      7  C   UNL     1       8.224  -3.999  -4.444  0.00  0.00    +0.121 C 
ATOM      8  C   UNL     1       9.275  -3.174  -5.173  0.00  0.00    +0.029 C 
ATOM      9  C   UNL     1      10.374  -4.068  -5.750  0.00  0.00    +0.018 C 
ATOM     10  C   UNL     1       9.729  -5.060  -6.721  0.00  0.00    +0.056 C 
ATOM     11  C   UNL     1       8.780  -5.974  -5.919  0.00  0.00    +0.126 C 
ATOM     12  C   UNL     1       8.916  -4.309  -7.750  0.00  0.00    +0.027 A 
ATOM     13  C   UNL     1       8.748  -4.896  -8.965  0.00  0.00    +0.022 A 
ATOM     14  C   UNL     1       7.952  -4.291  -9.944  0.00  0.00    +0.007 A 
ATOM     15  C   UNL     1       7.327  -3.115  -9.651  0.00  0.00    +0.070 A 
ATOM     16  C   UNL     1       7.518  -2.538  -8.387  0.00  0.00    +0.251 A 
ATOM     17  O   UNL     1       6.913  -1.520  -8.090  0.00  0.00    -0.268 OA
ATOM     18  N   UNL     1       8.367  -3.099  -7.492  0.00  0.00    -0.312 N 
ATOM     19  C   UNL     1       8.671  -2.338  -6.287  0.00  0.00    +0.130 C 
ENDROOT
BRANCH   1  20
ATOM     20  N   UNL     1       4.930  -3.622  -4.248  0.00  0.00    -0.336 N 
ATOM     21  H   UNL     1       5.640  -3.099  -3.845  0.00  0.00    +0.147 HD
BRANCH  20  27
ATOM     22  C   UNL     1       0.776  -1.798  -1.335  0.00  0.00    +0.403 C 
ATOM     23  O   UNL     1       0.312  -2.549  -0.500  0.00  0.00    -0.226 OA
ATOM     24  N   UNL     1       1.395  -2.298  -2.422  0.00  0.00    -0.267 N 
ATOM     25  C   UNL     1       1.966  -1.403  -3.437  0.00  0.00    +0.113 C 
ATOM     26  C   UNL     1       3.435  -1.779  -3.656  0.00  0.00    +0.041 C 
ATOM     27  C   UNL     1       3.530  -3.266  -4.005  0.00  0.00    +0.073 C 
ATOM     28  C   UNL     1       2.986  -4.100  -2.843  0.00  0.00    +0.041 C 
ATOM     29  C   UNL     1       1.517  -3.750  -2.611  0.00  0.00    +0.113 C 
BRANCH  22  30
ATOM     30  O   UNL     1       0.671  -0.465  -1.174  0.00  0.00    -0.451 OA
BRANCH  30  32
ATOM     31  C   UNL     1      -0.019   1.526   0.010  0.00  0.00    +0.048 C 
ATOM     32  C   UNL     1       0.002  -0.004   0.002  0.00  0.00    +0.230 C 
ENDBRANCH  30  32
ENDBRANCH  22  30
ENDBRANCH  20  27
ENDBRANCH   1  20
BRANCH   5  33
ATOM     33  O   UNL     1       3.150  -5.818  -5.919  0.00  0.00    -0.502 OA
ATOM     34  H   UNL     1       2.933  -6.571  -6.486  0.00  0.00    +0.292 HD
ENDBRANCH   5  33
TORSDOF 5
