REMARK  Name = ZINC30903845
REMARK  7 active torsions:
REMARK  status: ('A' for Active; 'I' for Inactive)
REMARK    1  A    between atoms: N_9  and  C_11
REMARK    2  A    between atoms: C_11  and  C_12
REMARK    3  A    between atoms: C_12  and  C_14
REMARK    4  A    between atoms: C_12  and  O_25
REMARK    5  A    between atoms: C_14  and  N_15
REMARK    6  A    between atoms: N_15  and  C_16
REMARK    7  A    between atoms: C_16  and  C_17
REMARK                            x       y       z     vdW  Elec       q    Type
REMARK                         _______ _______ _______ _____ _____    ______ ____
ROOT
ATOM      1  C   UNL     1      -0.808   1.520   3.659  0.00  0.00    +0.081 C 
ENDROOT
BRANCH   1   2
ATOM      2  O   UNL     1      -2.233   1.415   3.671  0.00  0.00    -0.395 OA
ATOM      3  H   UNL     1      -2.810   1.851   4.500  0.00  0.00    +0.210 HD
ENDBRANCH   1   2
BRANCH   1   4
ATOM      4  C   UNL     1      -0.257   0.837   2.406  0.00  0.00    -0.049 C 
BRANCH   4  13
ATOM      5  C   UNL     1      -1.567   5.149  -2.179  0.00  0.00    +0.000 A 
ATOM      6  C   UNL     1      -1.460   5.806  -0.967  0.00  0.00    +0.000 A 
ATOM      7  C   UNL     1      -1.122   5.100   0.170  0.00  0.00    +0.002 A 
ATOM      8  C   UNL     1      -0.888   3.734   0.104  0.00  0.00    -0.061 A 
ATOM      9  C   UNL     1      -0.999   3.079  -1.104  0.00  0.00    -0.048 A 
ATOM     10  C   UNL     1      -1.337   3.790  -2.246  0.00  0.00    +0.004 A 
ATOM     11  C   UNL     1      -0.760   1.596  -1.224  0.00  0.00    +0.017 C 
ATOM     12  C   UNL     1      -0.013   1.086   0.008  0.00  0.00    -0.074 C 
ATOM     13  N   UNL     1      -0.709   1.564   1.213  0.00  0.00    +0.384 N 
ATOM     14  C   UNL     1      -0.517   3.009   1.371  0.00  0.00    -0.043 C 
ATOM     15  H   UNL     1      -1.786   1.373   1.095  0.00  0.00    -0.081 HD
ENDBRANCH   4  13
ENDBRANCH   1   4
BRANCH   1  16
ATOM     16  C   UNL     1      -0.236   0.838   4.905  0.00  0.00    -0.052 C 
BRANCH  16  17
ATOM     17  N   UNL     1      -0.766   1.494   6.108  0.00  0.00    +0.383 N 
ATOM     18  H   UNL     1      -0.476   2.555   6.105  0.00  0.00    -0.085 HD
ATOM     19  H   UNL     1      -1.863   1.414   6.117  0.00  0.00    -0.085 HD
BRANCH  17  20
ATOM     20  C   UNL     1      -0.238   0.865   7.326  0.00  0.00    -0.045 C 
BRANCH  20  21
ATOM     21  C   UNL     1      -0.801   1.563   8.537  0.00  0.00    -0.045 A 
ATOM     22  C   UNL     1      -1.794   0.956   9.284  0.00  0.00    +0.003 A 
ATOM     23  C   UNL     1      -2.312   1.596  10.395  0.00  0.00    +0.002 A 
ATOM     24  C   UNL     1      -1.838   2.843  10.759  0.00  0.00    +0.021 A 
ATOM     25  C   UNL     1      -0.846   3.451  10.012  0.00  0.00    +0.059 A 
ATOM     26  C   UNL     1      -0.322   2.807   8.903  0.00  0.00    +0.061 A 
ATOM     27 CL   UNL     1       0.929   3.566   7.970  0.00  0.00    -0.082 Cl
ATOM     28 CL   UNL     1      -0.251   5.016  10.470  0.00  0.00    -0.082 Cl
ENDBRANCH  20  21
ENDBRANCH  17  20
ENDBRANCH  16  17
ENDBRANCH   1  16
TORSDOF 7
