REMARK  Name = ZINC04905180
REMARK  6 active torsions:
REMARK  status: ('A' for Active; 'I' for Inactive)
REMARK    1  A    between atoms: C_1  and  C_2
REMARK    2  A    between atoms: C_2  and  O_3
REMARK    3  A    between atoms: O_3  and  C_4
REMARK    4  A    between atoms: C_7  and  N_10
REMARK    5  A    between atoms: C_23  and  C_27
REMARK    6  A    between atoms: C_24  and  C_26
REMARK                            x       y       z     vdW  Elec       q    Type
REMARK                         _______ _______ _______ _____ _____    ______ ____
ROOT
ATOM      1  N   UNL     1      -1.145   3.756  -1.539  0.00  0.00    -0.244 N 
ATOM      2  C   UNL     1       0.043   3.649  -2.153  0.00  0.00    +0.141 C 
ATOM      3  S   UNL     1       0.091   3.653  -3.865  0.00  0.00    -0.018 S 
ATOM      4  N   UNL     1       1.197   3.537  -1.474  0.00  0.00    -0.319 N 
ATOM      5  C   UNL     1       1.175   3.454  -0.004  0.00  0.00    +0.114 C 
ATOM      6  C   UNL     1       0.811   2.033   0.362  0.00  0.00    +0.015 A 
ATOM      7  C   UNL     1       1.818   1.092   0.480  0.00  0.00    +0.009 A 
ATOM      8  C   UNL     1       1.511  -0.217   0.796  0.00  0.00    +0.001 A 
ATOM      9  C   UNL     1       0.194  -0.589   0.995  0.00  0.00    +0.004 A 
ATOM     10  C   UNL     1      -0.813   0.348   0.883  0.00  0.00    +0.046 A 
ATOM     11  C   UNL     1      -0.508   1.669   0.568  0.00  0.00    +0.128 A 
ATOM     12  O   UNL     1      -1.523   2.567   0.482  0.00  0.00    -0.468 OA
ATOM     13  C   UNL     1      -1.260   3.846  -0.086  0.00  0.00    +0.185 C 
ATOM     14  C   UNL     1       0.056   4.383   0.495  0.00  0.00    +0.074 C 
ATOM     15  C   UNL     1       0.302   5.810   0.003  0.00  0.00    +0.015 C 
ATOM     16  C   UNL     1      -2.401   4.800   0.275  0.00  0.00    +0.079 C 
ATOM     17  H   UNL     1       2.042   3.510  -1.951  0.00  0.00    +0.148 HD
ENDROOT
BRANCH   1  21
ATOM     18  C   UNL     1      -4.614   3.838  -3.851  0.00  0.00    +0.121 A 
ATOM     19  C   UNL     1      -3.902   5.008  -3.627  0.00  0.00    +0.047 A 
ATOM     20  C   UNL     1      -2.753   4.981  -2.862  0.00  0.00    +0.027 A 
ATOM     21  C   UNL     1      -2.310   3.784  -2.316  0.00  0.00    +0.039 A 
ATOM     22  C   UNL     1      -3.020   2.613  -2.545  0.00  0.00    +0.027 A 
ATOM     23  C   UNL     1      -4.172   2.641  -3.307  0.00  0.00    +0.047 A 
BRANCH  18  24
ATOM     24  O   UNL     1      -5.745   3.865  -4.605  0.00  0.00    -0.492 OA
BRANCH  24  26
ATOM     25  C   UNL     1      -7.667   2.851  -5.663  0.00  0.00    +0.048 C 
ATOM     26  C   UNL     1      -6.428   2.624  -4.795  0.00  0.00    +0.225 C 
ENDBRANCH  24  26
ENDBRANCH  18  24
ENDBRANCH   1  21
TORSDOF 3
