REMARK  Name = ZINC21238367
REMARK  7 active torsions:
REMARK  status: ('A' for Active; 'I' for Inactive)
REMARK    1  A    between atoms: C_1  and  C_2
REMARK    2  A    between atoms: C_2  and  C_4
REMARK    3  A    between atoms: C_2  and  N_12
REMARK    4  A    between atoms: C_13  and  C_15
REMARK    5  A    between atoms: C_15  and  N_16
REMARK    6  A    between atoms: C_19  and  C_23
REMARK    7  A    between atoms: C_19  and  C_24
REMARK                            x       y       z     vdW  Elec       q    Type
REMARK                         _______ _______ _______ _____ _____    ______ ____
ROOT
ATOM      1  N   UNL     1      -0.967   7.165  -4.576  0.00  0.00    -0.215 N 
ATOM      2  C   UNL     1      -1.862   6.966  -3.589  0.00  0.00    +0.251 C 
ATOM      3  O   UNL     1      -2.308   7.797  -2.826  0.00  0.00    -0.272 OA
ATOM      4  C   UNL     1      -2.196   5.488  -3.629  0.00  0.00    +0.135 C 
ATOM      5  N   UNL     1      -1.372   4.978  -4.739  0.00  0.00    -0.281 N 
ATOM      6  C   UNL     1      -0.691   6.030  -5.228  0.00  0.00    +0.310 C 
ATOM      7  O   UNL     1       0.088   5.957  -6.158  0.00  0.00    -0.252 OA
ATOM      8  C   UNL     1      -3.684   5.280  -3.920  0.00  0.00    +0.047 C 
ATOM      9  H   UNL     1      -1.409   3.911  -5.006  0.00  0.00    +0.152 HD
ENDROOT
BRANCH   4  10
ATOM     10  C   UNL     1      -1.812   4.822  -2.333  0.00  0.00    -0.012 A 
ATOM     11  C   UNL     1      -1.837   5.542  -1.153  0.00  0.00    +0.010 A 
ATOM     12  C   UNL     1      -1.484   4.935   0.037  0.00  0.00    +0.050 A 
ATOM     13  C   UNL     1      -1.104   3.601   0.051  0.00  0.00    +0.162 A 
ATOM     14  C   UNL     1      -1.081   2.877  -1.135  0.00  0.00    +0.162 A 
ATOM     15  C   UNL     1      -1.435   3.492  -2.326  0.00  0.00    +0.055 A 
ATOM     16  O   UNL     1      -0.716   1.565  -1.143  0.00  0.00    -0.485 OA
ATOM     17  C   UNL     1      -0.013   1.086   0.008  0.00  0.00    +0.270 C 
ATOM     18  C   UNL     1      -0.743   1.587   1.262  0.00  0.00    +0.270 C 
ATOM     19  O   UNL     1      -0.756   3.018   1.230  0.00  0.00    -0.485 OA
ENDBRANCH   4  10
BRANCH   1  20
ATOM     20  C   UNL     1      -0.369   8.464  -4.896  0.00  0.00    +0.213 C 
BRANCH  20  22
ATOM     21  N   UNL     1       1.619   9.775  -4.229  0.00  0.00    -0.307 N 
ATOM     22  C   UNL     1       0.895   8.646  -4.097  0.00  0.00    +0.231 C 
ATOM     23  O   UNL     1       1.262   7.776  -3.335  0.00  0.00    -0.274 OA
ATOM     24  H   UNL     1       1.287  10.564  -4.920  0.00  0.00    +0.149 HD
BRANCH  21  26
ATOM     25  C   UNL     1       2.503  10.510  -2.070  0.00  0.00    +0.033 C 
ATOM     26  C   UNL     1       2.849   9.952  -3.452  0.00  0.00    +0.102 C 
BRANCH  26  27
ATOM     27  C   UNL     1       3.761  10.914  -4.168  0.00  0.00    -0.009 A 
ATOM     28  C   UNL     1       3.234  11.848  -5.041  0.00  0.00    +0.008 A 
ATOM     29  C   UNL     1       4.070  12.730  -5.697  0.00  0.00    +0.020 A 
ATOM     30  C   UNL     1       5.436  12.681  -5.481  0.00  0.00    +0.042 A 
ATOM     31  C   UNL     1       5.964  11.747  -4.608  0.00  0.00    +0.040 A 
ATOM     32  C   UNL     1       5.126  10.867  -3.947  0.00  0.00    +0.047 A 
ATOM     33 CL   UNL     1       5.788   9.699  -2.846  0.00  0.00    -0.083 Cl
ATOM     34 CL   UNL     1       6.486  13.790  -6.307  0.00  0.00    -0.083 Cl
ENDBRANCH  26  27
ENDBRANCH  21  26
ENDBRANCH  20  22
ENDBRANCH   1  20
TORSDOF 5
