REMARK  Name = ZINC41158622
REMARK  6 active torsions:
REMARK  status: ('A' for Active; 'I' for Inactive)
REMARK    1  A    between atoms: C_1  and  N_2
REMARK    2  A    between atoms: C_4  and  C_7
REMARK    3  A    between atoms: C_7  and  N_8
REMARK    4  A    between atoms: N_8  and  S_9
REMARK    5  A    between atoms: S_9  and  C_12
REMARK    6  A    between atoms: C_15  and  N_19
REMARK                            x       y       z     vdW  Elec       q    Type
REMARK                         _______ _______ _______ _____ _____    ______ ____
ROOT
ATOM      1  S   UNL     1       1.760  -5.169  -2.486  0.00  0.00    +0.061 S 
ATOM      2  O   UNL     1       3.166  -5.220  -2.682  0.00  0.00    -0.153 OA
ATOM      3  O   UNL     1       1.067  -6.114  -1.682  0.00  0.00    -0.153 OA
ENDROOT
BRANCH   1   4
ATOM      4  C   UNL     1       1.026  -5.235  -4.087  0.00  0.00    +0.133 A 
ATOM      5  C   UNL     1      -0.274  -5.686  -4.232  0.00  0.00    +0.047 A 
ATOM      6  C   UNL     1      -0.853  -5.740  -5.486  0.00  0.00    +0.040 A 
ATOM      7  C   UNL     1      -0.127  -5.340  -6.601  0.00  0.00    +0.027 A 
ATOM      8  C   UNL     1       1.177  -4.888  -6.452  0.00  0.00    +0.040 A 
ATOM      9  C   UNL     1       1.748  -4.831  -5.195  0.00  0.00    +0.047 A 
ATOM     10 BR   UNL     1       3.522  -4.208  -4.990  0.00  0.00    -0.048 Br
ATOM     11 BR   UNL     1      -1.261  -6.231  -2.713  0.00  0.00    -0.048 Br
BRANCH   7  12
ATOM     12  N   UNL     1      -0.709  -5.394  -7.870  0.00  0.00    -0.358 N 
ATOM     13  H   UNL     1      -1.620  -5.711  -7.973  0.00  0.00    +0.142 HD
ATOM     14  H   UNL     1      -0.202  -5.115  -8.648  0.00  0.00    +0.142 HD
ENDBRANCH   7  12
ENDBRANCH   1   4
BRANCH   1  15
ATOM     15  N   UNL     1       1.424  -3.675  -1.855  0.00  0.00    -0.185 NA
ATOM     16  H   UNL     1       2.144  -3.049  -1.681  0.00  0.00    +0.148 HD
BRANCH  15  17
ATOM     17  C   UNL     1       0.039  -3.298  -1.561  0.00  0.00    +0.144 C 
BRANCH  17  21
ATOM     18  C   UNL     1      -0.018   1.461   0.010  0.00  0.00    +0.172 C 
ATOM     19  N   UNL     1       0.002  -0.004   0.002  0.00  0.00    -0.274 N 
ATOM     20  C   UNL     1       0.008  -0.792  -1.094  0.00  0.00    +0.113 A 
ATOM     21  C   UNL     1       0.027  -2.079  -0.676  0.00  0.00    +0.005 A 
ATOM     22  C   UNL     1       0.034  -2.078   0.723  0.00  0.00    +0.139 A 
ATOM     23  N   UNL     1       0.025  -0.834   1.130  0.00  0.00    -0.180 NA
ENDBRANCH  17  21
ENDBRANCH  15  17
ENDBRANCH   1  15
TORSDOF 5
