REMARK  Name = ZINC39638736
REMARK  9 active torsions:
REMARK  status: ('A' for Active; 'I' for Inactive)
REMARK    1  A    between atoms: C_1  and  C_2
REMARK    2  A    between atoms: C_2  and  O_3
REMARK    3  A    between atoms: O_3  and  C_4
REMARK    4  A    between atoms: C_9  and  C_10
REMARK    5  A    between atoms: C_10  and  N_11
REMARK    6  A    between atoms: C_12  and  C_14
REMARK    7  A    between atoms: C_25  and  C_27
REMARK    8  A    between atoms: C_30  and  O_34
REMARK    9  A    between atoms: O_34  and  C_35
REMARK                            x       y       z     vdW  Elec       q    Type
REMARK                         _______ _______ _______ _____ _____    ______ ____
ROOT
ATOM      1  C   UNL     1      -0.417   0.432   6.532  0.00  0.00    +0.100 C 
ATOM      2  C   UNL     1      -0.821  -0.942   7.113  0.00  0.00    +0.121 C 
ATOM      3  N   UNL     1      -0.051  -1.057   8.373  0.00  0.00    -0.296 N 
ATOM      4  C   UNL     1      -0.091   0.306   8.956  0.00  0.00    +0.115 C 
ATOM      5  C   UNL     1       0.058   1.249   7.745  0.00  0.00    -0.004 C 
ATOM      6  C   UNL     1      -0.819   2.484   7.927  0.00  0.00    -0.010 C 
ATOM      7  C   UNL     1      -0.292   3.311   9.103  0.00  0.00    -0.082 C 
ATOM      8  N   UNL     1       1.097   3.707   8.841  0.00  0.00    +0.379 N 
ATOM      9  C   UNL     1       1.951   2.515   8.761  0.00  0.00    -0.082 C 
ATOM     10  C   UNL     1       1.518   1.655   7.570  0.00  0.00    -0.010 C 
ATOM     11  C   UNL     1       0.550  -2.153   8.877  0.00  0.00    +0.247 C 
ATOM     12  O   UNL     1       0.602  -3.174   8.219  0.00  0.00    -0.270 OA
ATOM     13  H   UNL     1       1.143   4.211   7.969  0.00  0.00    -0.086 HD
ATOM     14  H   UNL     1       1.423   4.302   9.588  0.00  0.00    -0.086 HD
ENDROOT
BRANCH  11  15
ATOM     15  C   UNL     1       1.145  -2.114  10.227  0.00  0.00    +0.040 A 
ATOM     16  C   UNL     1       0.731  -1.147  11.147  0.00  0.00    +0.036 A 
ATOM     17  C   UNL     1       1.288  -1.114  12.407  0.00  0.00    +0.085 A 
ATOM     18  C   UNL     1       2.262  -2.040  12.763  0.00  0.00    +0.157 A 
ATOM     19  C   UNL     1       2.677  -3.003  11.850  0.00  0.00    +0.085 A 
ATOM     20  C   UNL     1       2.120  -3.047  10.591  0.00  0.00    +0.036 A 
ATOM     21 CL   UNL     1       3.894  -4.157  12.300  0.00  0.00    -0.080 Cl
ATOM     22 CL   UNL     1       0.774   0.087  13.551  0.00  0.00    -0.080 Cl
BRANCH  18  23
ATOM     23  O   UNL     1       2.810  -2.003  14.005  0.00  0.00    -0.492 OA
ATOM     24  C   UNL     1       2.167  -2.775  15.021  0.00  0.00    +0.277 C 
ENDBRANCH  18  23
ENDBRANCH  11  15
BRANCH   1  26
ATOM     25  N   UNL     1       0.887   1.198   4.575  0.00  0.00    -0.311 N 
ATOM     26  C   UNL     1       0.703   0.272   5.536  0.00  0.00    +0.218 C 
ATOM     27  O   UNL     1       1.438  -0.690   5.601  0.00  0.00    -0.275 OA
ATOM     28  H   UNL     1       0.298   1.967   4.523  0.00  0.00    +0.149 HD
BRANCH  25  29
ATOM     29  C   UNL     1       1.975   1.042   3.607  0.00  0.00    +0.143 C 
BRANCH  29  35
ATOM     30  C   UNL     1       2.516   3.419   3.019  0.00  0.00    +0.125 A 
ATOM     31  C   UNL     1       2.508   4.484   2.131  0.00  0.00    +0.046 A 
ATOM     32  C   UNL     1       1.945   4.333   0.878  0.00  0.00    +0.004 A 
ATOM     33  C   UNL     1       1.389   3.122   0.510  0.00  0.00    +0.001 A 
ATOM     34  C   UNL     1       1.396   2.059   1.394  0.00  0.00    +0.009 A 
ATOM     35  C   UNL     1       1.963   2.203   2.646  0.00  0.00    +0.011 A 
BRANCH  30  36
ATOM     36  O   UNL     1       3.070   3.565   4.252  0.00  0.00    -0.492 OA
BRANCH  36  38
ATOM     37  C   UNL     1       4.193   4.818   5.987  0.00  0.00    +0.048 C 
ATOM     38  C   UNL     1       3.620   4.845   4.568  0.00  0.00    +0.225 C 
ENDBRANCH  36  38
ENDBRANCH  30  36
ENDBRANCH  29  35
ENDBRANCH  25  29
ENDBRANCH   1  26
TORSDOF 7
