REMARK  Name = ZINC03164250
REMARK  10 active torsions:
REMARK  status: ('A' for Active; 'I' for Inactive)
REMARK    1  A    between atoms: C_1  and  C_2
REMARK    2  A    between atoms: C_3  and  C_16
REMARK    3  A    between atoms: N_6  and  C_7
REMARK    4  A    between atoms: C_7  and  C_8
REMARK    5  A    between atoms: C_8  and  C_10
REMARK    6  A    between atoms: C_16  and  C_17
REMARK    7  A    between atoms: C_17  and  O_18
REMARK    8  A    between atoms: O_18  and  C_19
REMARK    9  A    between atoms: C_19  and  C_21
REMARK   10  A    between atoms: C_23  and  N_28
REMARK                            x       y       z     vdW  Elec       q    Type
REMARK                         _______ _______ _______ _____ _____    ______ ____
ROOT
ATOM      1  C   UNL     1       5.864  -0.929  -2.504  0.00  0.00    +0.064 C 
ATOM      2  C   UNL     1       6.531  -1.323  -1.211  0.00  0.00    +0.026 A 
ATOM      3  C   UNL     1       7.582  -2.182  -1.205  0.00  0.00    +0.013 A 
ATOM      4  S   UNL     1       7.928  -2.265   0.546  0.00  0.00    -0.082 S 
ATOM      5  C   UNL     1       6.682  -1.176   1.073  0.00  0.00    +0.132 A 
ATOM      6  N   UNL     1       6.113  -0.838  -0.061  0.00  0.00    -0.337 N 
ENDROOT
BRANCH   6   7
ATOM      7  C   UNL     1       4.984   0.096  -0.045  0.00  0.00    +0.201 C 
BRANCH   7   8
ATOM      8  C   UNL     1       3.691  -0.680  -0.037  0.00  0.00    +0.183 C 
ATOM      9  O   UNL     1       3.711  -1.892  -0.044  0.00  0.00    -0.290 OA
BRANCH   8  10
ATOM     10  C   UNL     1       2.405   0.035  -0.021  0.00  0.00    +0.019 A 
ATOM     11  C   UNL     1       1.203  -0.681  -0.013  0.00  0.00    +0.011 A 
ATOM     12  C   UNL     1       0.002  -0.004   0.002  0.00  0.00    +0.001 A 
ATOM     13  C   UNL     1      -0.017   1.380   0.010  0.00  0.00    +0.000 A 
ATOM     14  C   UNL     1       1.168   2.095   0.002  0.00  0.00    +0.001 A 
ATOM     15  C   UNL     1       2.377   1.433  -0.013  0.00  0.00    +0.011 A 
ENDBRANCH   8  10
ENDBRANCH   7   8
ENDBRANCH   6   7
BRANCH   3  16
ATOM     16  C   UNL     1       8.264  -2.877  -2.356  0.00  0.00    +0.085 C 
BRANCH  16  17
ATOM     17  C   UNL     1       9.409  -2.004  -2.873  0.00  0.00    +0.237 C 
BRANCH  17  18
ATOM     18  O   UNL     1      10.066  -2.674  -3.981  0.00  0.00    -0.461 OA
BRANCH  18  19
ATOM     19  C   UNL     1      11.103  -2.033  -4.555  0.00  0.00    +0.341 C 
ATOM     20  O   UNL     1      11.449  -0.945  -4.140  0.00  0.00    -0.245 OA
BRANCH  19  21
ATOM     21  C   UNL     1      11.819  -2.654  -5.687  0.00  0.00    +0.079 A 
ATOM     22  C   UNL     1      11.428  -3.908  -6.162  0.00  0.00    +0.049 A 
ATOM     23  C   UNL     1      12.098  -4.480  -7.223  0.00  0.00    +0.127 A 
ATOM     24  C   UNL     1      13.163  -3.820  -7.810  0.00  0.00    +0.034 A 
ATOM     25  C   UNL     1      13.561  -2.580  -7.343  0.00  0.00    +0.023 A 
ATOM     26  C   UNL     1      12.896  -1.993  -6.284  0.00  0.00    +0.055 A 
ATOM     27 CL   UNL     1      13.395  -0.437  -5.698  0.00  0.00    -0.083 Cl
BRANCH  23  28
ATOM     28  N   UNL     1      11.681  -5.806  -7.731  0.00  0.00    +0.056 N 
ATOM     29  O   UNL     1      12.274  -6.315  -8.664  0.00  0.00    -0.126 OA
ATOM     30  O   UNL     1      10.743  -6.388  -7.215  0.00  0.00    -0.126 OA
ENDBRANCH  23  28
ENDBRANCH  19  21
ENDBRANCH  18  19
ENDBRANCH  17  18
ENDBRANCH  16  17
ENDBRANCH   3  16
TORSDOF 9
