REMARK  Name = ZINC39266729
REMARK  8 active torsions:
REMARK  status: ('A' for Active; 'I' for Inactive)
REMARK    1  A    between atoms: N_18  and  C_19
REMARK    2  A    between atoms: C_19  and  C_20
REMARK    3  A    between atoms: N_22  and  C_23
REMARK    4  A    between atoms: N_22  and  C_27
REMARK    5  A    between atoms: C_23  and  C_24
REMARK    6  A    between atoms: C_24  and  C_25
REMARK    7  A    between atoms: C_27  and  C_28
REMARK    8  A    between atoms: C_28  and  C_29
REMARK                            x       y       z     vdW  Elec       q    Type
REMARK                         _______ _______ _______ _____ _____    ______ ____
ROOT
ATOM      1  C   UNL     1      -0.017   1.370   0.010  0.00  0.00    +0.001 A 
ATOM      2  C   UNL     1       1.171   2.084   0.002  0.00  0.00    +0.002 A 
ATOM      3  C   UNL     1       2.375   1.416  -0.024  0.00  0.00    +0.024 A 
ATOM      4  C   UNL     1       2.412   0.022  -0.036  0.00  0.00    +0.049 A 
ATOM      5  C   UNL     1       1.223  -0.705  -0.010  0.00  0.00    +0.058 A 
ATOM      6  C   UNL     1       0.002  -0.004   0.002  0.00  0.00    +0.015 A 
ATOM      7  C   UNL     1       1.164  -2.162   0.035  0.00  0.00    +0.249 C 
ATOM      8  O   UNL     1       0.328  -2.700  -0.665  0.00  0.00    -0.270 OA
ATOM      9  N   UNL     1       1.947  -2.970   0.779  0.00  0.00    -0.286 N 
ATOM     10  C   UNL     1       1.559  -4.381   0.810  0.00  0.00    +0.109 C 
ATOM     11  C   UNL     1       2.665  -5.259   1.386  0.00  0.00    +0.019 C 
ATOM     12  C   UNL     1       3.101  -4.624   2.716  0.00  0.00    +0.004 C 
ATOM     13  C   UNL     1       3.860  -3.347   2.380  0.00  0.00    +0.032 C 
ATOM     14  C   UNL     1       3.050  -2.395   1.523  0.00  0.00    +0.163 C 
ATOM     15  C   UNL     1       3.987  -1.689   0.576  0.00  0.00    +0.241 C 
ATOM     16  O   UNL     1       5.099  -2.146   0.415  0.00  0.00    -0.273 OA
ATOM     17  N   UNL     1       3.653  -0.592  -0.090  0.00  0.00    -0.260 N 
ENDROOT
BRANCH  17  18
ATOM     18  C   UNL     1       4.673   0.018  -0.947  0.00  0.00    +0.209 C 
BRANCH  18  19
ATOM     19  C   UNL     1       5.464   1.023  -0.150  0.00  0.00    +0.233 C 
ATOM     20  O   UNL     1       5.201   1.212   1.019  0.00  0.00    -0.274 OA
ATOM     21  N   UNL     1       6.463   1.712  -0.736  0.00  0.00    -0.299 N 
BRANCH  21  22
ATOM     22  C   UNL     1       6.780   1.483  -2.148  0.00  0.00    +0.122 C 
BRANCH  22  23
ATOM     23  C   UNL     1       5.957   2.437  -3.017  0.00  0.00    +0.137 C 
BRANCH  23  24
ATOM     24  C   UNL     1       6.276   2.207  -4.435  0.00  0.00    +0.064 C 
ATOM     25  N   UNL     1       6.522   2.030  -5.530  0.00  0.00    -0.197 NA
ENDBRANCH  23  24
ENDBRANCH  22  23
ENDBRANCH  21  22
BRANCH  21  26
ATOM     26  C   UNL     1       7.232   2.689   0.038  0.00  0.00    +0.114 C 
BRANCH  26  27
ATOM     27  C   UNL     1       8.433   1.996   0.685  0.00  0.00    +0.074 C 
BRANCH  27  28
ATOM     28  C   UNL     1       9.224   3.002   1.482  0.00  0.00    +0.043 A 
ATOM     29  C   UNL     1       9.489   2.759   2.817  0.00  0.00    +0.023 A 
ATOM     30  C   UNL     1      10.217   3.691   3.541  0.00  0.00    +0.003 A 
ATOM     31  C   UNL     1      10.653   4.836   2.892  0.00  0.00    +0.020 A 
ATOM     32  C   UNL     1      10.350   5.010   1.555  0.00  0.00    +0.111 A 
ATOM     33  N   UNL     1       9.659   4.100   0.896  0.00  0.00    -0.260 NA
ENDBRANCH  27  28
ENDBRANCH  26  27
ENDBRANCH  21  26
ENDBRANCH  18  19
ENDBRANCH  17  18
TORSDOF 8
