REMARK  Name = ZINC52340717
REMARK  6 active torsions:
REMARK  status: ('A' for Active; 'I' for Inactive)
REMARK    1  A    between atoms: C_1  and  C_2
REMARK    2  A    between atoms: C_2  and  C_4
REMARK    3  A    between atoms: C_2  and  N_10
REMARK    4  A    between atoms: C_11  and  C_13
REMARK    5  A    between atoms: C_13  and  C_20
REMARK    6  A    between atoms: C_20  and  N_21
REMARK                            x       y       z     vdW  Elec       q    Type
REMARK                         _______ _______ _______ _____ _____    ______ ____
ROOT
ATOM      1  N   UNL     1      -1.533  -0.276   0.148  0.00  0.00    -0.312 N 
ATOM      2  C   UNL     1      -2.078  -0.597  -1.042  0.00  0.00    +0.218 C 
ATOM      3  O   UNL     1      -1.476  -0.361  -2.068  0.00  0.00    -0.275 OA
ATOM      4  H   UNL     1      -2.043  -0.399   0.964  0.00  0.00    +0.149 HD
ENDROOT
BRANCH   2   5
ATOM      5  C   UNL     1      -3.436  -1.249  -1.098  0.00  0.00    +0.031 C 
ATOM      6  C   UNL     1      -4.418  -0.432  -0.234  0.00  0.00    +0.014 C 
ATOM      7  C   UNL     1      -4.148   1.032  -0.457  0.00  0.00    +0.001 C 
ATOM      8  C   UNL     1      -5.051   1.638  -1.548  0.00  0.00    +0.000 C 
ATOM      9  C   UNL     1      -5.220   0.711  -2.767  0.00  0.00    +0.000 C 
ATOM     10  C   UNL     1      -3.931   0.046  -3.168  0.00  0.00    +0.001 C 
ATOM     11  C   UNL     1      -3.860  -1.336  -2.487  0.00  0.00    +0.014 C 
BRANCH   5  12
ATOM     12  C   UNL     1      -3.330  -2.663  -0.522  0.00  0.00    -0.070 C 
BRANCH  12  13
ATOM     13  N   UNL     1      -4.634  -3.332  -0.626  0.00  0.00    +0.379 N 
ATOM     14  H   UNL     1      -4.553  -4.280  -0.289  0.00  0.00    -0.090 HD
ATOM     15  H   UNL     1      -5.313  -2.834  -0.071  0.00  0.00    -0.090 HD
ATOM     16  H   UNL     1      -4.931  -3.342  -1.591  0.00  0.00    -0.090 HD
ENDBRANCH  12  13
ENDBRANCH   5  12
ENDBRANCH   2   5
BRANCH   1  18
ATOM     17  C   UNL     1      -0.205   1.770  -0.017  0.00  0.00    +0.028 C 
ATOM     18  C   UNL     1      -0.170   0.258   0.210  0.00  0.00    +0.073 C 
BRANCH  18  19
ATOM     19  C   UNL     1       0.432  -0.039   1.585  0.00  0.00    +0.009 C 
ATOM     20  C   UNL     1      -0.423   0.620   2.669  0.00  0.00    +0.005 C 
ATOM     21  C   UNL     1       0.179   0.324   4.044  0.00  0.00    +0.000 C 
ATOM     22  C   UNL     1       1.602   0.881   4.108  0.00  0.00    +0.000 C 
ATOM     23  C   UNL     1       2.457   0.223   3.024  0.00  0.00    +0.000 C 
ATOM     24  C   UNL     1       1.855   0.519   1.649  0.00  0.00    +0.005 C 
ENDBRANCH  18  19
ENDBRANCH   1  18
TORSDOF 5
