REMARK  Name = ZINC36597441
REMARK  14 active torsions:
REMARK  status: ('A' for Active; 'I' for Inactive)
REMARK    1  A    between atoms: C_1  and  C_2
REMARK    2  A    between atoms: C_5  and  C_7
REMARK    3  A    between atoms: C_7  and  N_8
REMARK    4  A    between atoms: N_8  and  C_9
REMARK    5  A    between atoms: C_9  and  C_11
REMARK    6  A    between atoms: C_9  and  C_18
REMARK    7  A    between atoms: C_14  and  O_17
REMARK    8  A    between atoms: N_20  and  C_21
REMARK    9  A    between atoms: C_21  and  C_22
REMARK   10  A    between atoms: C_21  and  C_23
REMARK   11  A    between atoms: C_21  and  C_24
REMARK   12  A    between atoms: C_25  and  C_27
REMARK   13  A    between atoms: C_28  and  O_34
REMARK   14  A    between atoms: C_32  and  O_33
REMARK                            x       y       z     vdW  Elec       q    Type
REMARK                         _______ _______ _______ _____ _____    ______ ____
ROOT
ATOM      1  N   UNL     1       1.944  -3.478  -1.236  0.00  0.00    -0.274 N 
ATOM      2  C   UNL     1       0.990  -4.365  -1.581  0.00  0.00    +0.255 C 
ATOM      3  O   UNL     1       1.059  -4.950  -2.645  0.00  0.00    -0.270 OA
ENDROOT
BRANCH   2   4
ATOM      4  C   UNL     1      -0.136  -4.626  -0.669  0.00  0.00    +0.119 A 
ATOM      5  C   UNL     1      -1.312  -3.868  -0.765  0.00  0.00    +0.133 A 
ATOM      6  C   UNL     1      -2.366  -4.123   0.098  0.00  0.00    +0.046 A 
ATOM      7  C   UNL     1      -2.261  -5.120   1.050  0.00  0.00    +0.007 A 
ATOM      8  C   UNL     1      -1.106  -5.872   1.153  0.00  0.00    +0.046 A 
ATOM      9  C   UNL     1      -0.043  -5.639   0.297  0.00  0.00    +0.133 A 
BRANCH   9  10
ATOM     10  O   UNL     1       1.087  -6.383   0.396  0.00  0.00    -0.506 OA
ATOM     11  H   UNL     1       1.747  -6.018   1.001  0.00  0.00    +0.292 HD
ENDBRANCH   9  10
BRANCH   5  12
ATOM     12  O   UNL     1      -1.417  -2.889  -1.698  0.00  0.00    -0.506 OA
ATOM     13  H   UNL     1      -1.778  -3.189  -2.544  0.00  0.00    +0.292 HD
ENDBRANCH   5  12
ENDBRANCH   2   4
BRANCH   1  14
ATOM     14  C   UNL     1       1.923  -2.858   0.091  0.00  0.00    +0.183 C 
BRANCH  14  19
ATOM     15  C   UNL     1       0.718   2.011  -0.445  0.00  0.00    +0.086 C 
ATOM     16  C   UNL     1       0.591   0.530  -0.194  0.00  0.00    +0.102 A 
ATOM     17  C   UNL     1      -0.546  -0.121   0.110  0.00  0.00    +0.045 A 
ATOM     18  C   UNL     1      -0.208  -1.486   0.260  0.00  0.00    +0.046 A 
ATOM     19  C   UNL     1       1.115  -1.587   0.039  0.00  0.00    +0.122 A 
ATOM     20  O   UNL     1       1.593  -0.363  -0.242  0.00  0.00    -0.463 OA
ENDBRANCH  14  19
ENDBRANCH   1  14
BRANCH   1  21
ATOM     21  C   UNL     1       3.003  -3.134  -2.189  0.00  0.00    +0.193 C 
BRANCH  21  22
ATOM     22  C   UNL     1       2.384  -2.668  -3.481  0.00  0.00    -0.018 A 
ATOM     23  C   UNL     1       2.155  -3.572  -4.502  0.00  0.00    +0.009 A 
ATOM     24  C   UNL     1       1.588  -3.148  -5.688  0.00  0.00    +0.046 A 
ATOM     25  C   UNL     1       1.247  -1.813  -5.854  0.00  0.00    +0.117 A 
ATOM     26  C   UNL     1       1.476  -0.908  -4.828  0.00  0.00    +0.046 A 
ATOM     27  C   UNL     1       2.039  -1.339  -3.642  0.00  0.00    +0.009 A 
BRANCH  25  28
ATOM     28  O   UNL     1       0.689  -1.393  -7.020  0.00  0.00    -0.507 OA
ATOM     29  H   UNL     1      -0.277  -1.437  -7.032  0.00  0.00    +0.292 HD
ENDBRANCH  25  28
ENDBRANCH  21  22
BRANCH  21  30
ATOM     30  C   UNL     1       3.858  -4.347  -2.450  0.00  0.00    +0.239 C 
ATOM     31  O   UNL     1       3.608  -5.396  -1.895  0.00  0.00    -0.273 OA
ATOM     32  N   UNL     1       4.901  -4.266  -3.300  0.00  0.00    -0.309 N 
ATOM     33  H   UNL     1       5.101  -3.427  -3.744  0.00  0.00    +0.149 HD
BRANCH  32  34
ATOM     34  C   UNL     1       5.732  -5.445  -3.554  0.00  0.00    +0.026 C 
ATOM     35  C   UNL     1       4.866  -6.564  -4.136  0.00  0.00    +0.031 C 
ATOM     36  C   UNL     1       6.837  -5.086  -4.549  0.00  0.00    +0.031 C 
ATOM     37  C   UNL     1       6.361  -5.918  -2.242  0.00  0.00    +0.031 C 
ENDBRANCH  32  34
ENDBRANCH  21  30
ENDBRANCH   1  21
TORSDOF 10
