REMARK  Name = ZINC62330991
REMARK  3 active torsions:
REMARK  status: ('A' for Active; 'I' for Inactive)
REMARK    1  A    between atoms: C_10  and  C_12
REMARK    2  A    between atoms: C_12  and  C_13
REMARK    3  A    between atoms: C_19  and  N_21
REMARK                            x       y       z     vdW  Elec       q    Type
REMARK                         _______ _______ _______ _____ _____    ______ ____
ROOT
ATOM      1  C   UNL     1      -0.016   1.339   0.009  0.00  0.00    +0.102 A 
ATOM      2  C   UNL     1       1.260   1.775  -0.000  0.00  0.00    +0.105 A 
ATOM      3  N   UNL     1       2.054   0.665  -0.016  0.00  0.00    -0.333 N 
ATOM      4  C   UNL     1       1.236  -0.414  -0.009  0.00  0.00    +0.105 A 
ATOM      5  N   UNL     1       0.002  -0.004   0.002  0.00  0.00    -0.348 N 
ATOM      6  C   UNL     1       1.732  -1.842  -0.007  0.00  0.00    +0.180 C 
ATOM      7  N   UNL     1       3.180  -1.797  -0.282  0.00  0.00    -0.293 N 
ATOM      8  C   UNL     1       3.983  -0.775   0.406  0.00  0.00    +0.130 C 
ATOM      9  C   UNL     1       3.517   0.616  -0.041  0.00  0.00    +0.142 C 
ATOM     10  C   UNL     1       3.751  -2.667  -1.138  0.00  0.00    +0.216 C 
ATOM     11  O   UNL     1       4.944  -2.615  -1.350  0.00  0.00    -0.276 OA
ATOM     12  H   UNL     1      -0.781  -0.577   0.004  0.00  0.00    +0.166 HD
ENDROOT
BRANCH  10  13
ATOM     13  C   UNL     1       2.908  -3.707  -1.830  0.00  0.00    +0.098 C 
BRANCH  13  14
ATOM     14  C   UNL     1       3.794  -4.560  -2.740  0.00  0.00    -0.017 C 
ATOM     15  C   UNL     1       4.790  -5.349  -1.887  0.00  0.00    +0.002 C 
ATOM     16  C   UNL     1       5.676  -6.202  -2.796  0.00  0.00    +0.000 C 
ATOM     17  C   UNL     1       4.804  -7.175  -3.593  0.00  0.00    -0.002 C 
ATOM     18  C   UNL     1       3.809  -6.385  -4.446  0.00  0.00    -0.016 C 
ATOM     19  C   UNL     1       2.922  -5.532  -3.536  0.00  0.00    -0.072 C 
BRANCH  19  20
ATOM     20  N   UNL     1       2.189  -6.404  -2.609  0.00  0.00    +0.380 N 
ATOM     21  H   UNL     1       1.604  -5.842  -2.009  0.00  0.00    -0.090 HD
ATOM     22  H   UNL     1       1.613  -7.045  -3.135  0.00  0.00    -0.090 HD
ATOM     23  H   UNL     1       2.845  -6.925  -2.047  0.00  0.00    -0.090 HD
ENDBRANCH  19  20
ENDBRANCH  13  14
ENDBRANCH  10  13
TORSDOF 3
