REMARK  Name = ZINC43147295
REMARK  10 active torsions:
REMARK  status: ('A' for Active; 'I' for Inactive)
REMARK    1  A    between atoms: C_1  and  C_2
REMARK    2  A    between atoms: C_2  and  C_4
REMARK    3  A    between atoms: C_2  and  O_20
REMARK    4  A    between atoms: N_6  and  N_7
REMARK    5  A    between atoms: N_10  and  C_11
REMARK    6  A    between atoms: C_11  and  C_12
REMARK    7  A    between atoms: C_12  and  N_17
REMARK    8  A    between atoms: N_17  and  C_18
REMARK    9  A    between atoms: N_17  and  C_19
REMARK   10  A    between atoms: O_20  and  C_21
REMARK                            x       y       z     vdW  Elec       q    Type
REMARK                         _______ _______ _______ _____ _____    ______ ____
ROOT
ATOM      1  N   UNL     1       0.581  -0.624  -3.283  0.00  0.00    -0.218 N 
ATOM      2  C   UNL     1       0.035  -0.506  -4.510  0.00  0.00    +0.316 C 
ATOM      3  O   UNL     1       0.578  -1.019  -5.469  0.00  0.00    -0.251 OA
ATOM      4  N   UNL     1      -1.113   0.181  -4.673  0.00  0.00    -0.300 N 
ATOM      5  H   UNL     1       1.407  -1.119  -3.166  0.00  0.00    +0.174 HD
ATOM      6  H   UNL     1      -1.546   0.591  -3.908  0.00  0.00    +0.150 HD
ENDROOT
BRANCH   1   9
ATOM      7  C   UNL     1       0.501  -0.151  -0.951  0.00  0.00    +0.270 C 
ATOM      8  O   UNL     1       1.534  -0.769  -0.804  0.00  0.00    -0.270 OA
ATOM      9  N   UNL     1      -0.045  -0.033  -2.178  0.00  0.00    -0.230 N 
ATOM     10  H   UNL     1      -0.871   0.462  -2.295  0.00  0.00    +0.173 HD
BRANCH   7  12
ATOM     11  C   UNL     1      -0.158   2.007   0.078  0.00  0.00    +0.062 C 
ATOM     12  C   UNL     1      -0.172   0.485   0.238  0.00  0.00    +0.257 C 
BRANCH  12  13
ATOM     13  O   UNL     1       0.528   0.125   1.430  0.00  0.00    -0.480 OA
BRANCH  13  14
ATOM     14  C   UNL     1      -0.173   0.169   2.594  0.00  0.00    +0.122 A 
ATOM     15  C   UNL     1      -1.523   0.487   2.580  0.00  0.00    +0.048 A 
ATOM     16  C   UNL     1      -2.234   0.532   3.764  0.00  0.00    +0.042 A 
ATOM     17  C   UNL     1      -1.599   0.260   4.964  0.00  0.00    +0.124 A 
ATOM     18  C   UNL     1      -0.252  -0.057   4.980  0.00  0.00    +0.042 A 
ATOM     19  C   UNL     1       0.460  -0.109   3.797  0.00  0.00    +0.048 A 
ATOM     20  F   UNL     1      -2.296   0.305   6.121  0.00  0.00    -0.205 F 
ENDBRANCH  13  14
ENDBRANCH  12  13
ENDBRANCH   7  12
ENDBRANCH   1   9
BRANCH   4  21
ATOM     21  C   UNL     1      -1.707   0.310  -6.006  0.00  0.00    +0.094 C 
BRANCH  21  22
ATOM     22  C   UNL     1      -2.924   1.233  -5.935  0.00  0.00    -0.050 C 
ATOM     23  C   UNL     1      -4.027   0.589  -5.069  0.00  0.00    -0.010 C 
ATOM     24  C   UNL     1      -5.346   0.983  -5.779  0.00  0.00    -0.001 C 
ATOM     25  C   UNL     1      -4.969   0.888  -7.278  0.00  0.00    -0.001 C 
ATOM     26  C   UNL     1      -3.524   1.424  -7.340  0.00  0.00    -0.010 C 
BRANCH  22  27
ATOM     27  N   UNL     1      -2.537   2.534  -5.373  0.00  0.00    +0.381 N 
ATOM     28  C   UNL     1      -1.559   3.179  -6.258  0.00  0.00    -0.096 C 
ATOM     29  C   UNL     1      -3.726   3.388  -5.252  0.00  0.00    -0.096 C 
ATOM     30  H   UNL     1      -2.127   2.397  -4.461  0.00  0.00    -0.082 HD
ENDBRANCH  22  27
ENDBRANCH  21  22
ENDBRANCH   4  21
TORSDOF 7
