REMARK  Name = ZINC06035119
REMARK  15 active torsions:
REMARK  status: ('A' for Active; 'I' for Inactive)
REMARK    1  A    between atoms: C_1  and  C_2
REMARK    2  A    between atoms: C_2  and  O_3
REMARK    3  A    between atoms: O_3  and  C_4
REMARK    4  A    between atoms: C_7  and  C_13
REMARK    5  A    between atoms: C_9  and  O_10
REMARK    6  A    between atoms: O_10  and  C_11
REMARK    7  A    between atoms: C_11  and  C_12
REMARK    8  A    between atoms: C_13  and  C_14
REMARK    9  A    between atoms: C_14  and  N_15
REMARK   10  A    between atoms: C_19  and  N_64
REMARK   11  A    between atoms: C_23  and  C_24
REMARK   12  A    between atoms: C_23  and  N_64
REMARK   13  A    between atoms: C_24  and  C_25
REMARK   14  A    between atoms: C_28  and  S_31
REMARK   15  A    between atoms: S_31  and  N_34
REMARK                            x       y       z     vdW  Elec       q    Type
REMARK                         _______ _______ _______ _____ _____    ______ ____
ROOT
ATOM      1  N   UNL     1       2.187   0.797  -0.015  0.00  0.00    -0.243 N 
ATOM      2  C   UNL     1       1.478  -0.339  -0.014  0.00  0.00    +0.221 C 
ATOM      3  O   UNL     1       1.944  -1.458  -0.024  0.00  0.00    -0.275 OA
ATOM      4  C   UNL     1       0.002  -0.004   0.002  0.00  0.00    +0.090 C 
ATOM      5  C   UNL     1      -0.019   1.538   0.011  0.00  0.00    +0.025 C 
ATOM      6  C   UNL     1       1.447   1.913  -0.002  0.00  0.00    +0.208 C 
ATOM      7  O   UNL     1       1.883   3.044   0.000  0.00  0.00    -0.277 OA
ENDROOT
BRANCH   5   8
ATOM      8  N   UNL     1      -0.695   2.047  -1.198  0.00  0.00    +0.387 N 
ATOM      9  H   UNL     1      -1.459   1.410  -1.452  0.00  0.00    -0.085 HD
ATOM     10  H   UNL     1      -0.018   2.096  -1.969  0.00  0.00    -0.085 HD
BRANCH   8  11
ATOM     11  C   UNL     1      -1.246   3.393  -0.948  0.00  0.00    -0.077 C 
BRANCH  11  12
ATOM     12  C   UNL     1      -1.939   3.894  -2.216  0.00  0.00    +0.016 C 
BRANCH  12  13
ATOM     13  C   UNL     1      -2.505   5.269  -1.970  0.00  0.00    -0.049 A 
ATOM     14  C   UNL     1      -3.795   5.410  -1.493  0.00  0.00    +0.005 A 
ATOM     15  C   UNL     1      -4.312   6.670  -1.262  0.00  0.00    +0.029 A 
ATOM     16  C   UNL     1      -3.543   7.790  -1.517  0.00  0.00    +0.105 A 
ATOM     17  C   UNL     1      -2.255   7.650  -1.999  0.00  0.00    +0.029 A 
ATOM     18  C   UNL     1      -1.736   6.389  -2.225  0.00  0.00    +0.005 A 
BRANCH  16  19
ATOM     19  S   UNL     1      -4.205   9.398  -1.227  0.00  0.00    +0.056 S 
ATOM     20  O   UNL     1      -5.236   9.245  -0.262  0.00  0.00    -0.153 OA
ATOM     21  O   UNL     1      -3.096  10.263  -1.027  0.00  0.00    -0.153 OA
BRANCH  19  22
ATOM     22  N   UNL     1      -4.938   9.886  -2.630  0.00  0.00    -0.204 NA
ATOM     23  H   UNL     1      -5.700  10.485  -2.595  0.00  0.00    +0.144 HD
ATOM     24  H   UNL     1      -4.606   9.572  -3.485  0.00  0.00    +0.144 HD
ENDBRANCH  19  22
ENDBRANCH  16  19
ENDBRANCH  12  13
ENDBRANCH  11  12
ENDBRANCH   8  11
ENDBRANCH   5   8
BRANCH   1  25
ATOM     25  C   UNL     1       3.652   0.817  -0.029  0.00  0.00    +0.121 C 
BRANCH  25  26
ATOM     26  C   UNL     1       4.147   0.832  -1.476  0.00  0.00    +0.054 C 
BRANCH  26  30
ATOM     27  C   UNL     1       8.423   0.884  -1.519  0.00  0.00    +0.162 A 
ATOM     28  C   UNL     1       7.742  -0.322  -1.519  0.00  0.00    +0.050 A 
ATOM     29  C   UNL     1       6.360  -0.336  -1.505  0.00  0.00    +0.007 A 
ATOM     30  C   UNL     1       5.654   0.853  -1.491  0.00  0.00    -0.042 A 
ATOM     31  C   UNL     1       6.327   2.060  -1.496  0.00  0.00    +0.053 A 
ATOM     32  C   UNL     1       7.713   2.081  -1.505  0.00  0.00    +0.162 A 
BRANCH  27  33
ATOM     33  O   UNL     1       9.783   0.899  -1.532  0.00  0.00    -0.489 OA
BRANCH  33  35
ATOM     34  C   UNL     1      11.960  -0.149  -1.561  0.00  0.00    +0.048 C 
ATOM     35  C   UNL     1      10.446  -0.366  -1.546  0.00  0.00    +0.226 C 
ENDBRANCH  33  35
ENDBRANCH  27  33
BRANCH  32  36
ATOM     36  O   UNL     1       8.377   3.268  -1.505  0.00  0.00    -0.489 OA
BRANCH  36  37
ATOM     37  C   UNL     1       7.582   4.455  -1.490  0.00  0.00    +0.226 C 
ATOM     38  C   UNL     1       8.498   5.681  -1.492  0.00  0.00    +0.048 C 
ENDBRANCH  36  37
ENDBRANCH  32  36
ENDBRANCH  26  30
ENDBRANCH  25  26
ENDBRANCH   1  25
TORSDOF 13
