REMARK  Name = ZINC04508502
REMARK  5 active torsions:
REMARK  status: ('A' for Active; 'I' for Inactive)
REMARK    1  A    between atoms: C_1  and  C_2
REMARK    2  A    between atoms: C_5  and  S_8
REMARK    3  A    between atoms: S_8  and  C_9
REMARK    4  A    between atoms: C_12  and  C_14
REMARK    5  A    between atoms: N_15  and  N_16
REMARK                            x       y       z     vdW  Elec       q    Type
REMARK                         _______ _______ _______ _____ _____    ______ ____
ROOT
ATOM      1  C   UNL     1      -0.973   3.904   0.179  0.00  0.00    +0.167 A 
ATOM      2  C   UNL     1      -1.757   5.007   0.336  0.00  0.00    +0.057 A 
ATOM      3  C   UNL     1      -0.900   6.113   0.421  0.00  0.00    +0.052 A 
ATOM      4  C   UNL     1       0.385   5.629   0.310  0.00  0.00    +0.149 A 
ATOM      5  O   UNL     1       0.314   4.286   0.170  0.00  0.00    -0.447 OA
ENDROOT
BRANCH   4   6
ATOM      6  C   UNL     1       1.573   6.402   0.344  0.00  0.00    +0.179 C 
ATOM      7  N   UNL     1       2.733   5.819   0.228  0.00  0.00    -0.169 NA
BRANCH   7   8
ATOM      8  N   UNL     1       3.907   6.584   0.261  0.00  0.00    -0.207 N 
ATOM      9  C   UNL     1       4.146   7.752  -0.398  0.00  0.00    +0.248 A 
ATOM     10  N   UNL     1       5.358   8.129  -0.090  0.00  0.00    -0.136 NA
ATOM     11  N   UNL     1       5.893   7.274   0.707  0.00  0.00    -0.136 NA
ATOM     12  C   UNL     1       5.047   6.308   0.954  0.00  0.00    +0.248 A 
ENDBRANCH   7   8
ENDBRANCH   4   6
BRANCH   1  13
ATOM     13  S   UNL     1      -1.553   2.248   0.022  0.00  0.00    -0.052 S 
BRANCH  13  18
ATOM     14  C   UNL     1       3.701  -0.724   0.018  0.00  0.00    +0.044 C 
ATOM     15  C   UNL     1       2.390   0.019   0.019  0.00  0.00    -0.050 A 
ATOM     16  C   UNL     1       1.785   0.349   1.218  0.00  0.00    +0.004 A 
ATOM     17  C   UNL     1       0.584   1.031   1.223  0.00  0.00    +0.015 A 
ATOM     18  C   UNL     1      -0.017   1.385   0.021  0.00  0.00    +0.016 A 
ATOM     19  C   UNL     1       0.594   1.051  -1.182  0.00  0.00    +0.015 A 
ATOM     20  C   UNL     1       1.794   0.369  -1.179  0.00  0.00    +0.004 A 
ENDBRANCH  13  18
ENDBRANCH   1  13
TORSDOF 4
