REMARK  Name = ZINC53202809
REMARK  6 active torsions:
REMARK  status: ('A' for Active; 'I' for Inactive)
REMARK    1  A    between atoms: C_1  and  C_2
REMARK    2  A    between atoms: C_5  and  N_20
REMARK    3  A    between atoms: C_7  and  S_8
REMARK    4  A    between atoms: S_8  and  N_11
REMARK    5  A    between atoms: C_15  and  N_18
REMARK    6  A    between atoms: N_18  and  C_19
REMARK                            x       y       z     vdW  Elec       q    Type
REMARK                         _______ _______ _______ _____ _____    ______ ____
ROOT
ATOM      1  S   UNL     1       0.025   0.171   2.726  0.00  0.00    +0.061 S 
ATOM      2  O   UNL     1      -1.014   1.137   2.645  0.00  0.00    -0.153 OA
ATOM      3  O   UNL     1       0.076  -0.810   3.753  0.00  0.00    -0.153 OA
ENDROOT
BRANCH   1  10
ATOM      4  C   UNL     1      -0.018   1.503   0.010  0.00  0.00    +0.046 C 
ATOM      5  C   UNL     1       0.002  -0.004   0.002  0.00  0.00    -0.024 A 
ATOM      6  C   UNL     1       0.006  -0.689  -1.199  0.00  0.00    +0.007 A 
ATOM      7  C   UNL     1       0.025  -2.071  -1.207  0.00  0.00    +0.033 A 
ATOM      8  C   UNL     1       0.040  -2.768  -0.013  0.00  0.00    +0.128 A 
ATOM      9  C   UNL     1       0.037  -2.084   1.188  0.00  0.00    +0.061 A 
ATOM     10  C   UNL     1       0.023  -0.702   1.195  0.00  0.00    +0.111 A 
BRANCH   8  11
ATOM     11  N   UNL     1       0.059  -4.248  -0.021  0.00  0.00    +0.056 N 
ATOM     12  O   UNL     1       0.061  -4.847  -1.072  0.00  0.00    -0.126 OA
ATOM     13  O   UNL     1       0.073  -4.859   1.022  0.00  0.00    -0.126 OA
ENDBRANCH   8  11
ENDBRANCH   1  10
BRANCH   1  14
ATOM     14  N   UNL     1       1.449   1.014   2.807  0.00  0.00    -0.178 NA
ATOM     15  C   UNL     1       2.647   0.405   3.400  0.00  0.00    +0.109 C 
ATOM     16  C   UNL     1       3.187   1.338   4.488  0.00  0.00    +0.016 C 
ATOM     17  C   UNL     1       3.418   2.729   3.893  0.00  0.00    -0.013 C 
ATOM     18  C   UNL     1       2.090   3.296   3.386  0.00  0.00    -0.056 C 
ATOM     19  C   UNL     1       1.539   2.383   2.281  0.00  0.00    +0.094 C 
BRANCH  18  20
ATOM     20  N   UNL     1       2.307   4.644   2.845  0.00  0.00    +0.380 N 
ATOM     21  C   UNL     1       2.726   5.545   3.927  0.00  0.00    -0.100 C 
ATOM     22  H   UNL     1       3.026   4.611   2.138  0.00  0.00    -0.086 HD
ATOM     23  H   UNL     1       1.450   4.985   2.437  0.00  0.00    -0.086 HD
ENDBRANCH  18  20
ENDBRANCH   1  14
TORSDOF 4
