REMARK  Name = ZINC52164724
REMARK  5 active torsions:
REMARK  status: ('A' for Active; 'I' for Inactive)
REMARK    1  A    between atoms: C_3  and  C_8
REMARK    2  A    between atoms: C_10  and  C_13
REMARK    3  A    between atoms: C_13  and  N_14
REMARK    4  A    between atoms: N_17  and  C_20
REMARK    5  A    between atoms: C_20  and  C_21
REMARK                            x       y       z     vdW  Elec       q    Type
REMARK                         _______ _______ _______ _____ _____    ______ ____
ROOT
ATOM      1  C   UNL     1       3.660   2.166  -0.022  0.00  0.00    +0.202 A 
ATOM      2  N   UNL     1       4.892   1.627  -0.042  0.00  0.00    -0.190 NA
ATOM      3  C   UNL     1       5.791   2.570  -0.044  0.00  0.00    +0.242 A 
ATOM      4  O   UNL     1       5.165   3.753  -0.026  0.00  0.00    -0.336 OA
ATOM      5  N   UNL     1       3.774   3.471  -0.017  0.00  0.00    -0.056 NA
ENDROOT
BRANCH   1   8
ATOM      6  C   UNL     1      -0.017   1.379   0.010  0.00  0.00    +0.002 A 
ATOM      7  C   UNL     1       1.168   2.088   0.002  0.00  0.00    +0.012 A 
ATOM      8  C   UNL     1       2.384   1.408  -0.013  0.00  0.00    +0.023 A 
ATOM      9  C   UNL     1       2.398   0.015  -0.021  0.00  0.00    +0.027 A 
ATOM     10  C   UNL     1       1.207  -0.685  -0.013  0.00  0.00    +0.019 A 
ATOM     11  C   UNL     1       0.002  -0.004   0.002  0.00  0.00    +0.015 A 
ATOM     12 BR   UNL     1       1.224  -2.576  -0.024  0.00  0.00    -0.050 Br
ENDBRANCH   1   8
BRANCH   3  13
ATOM     13  C   UNL     1       7.284   2.363  -0.064  0.00  0.00    +0.183 C 
BRANCH  13  14
ATOM     14  N   UNL     1       7.752   2.308  -1.456  0.00  0.00    -0.297 NA
ATOM     15  C   UNL     1       7.230   1.116  -2.140  0.00  0.00    +0.066 C 
ATOM     16  C   UNL     1       7.691   1.127  -3.599  0.00  0.00    -0.063 C 
ATOM     17  N   UNL     1       9.159   1.138  -3.650  0.00  0.00    +0.382 N 
ATOM     18  C   UNL     1       9.664   2.346  -2.984  0.00  0.00    -0.063 C 
ATOM     19  C   UNL     1       9.220   2.345  -1.519  0.00  0.00    +0.066 C 
ATOM     20  H   UNL     1       9.517   0.320  -3.180  0.00  0.00    -0.082 HD
BRANCH  17  21
ATOM     21  C   UNL     1       9.601   1.130  -5.051  0.00  0.00    -0.075 C 
BRANCH  21  22
ATOM     22  C   UNL     1      11.125   1.016  -5.104  0.00  0.00    -0.028 C 
ATOM     23  C   UNL     1      11.901   2.188  -5.709  0.00  0.00    +0.002 C 
ATOM     24  C   UNL     1      11.775   0.873  -6.481  0.00  0.00    +0.002 C 
ENDBRANCH  21  22
ENDBRANCH  17  21
ENDBRANCH  13  14
ENDBRANCH   3  13
TORSDOF 5
