REMARK  Name = ZINC36216579
REMARK  9 active torsions:
REMARK  status: ('A' for Active; 'I' for Inactive)
REMARK    1  A    between atoms: C_1  and  C_2
REMARK    2  A    between atoms: C_5  and  C_8
REMARK    3  A    between atoms: C_8  and  N_9
REMARK    4  A    between atoms: C_10  and  C_31
REMARK    5  A    between atoms: C_12  and  C_17
REMARK    6  A    between atoms: C_20  and  N_23
REMARK    7  A    between atoms: C_24  and  C_26
REMARK    8  A    between atoms: N_33  and  C_34
REMARK    9  A    between atoms: C_34  and  C_35
REMARK                            x       y       z     vdW  Elec       q    Type
REMARK                         _______ _______ _______ _____ _____    ______ ____
ROOT
ATOM      1  N   UNL     1       1.432  -4.741  -0.063  0.00  0.00    -0.248 N 
ATOM      2  C   UNL     1       2.256  -5.005  -1.260  0.00  0.00    +0.210 C 
ATOM      3  C   UNL     1       3.432  -5.821  -0.673  0.00  0.00    +0.238 C 
ATOM      4  O   UNL     1       3.430  -5.403   0.706  0.00  0.00    -0.440 OA
ATOM      5  C   UNL     1       2.184  -5.010   1.020  0.00  0.00    +0.405 C 
ATOM      6  O   UNL     1       1.779  -4.910   2.162  0.00  0.00    -0.226 OA
ENDROOT
BRANCH   3   7
ATOM      7  C   UNL     1       4.730  -5.454  -1.346  0.00  0.00    -0.005 A 
ATOM      8  C   UNL     1       5.459  -4.370  -0.892  0.00  0.00    +0.009 A 
ATOM      9  C   UNL     1       6.649  -4.031  -1.506  0.00  0.00    +0.024 A 
ATOM     10  C   UNL     1       7.113  -4.780  -2.580  0.00  0.00    +0.034 A 
ATOM     11  C   UNL     1       6.378  -5.869  -3.032  0.00  0.00    +0.024 A 
ATOM     12  C   UNL     1       5.192  -6.205  -2.411  0.00  0.00    +0.009 A 
BRANCH  10  13
ATOM     13  N   UNL     1       8.317  -4.439  -3.204  0.00  0.00    -0.279 N 
ATOM     14  C   UNL     1       9.123  -5.405  -3.687  0.00  0.00    +0.284 C 
ATOM     15  O   UNL     1       8.765  -6.568  -3.657  0.00  0.00    -0.266 OA
ATOM     16  H   UNL     1       8.572  -3.507  -3.289  0.00  0.00    +0.155 HD
BRANCH  14  17
ATOM     17  C   UNL     1      10.431  -5.056  -4.250  0.00  0.00    +0.189 A 
ATOM     18  C   UNL     1      11.338  -5.931  -4.776  0.00  0.00    +0.054 A 
ATOM     19  C   UNL     1      12.439  -5.168  -5.195  0.00  0.00    +0.042 A 
ATOM     20  C   UNL     1      12.159  -3.877  -4.910  0.00  0.00    +0.196 A 
ATOM     21  O   UNL     1      10.946  -3.813  -4.345  0.00  0.00    -0.458 OA
ENDBRANCH  14  17
ENDBRANCH  10  13
ENDBRANCH   3   7
BRANCH   2  22
ATOM     22  C   UNL     1       2.744  -3.716  -1.870  0.00  0.00    +0.238 C 
ATOM     23  O   UNL     1       2.741  -2.696  -1.214  0.00  0.00    -0.274 OA
ATOM     24  N   UNL     1       3.182  -3.697  -3.144  0.00  0.00    -0.311 N 
ATOM     25  H   UNL     1       3.184  -4.513  -3.668  0.00  0.00    +0.149 HD
BRANCH  24  26
ATOM     26  C   UNL     1       3.656  -2.445  -3.738  0.00  0.00    +0.135 C 
BRANCH  26  27
ATOM     27  C   UNL     1       4.093  -2.697  -5.182  0.00  0.00    +0.135 C 
ATOM     28  C   UNL     1       4.706  -1.411  -5.776  0.00  0.00    +0.035 C 
ATOM     29  C   UNL     1       4.161  -1.428  -7.230  0.00  0.00    +0.031 C 
ATOM     30  C   UNL     1       2.765  -2.065  -7.014  0.00  0.00    +0.160 C 
ATOM     31  O   UNL     1       2.956  -3.046  -5.980  0.00  0.00    -0.375 OA
ENDBRANCH  26  27
ENDBRANCH  24  26
ENDBRANCH   2  22
BRANCH   1  32
ATOM     32  C   UNL     1       0.046  -4.266  -0.057  0.00  0.00    +0.147 C 
BRANCH  32  37
ATOM     33  C   UNL     1      -0.014   1.512   0.006  0.00  0.00    +0.044 C 
ATOM     34  C   UNL     1       0.002   0.005  -0.010  0.00  0.00    -0.050 A 
ATOM     35  C   UNL     1       0.009  -0.673  -1.215  0.00  0.00    +0.003 A 
ATOM     36  C   UNL     1       0.023  -2.056  -1.230  0.00  0.00    +0.005 A 
ATOM     37  C   UNL     1       0.031  -2.760  -0.040  0.00  0.00    -0.030 A 
ATOM     38  C   UNL     1       0.026  -2.082   1.164  0.00  0.00    +0.005 A 
ATOM     39  C   UNL     1       0.015  -0.699   1.179  0.00  0.00    +0.003 A 
ENDBRANCH  32  37
ENDBRANCH   1  32
TORSDOF 8
