REMARK  Name = ZINC08741783
REMARK  8 active torsions:
REMARK  status: ('A' for Active; 'I' for Inactive)
REMARK    1  A    between atoms: C_4  and  C_7
REMARK    2  A    between atoms: C_7  and  O_8
REMARK    3  A    between atoms: O_8  and  C_9
REMARK    4  A    between atoms: C_12  and  C_15
REMARK    5  A    between atoms: C_17  and  C_29
REMARK    6  A    between atoms: C_19  and  C_24
REMARK    7  A    between atoms: C_19  and  O_28
REMARK    8  A    between atoms: C_29  and  C_31
REMARK                            x       y       z     vdW  Elec       q    Type
REMARK                         _______ _______ _______ _____ _____    ______ ____
ROOT
ATOM      1  C   UNL     1      -2.863   6.580   0.670  0.00  0.00    +0.120 C 
ATOM      2  C   UNL     1      -2.534   5.635  -0.491  0.00  0.00    +0.145 C 
ATOM      3  C   UNL     1      -2.987   6.293  -1.799  0.00  0.00    +0.243 C 
ATOM      4  N   UNL     1      -2.360   7.611  -1.915  0.00  0.00    -0.264 N 
ATOM      5  C   UNL     1      -2.032   8.326  -0.829  0.00  0.00    +0.302 C 
ATOM      6  O   UNL     1      -1.524   9.420  -0.981  0.00  0.00    -0.253 OA
ATOM      7  N   UNL     1      -2.243   7.882   0.419  0.00  0.00    -0.292 N 
ATOM      8  H   UNL     1      -2.178   7.975  -2.796  0.00  0.00    +0.153 HD
ATOM      9  H   UNL     1      -1.979   8.435   1.171  0.00  0.00    +0.151 HD
ENDROOT
BRANCH   1  13
ATOM     10  C   UNL     1      -7.099   7.051   0.974  0.00  0.00    +0.121 A 
ATOM     11  C   UNL     1      -6.480   5.948   1.544  0.00  0.00    +0.046 A 
ATOM     12  C   UNL     1      -5.110   5.798   1.444  0.00  0.00    +0.009 A 
ATOM     13  C   UNL     1      -4.357   6.746   0.777  0.00  0.00    -0.026 A 
ATOM     14  C   UNL     1      -4.971   7.849   0.213  0.00  0.00    +0.009 A 
ATOM     15  C   UNL     1      -6.341   8.000   0.304  0.00  0.00    +0.046 A 
BRANCH  10  16
ATOM     16  O   UNL     1      -8.447   7.201   1.071  0.00  0.00    -0.487 OA
BRANCH  16  17
ATOM     17  C   UNL     1      -9.016   8.360   0.460  0.00  0.00    +0.264 C 
BRANCH  17  21
ATOM     18  C   UNL     1     -13.246   8.350   1.053  0.00  0.00    +0.000 A 
ATOM     19  C   UNL     1     -12.420   8.959   1.979  0.00  0.00    +0.000 A 
ATOM     20  C   UNL     1     -11.051   8.963   1.787  0.00  0.00    +0.007 A 
ATOM     21  C   UNL     1     -10.508   8.356   0.669  0.00  0.00    -0.010 A 
ATOM     22  C   UNL     1     -11.335   7.752  -0.259  0.00  0.00    +0.007 A 
ATOM     23  C   UNL     1     -12.704   7.745  -0.065  0.00  0.00    +0.000 A 
ENDBRANCH  17  21
ENDBRANCH  16  17
ENDBRANCH  10  16
ENDBRANCH   1  13
BRANCH   3  24
ATOM     24  C   UNL     1      -2.566   5.421  -2.983  0.00  0.00    +0.436 C 
ATOM     25  F   UNL     1      -3.160   4.159  -2.867  0.00  0.00    -0.166 F 
ATOM     26  F   UNL     1      -2.980   6.022  -4.176  0.00  0.00    -0.166 F 
ATOM     27  F   UNL     1      -1.174   5.282  -2.989  0.00  0.00    -0.166 F 
ENDBRANCH   3  24
BRANCH   3  28
ATOM     28  O   UNL     1      -4.408   6.440  -1.793  0.00  0.00    -0.364 OA
ATOM     29  H   UNL     1      -4.765   6.850  -2.593  0.00  0.00    +0.212 HD
ENDBRANCH   3  28
BRANCH   2  30
ATOM     30  C   UNL     1      -1.049   5.387  -0.537  0.00  0.00    +0.179 C 
ATOM     31  O   UNL     1      -0.282   6.205  -0.070  0.00  0.00    -0.291 OA
BRANCH  30  32
ATOM     32  C   UNL     1      -0.548   4.204  -1.124  0.00  0.00    +0.055 A 
ATOM     33  C   UNL     1       0.771   3.787  -1.267  0.00  0.00    +0.019 A 
ATOM     34  C   UNL     1       0.979   2.580  -1.883  0.00  0.00    +0.008 A 
ATOM     35  C   UNL     1      -0.092   1.862  -2.317  0.00  0.00    +0.046 A 
ATOM     36  S   UNL     1      -1.442   2.859  -1.881  0.00  0.00    -0.094 S 
ENDBRANCH  30  32
ENDBRANCH   2  30
TORSDOF 8
