REMARK  Name = ZINC21441438
REMARK  9 active torsions:
REMARK  status: ('A' for Active; 'I' for Inactive)
REMARK    1  A    between atoms: C_1  and  C_2
REMARK    2  A    between atoms: C_4  and  C_22
REMARK    3  A    between atoms: C_6  and  C_19
REMARK    4  A    between atoms: N_9  and  C_11
REMARK    5  A    between atoms: C_22  and  O_24
REMARK    6  A    between atoms: O_24  and  C_25
REMARK    7  A    between atoms: C_25  and  C_26
REMARK    8  A    between atoms: N_28  and  C_29
REMARK    9  A    between atoms: C_35  and  C_37
REMARK                            x       y       z     vdW  Elec       q    Type
REMARK                         _______ _______ _______ _____ _____    ______ ____
ROOT
ATOM      1  C   UNL     1      -1.325   2.054  -0.068  0.00  0.00    +0.068 C 
ATOM      2  C   UNL     1      -0.077   1.209  -0.064  0.00  0.00    +0.070 A 
ATOM      3  C   UNL     1       1.229   1.672   0.202  0.00  0.00    +0.055 A 
ATOM      4  C   UNL     1       1.774   2.935   0.526  0.00  0.00    +0.073 A 
ATOM      5  C   UNL     1       3.151   3.016   0.725  0.00  0.00    +0.039 A 
ATOM      6  C   UNL     1       3.925   1.872   0.601  0.00  0.00    +0.048 A 
ATOM      7  N   UNL     1       3.393   0.708   0.299  0.00  0.00    -0.232 NA
ATOM      8  C   UNL     1       2.092   0.563   0.097  0.00  0.00    +0.160 A 
ATOM      9  N   UNL     1       1.302  -0.512  -0.221  0.00  0.00    -0.241 N 
ATOM     10  N   UNL     1      -0.023  -0.068  -0.310  0.00  0.00    -0.174 NA
ENDROOT
BRANCH   9  11
ATOM     11  C   UNL     1       1.764  -1.885  -0.433  0.00  0.00    +0.132 C 
ATOM     12  C   UNL     1       1.426  -2.323  -1.868  0.00  0.00    +0.051 C 
ATOM     13  C   UNL     1       1.636  -3.861  -1.968  0.00  0.00    +0.168 C 
ATOM     14  S   UNL     1       0.935  -4.402  -0.352  0.00  0.00    -0.029 S 
ATOM     15  O   UNL     1      -0.439  -4.721  -0.528  0.00  0.00    -0.174 OA
ATOM     16  O   UNL     1       1.806  -5.361   0.232  0.00  0.00    -0.174 OA
ATOM     17  C   UNL     1       1.067  -2.824   0.581  0.00  0.00    +0.192 C 
ENDBRANCH   9  11
BRANCH   6  18
ATOM     18  C   UNL     1       5.414   1.965   0.818  0.00  0.00    +0.038 C 
ATOM     19  C   UNL     1       6.046   3.358   0.788  0.00  0.00    +0.010 C 
ATOM     20  C   UNL     1       6.276   2.388  -0.374  0.00  0.00    +0.010 C 
ENDBRANCH   6  18
BRANCH   4  21
ATOM     21  C   UNL     1       0.914   4.129   0.647  0.00  0.00    +0.340 C 
ATOM     22  O   UNL     1      -0.192   4.034   1.142  0.00  0.00    -0.245 OA
BRANCH  21  23
ATOM     23  O   UNL     1       1.355   5.325   0.210  0.00  0.00    -0.452 OA
BRANCH  23  24
ATOM     24  C   UNL     1       0.456   6.455   0.361  0.00  0.00    +0.328 C 
BRANCH  24  25
ATOM     25  C   UNL     1       1.115   7.697  -0.180  0.00  0.00    +0.251 C 
ATOM     26  O   UNL     1       2.232   7.636  -0.647  0.00  0.00    -0.272 OA
ATOM     27  N   UNL     1       0.462   8.876  -0.144  0.00  0.00    -0.309 N 
ATOM     28  H   UNL     1      -0.551   8.931   0.280  0.00  0.00    +0.149 HD
BRANCH  27  29
ATOM     29  C   UNL     1       1.103  10.084  -0.670  0.00  0.00    +0.076 C 
ATOM     30  C   UNL     1       1.985  10.707   0.413  0.00  0.00    +0.022 C 
ATOM     31  C   UNL     1       1.124  11.072   1.624  0.00  0.00    +0.002 C 
ATOM     32  C   UNL     1       0.050  12.076   1.202  0.00  0.00    +0.000 C 
ATOM     33  C   UNL     1      -0.832  11.454   0.118  0.00  0.00    +0.005 C 
ATOM     34  C   UNL     1       0.029  11.088  -1.093  0.00  0.00    +0.006 C 
ATOM     35  C   UNL     1      -0.854  10.466  -2.176  0.00  0.00    +0.009 C 
ENDBRANCH  27  29
ENDBRANCH  24  25
ENDBRANCH  23  24
ENDBRANCH  21  23
ENDBRANCH   4  21
TORSDOF 7
