REMARK  Name = ZINC36206839
REMARK  18 active torsions:
REMARK  status: ('A' for Active; 'I' for Inactive)
REMARK    1  A    between atoms: C_1  and  C_2
REMARK    2  A    between atoms: C_8  and  C_19
REMARK    3  A    between atoms: C_12  and  C_13
REMARK    4  A    between atoms: C_13  and  O_15
REMARK    5  A    between atoms: O_15  and  C_16
REMARK    6  A    between atoms: C_16  and  C_17
REMARK    7  A    between atoms: C_16  and  C_18
REMARK    8  A    between atoms: C_19  and  N_20
REMARK    9  A    between atoms: N_20  and  C_21
REMARK   10  A    between atoms: N_20  and  C_34
REMARK   11  A    between atoms: C_21  and  C_22
REMARK   12  A    between atoms: C_22  and  C_24
REMARK   13  A    between atoms: C_22  and  O_33
REMARK   14  A    between atoms: C_24  and  O_25
REMARK   15  A    between atoms: O_25  and  C_26
REMARK   16  A    between atoms: C_26  and  C_27
REMARK   17  A    between atoms: C_34  and  C_35
REMARK   18  A    between atoms: C_34  and  C_36
REMARK                            x       y       z     vdW  Elec       q    Type
REMARK                         _______ _______ _______ _____ _____    ______ ____
ROOT
ATOM      1  C   UNL     1      -0.371  -3.454  -4.684  0.00  0.00    -0.003 C 
ENDROOT
BRANCH   1   9
ATOM      2  C   UNL     1      -4.075   0.887  -1.262  0.00  0.00    +0.046 C 
ATOM      3  C   UNL     1      -3.568  -0.519  -1.065  0.00  0.00    -0.015 A 
ATOM      4  C   UNL     1      -2.783  -1.124  -2.048  0.00  0.00    +0.076 A 
ATOM      5  C   UNL     1      -2.329  -0.581  -3.349  0.00  0.00    +0.260 A 
ATOM      6  O   UNL     1      -2.635   0.545  -3.696  0.00  0.00    -0.267 OA
ATOM      7  N   UNL     1      -1.569  -1.366  -4.137  0.00  0.00    -0.312 N 
ATOM      8  H   UNL     1      -1.263  -1.026  -4.993  0.00  0.00    +0.170 HD
ATOM      9  C   UNL     1      -1.223  -2.621  -3.760  0.00  0.00    +0.094 A 
ATOM     10  N   UNL     1      -1.605  -3.130  -2.621  0.00  0.00    -0.229 NA
ATOM     11  C   UNL     1      -2.356  -2.443  -1.770  0.00  0.00    +0.116 A 
ATOM     12  S   UNL     1      -3.060  -2.771  -0.173  0.00  0.00    -0.062 S 
ATOM     13  C   UNL     1      -3.870  -1.201   0.079  0.00  0.00    +0.102 A 
BRANCH  13  14
ATOM     14  C   UNL     1      -4.664  -0.755   1.226  0.00  0.00    +0.346 C 
ATOM     15  O   UNL     1      -5.152   0.359   1.232  0.00  0.00    -0.244 OA
BRANCH  14  16
ATOM     16  O   UNL     1      -4.855  -1.581   2.275  0.00  0.00    -0.458 OA
BRANCH  16  17
ATOM     17  C   UNL     1      -5.640  -1.081   3.360  0.00  0.00    +0.171 C 
ATOM     18  C   UNL     1      -7.113  -1.421   3.122  0.00  0.00    +0.052 C 
ATOM     19  C   UNL     1      -5.172  -1.724   4.667  0.00  0.00    +0.052 C 
ENDBRANCH  16  17
ENDBRANCH  14  16
ENDBRANCH  13  14
ENDBRANCH   1   9
BRANCH   1  20
ATOM     20  N   UNL     1       0.026  -4.692  -4.001  0.00  0.00    +0.388 N 
ATOM     21  H   UNL     1      -0.728  -5.005  -3.407  0.00  0.00    -0.081 HD
BRANCH  20  22
ATOM     22  C   UNL     1       1.220  -4.440  -3.184  0.00  0.00    -0.074 C 
ATOM     23  C   UNL     1       2.358  -3.952  -4.082  0.00  0.00    -0.014 C 
ATOM     24  C   UNL     1       0.905  -3.373  -2.134  0.00  0.00    -0.014 C 
ENDBRANCH  20  22
BRANCH  20  25
ATOM     25  C   UNL     1       0.324  -5.728  -4.999  0.00  0.00    -0.044 C 
BRANCH  25  26
ATOM     26  C   UNL     1       0.595  -7.056  -4.290  0.00  0.00    +0.124 C 
BRANCH  26  27
ATOM     27  O   UNL     1      -0.574  -7.463  -3.577  0.00  0.00    -0.391 OA
ATOM     28  H   UNL     1      -1.352  -7.592  -4.138  0.00  0.00    +0.210 HD
ENDBRANCH  26  27
BRANCH  26  29
ATOM     29  C   UNL     1       0.958  -8.122  -5.326  0.00  0.00    +0.189 C 
BRANCH  29  30
ATOM     30  O   UNL     1       1.324  -9.331  -4.658  0.00  0.00    -0.373 OA
BRANCH  30  31
ATOM     31  C   UNL     1       1.682 -10.397  -5.539  0.00  0.00    +0.195 C 
BRANCH  31  32
ATOM     32  C   UNL     1       2.048 -11.616  -4.731  0.00  0.00    -0.022 A 
ATOM     33  C   UNL     1       3.356 -11.811  -4.328  0.00  0.00    +0.006 A 
ATOM     34  C   UNL     1       3.691 -12.928  -3.587  0.00  0.00    +0.000 A 
ATOM     35  C   UNL     1       2.719 -13.851  -3.249  0.00  0.00    +0.000 A 
ATOM     36  C   UNL     1       1.411 -13.655  -3.651  0.00  0.00    +0.000 A 
ATOM     37  C   UNL     1       1.075 -12.535  -4.388  0.00  0.00    +0.006 A 
ENDBRANCH  31  32
ENDBRANCH  30  31
ENDBRANCH  29  30
ENDBRANCH  26  29
ENDBRANCH  25  26
ENDBRANCH  20  25
ENDBRANCH   1  20
TORSDOF 13
