REMARK  Name = ZINC08926299
REMARK  6 active torsions:
REMARK  status: ('A' for Active; 'I' for Inactive)
REMARK    1  A    between atoms: C_1  and  C_2
REMARK    2  A    between atoms: C_2  and  N_21
REMARK    3  A    between atoms: N_3  and  N_4
REMARK    4  A    between atoms: N_13  and  C_14
REMARK    5  A    between atoms: C_14  and  C_15
REMARK    6  A    between atoms: N_22  and  C_23
REMARK                            x       y       z     vdW  Elec       q    Type
REMARK                         _______ _______ _______ _____ _____    ______ ____
ROOT
ATOM      1  N   UNL     1       4.372   7.937  -1.892  0.00  0.00    -0.205 N 
ATOM      2  C   UNL     1       5.510   7.263  -2.285  0.00  0.00    +0.217 A 
ATOM      3  N   UNL     1       5.637   5.960  -2.328  0.00  0.00    -0.213 NA
ATOM      4  C   UNL     1       6.883   5.636  -2.759  0.00  0.00    +0.091 A 
ATOM      5  C   UNL     1       7.536   4.421  -2.983  0.00  0.00    +0.030 A 
ATOM      6  C   UNL     1       8.837   4.417  -3.433  0.00  0.00    +0.002 A 
ATOM      7  C   UNL     1       9.506   5.611  -3.665  0.00  0.00    +0.002 A 
ATOM      8  C   UNL     1       8.876   6.818  -3.448  0.00  0.00    +0.028 A 
ATOM      9  C   UNL     1       7.565   6.842  -2.995  0.00  0.00    +0.070 A 
ATOM     10  N   UNL     1       6.672   7.855  -2.692  0.00  0.00    -0.306 N 
ATOM     11  H   UNL     1       4.360   8.907  -1.888  0.00  0.00    +0.177 HD
ENDROOT
BRANCH   1  14
ATOM     12  C   UNL     1       2.140   9.363  -1.121  0.00  0.00    +0.091 C 
ATOM     13  C   UNL     1       2.159   7.857  -1.127  0.00  0.00    +0.166 C 
ATOM     14  N   UNL     1       3.235   7.220  -1.498  0.00  0.00    -0.163 NA
BRANCH  13  15
ATOM     15  N   UNL     1       1.066   7.168  -0.748  0.00  0.00    -0.132 NA
ATOM     16  N   UNL     1       1.083   5.878  -0.753  0.00  0.00    -0.146 NA
BRANCH  16  17
ATOM     17  C   UNL     1      -0.024   5.181  -0.370  0.00  0.00    +0.109 A 
ATOM     18  C   UNL     1      -1.181   5.860   0.029  0.00  0.00    +0.031 A 
ATOM     19  C   UNL     1      -2.301   5.154   0.417  0.00  0.00    +0.004 A 
ATOM     20  C   UNL     1      -2.296   3.771   0.416  0.00  0.00    +0.030 A 
ATOM     21  C   UNL     1      -1.155   3.075   0.023  0.00  0.00    +0.086 A 
ATOM     22  C   UNL     1      -0.011   3.778  -0.373  0.00  0.00    +0.081 A 
ATOM     23  N   UNL     1       1.126   3.085  -0.766  0.00  0.00    -0.336 N 
ATOM     24  C   UNL     1       1.283   1.843  -0.000  0.00  0.00    +0.149 C 
ATOM     25  C   UNL     1      -0.013   1.076   0.008  0.00  0.00    +0.103 C 
ATOM     26  N   UNL     1      -1.141   1.703   0.017  0.00  0.00    -0.256 NA
ATOM     27  H   UNL     1       1.113   2.900  -1.757  0.00  0.00    +0.147 HD
ENDBRANCH  16  17
ENDBRANCH  13  15
ENDBRANCH   1  14
BRANCH  10  28
ATOM     28  C   UNL     1       6.926   9.295  -2.789  0.00  0.00    +0.160 C 
BRANCH  28  29
ATOM     29  C   UNL     1       7.481   9.796  -1.481  0.00  0.00    -0.028 A 
ATOM     30  C   UNL     1       6.625  10.253  -0.496  0.00  0.00    +0.005 A 
ATOM     31  C   UNL     1       7.133  10.708   0.706  0.00  0.00    +0.000 A 
ATOM     32  C   UNL     1       8.499  10.716   0.920  0.00  0.00    +0.000 A 
ATOM     33  C   UNL     1       9.356  10.264  -0.067  0.00  0.00    +0.000 A 
ATOM     34  C   UNL     1       8.847   9.804  -1.267  0.00  0.00    +0.005 A 
ENDBRANCH  28  29
ENDBRANCH  10  28
TORSDOF 5
