REMARK  Name = ZINC08868869
REMARK  10 active torsions:
REMARK  status: ('A' for Active; 'I' for Inactive)
REMARK    1  A    between atoms: C_1  and  C_2
REMARK    2  A    between atoms: C_2  and  C_3
REMARK    3  A    between atoms: C_3  and  N_62
REMARK    4  A    between atoms: C_9  and  N_15
REMARK    5  A    between atoms: C_10  and  C_11
REMARK    6  A    between atoms: C_11  and  O_13
REMARK    7  A    between atoms: O_13  and  C_14
REMARK    8  A    between atoms: C_16  and  C_18
REMARK    9  A    between atoms: N_23  and  S_24
REMARK   10  A    between atoms: S_24  and  C_27
REMARK                            x       y       z     vdW  Elec       q    Type
REMARK                         _______ _______ _______ _____ _____    ______ ____
ROOT
ATOM      1  N   UNL     1       0.029   1.089   1.871  0.00  0.00    -0.278 N 
ATOM      2  C   UNL     1       0.050   0.145   0.909  0.00  0.00    +0.236 C 
ATOM      3  O   UNL     1      -0.965  -0.125   0.303  0.00  0.00    -0.274 OA
ATOM      4  H   UNL     1       0.841   1.306   2.355  0.00  0.00    +0.155 HD
ENDROOT
BRANCH   1  10
ATOM      5  C   UNL     1      -4.464   4.963   3.711  0.00  0.00    -0.074 C 
ATOM      6  C   UNL     1      -3.134   4.376   4.194  0.00  0.00    +0.018 C 
ATOM      7  C   UNL     1      -2.714   3.285   3.217  0.00  0.00    -0.025 A 
ATOM      8  C   UNL     1      -3.619   2.748   2.368  0.00  0.00    -0.021 A 
ATOM      9  S   UNL     1      -2.709   1.555   1.432  0.00  0.00    -0.079 S 
ATOM     10  C   UNL     1      -1.151   1.754   2.163  0.00  0.00    +0.086 A 
ATOM     11  C   UNL     1      -1.370   2.748   3.110  0.00  0.00    +0.091 A 
ATOM     12  C   UNL     1      -5.067   3.113   2.267  0.00  0.00    -0.035 C 
ATOM     13  N   UNL     1      -5.431   3.869   3.490  0.00  0.00    +0.383 N 
ATOM     14  H   UNL     1      -5.405   3.232   4.296  0.00  0.00    -0.081 HD
BRANCH  11  15
ATOM     15  C   UNL     1      -0.287   3.233   3.968  0.00  0.00    +0.342 C 
ATOM     16  O   UNL     1       0.400   4.170   3.608  0.00  0.00    -0.245 OA
BRANCH  15  17
ATOM     17  O   UNL     1      -0.051   2.642   5.157  0.00  0.00    -0.464 OA
ATOM     18  C   UNL     1       1.039   3.175   5.954  0.00  0.00    +0.280 C 
ENDBRANCH  15  17
ENDBRANCH  11  15
BRANCH  13  19
ATOM     19  C   UNL     1      -6.797   4.420   3.357  0.00  0.00    -0.079 C 
BRANCH  19  21
ATOM     20  C   UNL     1      -9.220   3.820   3.239  0.00  0.00    +0.002 C 
ATOM     21  C   UNL     1      -7.799   3.264   3.356  0.00  0.00    -0.022 C 
ENDBRANCH  19  21
ENDBRANCH  13  19
ENDBRANCH   1  10
BRANCH   2  22
ATOM     22  C   UNL     1       1.335  -0.574   0.586  0.00  0.00    +0.166 C 
ATOM     23  C   UNL     1       1.983   0.026  -0.686  0.00  0.00    +0.031 C 
ATOM     24  C   UNL     1       2.844  -1.164  -1.187  0.00  0.00    +0.019 C 
ATOM     25  C   UNL     1       1.979  -2.391  -0.831  0.00  0.00    +0.110 C 
ATOM     26  N   UNL     1       1.062  -1.982   0.246  0.00  0.00    -0.165 NA
BRANCH  26  27
ATOM     27  S   UNL     1      -0.084  -2.943   0.957  0.00  0.00    +0.062 S 
ATOM     28  O   UNL     1      -0.978  -2.073   1.637  0.00  0.00    -0.153 OA
ATOM     29  O   UNL     1      -0.521  -3.858  -0.038  0.00  0.00    -0.153 OA
BRANCH  27  30
ATOM     30  C   UNL     1       0.730  -3.896   2.196  0.00  0.00    +0.106 A 
ATOM     31  C   UNL     1       1.169  -5.175   1.906  0.00  0.00    +0.031 A 
ATOM     32  C   UNL     1       1.812  -5.921   2.875  0.00  0.00    +0.040 A 
ATOM     33  C   UNL     1       2.007  -5.392   4.140  0.00  0.00    +0.124 A 
ATOM     34  C   UNL     1       1.563  -4.113   4.430  0.00  0.00    +0.040 A 
ATOM     35  C   UNL     1       0.925  -3.367   3.458  0.00  0.00    +0.031 A 
ATOM     36  F   UNL     1       2.632  -6.123   5.089  0.00  0.00    -0.205 F 
ENDBRANCH  27  30
ENDBRANCH  26  27
ENDBRANCH   2  22
TORSDOF 8
