REMARK  Name = ZINC36561492
REMARK  14 active torsions:
REMARK  status: ('A' for Active; 'I' for Inactive)
REMARK    1  A    between atoms: C_1  and  C_2
REMARK    2  A    between atoms: C_2  and  C_3
REMARK    3  A    between atoms: C_3  and  N_4
REMARK    4  A    between atoms: N_4  and  C_5
REMARK    5  A    between atoms: C_5  and  C_7
REMARK    6  A    between atoms: C_5  and  C_14
REMARK    7  A    between atoms: C_12  and  O_13
REMARK    8  A    between atoms: N_16  and  C_17
REMARK    9  A    between atoms: C_17  and  S_18
REMARK   10  A    between atoms: S_18  and  C_21
REMARK   11  A    between atoms: C_24  and  C_27
REMARK   12  A    between atoms: C_28  and  C_30
REMARK   13  A    between atoms: C_30  and  C_31
REMARK   14  A    between atoms: C_36  and  C_37
REMARK                            x       y       z     vdW  Elec       q    Type
REMARK                         _______ _______ _______ _____ _____    ______ ____
ROOT
ATOM      1  C   UNL     1       1.789  -2.462   0.553  0.00  0.00    +0.196 C 
ENDROOT
BRANCH   1   2
ATOM      2  C   UNL     1       2.723  -1.768   1.511  0.00  0.00    +0.023 A 
ATOM      3  C   UNL     1       3.392  -0.625   1.119  0.00  0.00    +0.009 A 
ATOM      4  C   UNL     1       4.250   0.011   1.997  0.00  0.00    +0.001 A 
ATOM      5  C   UNL     1       4.439  -0.494   3.271  0.00  0.00    +0.004 A 
ATOM      6  C   UNL     1       3.772  -1.637   3.668  0.00  0.00    +0.046 A 
ATOM      7  C   UNL     1       2.907  -2.274   2.790  0.00  0.00    +0.122 A 
BRANCH   7   8
ATOM      8  O   UNL     1       2.245  -3.395   3.180  0.00  0.00    -0.506 OA
ATOM      9  H   UNL     1       2.754  -4.210   3.071  0.00  0.00    +0.292 HD
ENDBRANCH   7   8
ENDBRANCH   1   2
BRANCH   1  10
ATOM     10  C   UNL     1       2.083  -2.007  -0.853  0.00  0.00    +0.239 C 
ATOM     11  O   UNL     1       1.441  -1.104  -1.345  0.00  0.00    -0.273 OA
ATOM     12  N   UNL     1       3.061  -2.604  -1.563  0.00  0.00    -0.294 N 
ATOM     13  H   UNL     1       3.525  -3.373  -1.199  0.00  0.00    +0.150 HD
BRANCH  12  14
ATOM     14  C   UNL     1       3.423  -2.090  -2.887  0.00  0.00    +0.278 C 
BRANCH  14  15
ATOM     15  S   UNL     1       4.826  -0.951  -2.730  0.00  0.00    +0.013 S 
ATOM     16  O   UNL     1       5.230  -0.492  -4.013  0.00  0.00    -0.168 OA
ATOM     17  O   UNL     1       4.595  -0.031  -1.672  0.00  0.00    -0.168 OA
BRANCH  15  18
ATOM     18  C   UNL     1       6.163  -1.954  -2.170  0.00  0.00    +0.090 A 
ATOM     19  C   UNL     1       6.375  -2.128  -0.815  0.00  0.00    +0.027 A 
ATOM     20  C   UNL     1       7.424  -2.915  -0.376  0.00  0.00    +0.005 A 
ATOM     21  C   UNL     1       8.259  -3.527  -1.291  0.00  0.00    -0.050 A 
ATOM     22  C   UNL     1       8.046  -3.354  -2.646  0.00  0.00    +0.005 A 
ATOM     23  C   UNL     1       6.995  -2.570  -3.085  0.00  0.00    +0.027 A 
ATOM     24  C   UNL     1       9.403  -4.384  -0.812  0.00  0.00    +0.044 C 
ENDBRANCH  15  18
ENDBRANCH  14  15
ENDBRANCH  12  14
ENDBRANCH   1  10
BRANCH   1  25
ATOM     25  N   UNL     1       0.404  -2.129   0.894  0.00  0.00    -0.286 N 
ATOM     26  C   UNL     1       0.026  -0.839   0.996  0.00  0.00    +0.221 C 
ATOM     27  O   UNL     1       0.834   0.046   0.805  0.00  0.00    -0.275 OA
BRANCH  25  28
ATOM     28  C   UNL     1      -0.571  -3.197   1.125  0.00  0.00    +0.108 C 
BRANCH  28  30
ATOM     29  C   UNL     1      -1.726  -4.559   2.873  0.00  0.00    +0.005 C 
ATOM     30  C   UNL     1      -0.638  -3.513   2.620  0.00  0.00    +0.016 C 
ENDBRANCH  28  30
ENDBRANCH  25  28
BRANCH  26  31
ATOM     31  C   UNL     1      -1.399  -0.496   1.347  0.00  0.00    +0.131 C 
BRANCH  31  32
ATOM     32  C   UNL     1      -1.557   1.002   1.397  0.00  0.00    -0.036 A 
ATOM     33  C   UNL     1      -1.442   1.669   2.602  0.00  0.00    +0.004 A 
ATOM     34  C   UNL     1      -1.587   3.043   2.648  0.00  0.00    +0.000 A 
ATOM     35  C   UNL     1      -1.848   3.750   1.489  0.00  0.00    +0.000 A 
ATOM     36  C   UNL     1      -1.962   3.082   0.284  0.00  0.00    +0.003 A 
ATOM     37  C   UNL     1      -1.812   1.709   0.237  0.00  0.00    -0.047 A 
ATOM     38  C   UNL     1      -1.932   0.982  -1.077  0.00  0.00    +0.044 C 
ENDBRANCH  31  32
ENDBRANCH  26  31
ENDBRANCH   1  25
TORSDOF 11
