REMARK  Name = ZINC59501791
REMARK  10 active torsions:
REMARK  status: ('A' for Active; 'I' for Inactive)
REMARK    1  A    between atoms: C_1  and  O_2
REMARK    2  A    between atoms: O_2  and  C_3
REMARK    3  A    between atoms: C_6  and  O_9
REMARK    4  A    between atoms: O_9  and  C_10
REMARK    5  A    between atoms: C_10  and  C_11
REMARK    6  A    between atoms: C_11  and  N_12
REMARK    7  A    between atoms: C_13  and  C_25
REMARK    8  A    between atoms: N_14  and  N_15
REMARK    9  A    between atoms: N_15  and  C_16
REMARK   10  A    between atoms: C_19  and  N_22
REMARK                            x       y       z     vdW  Elec       q    Type
REMARK                         _______ _______ _______ _____ _____    ______ ____
ROOT
ATOM      1  N   UNL     1      -6.882  -4.327  -1.276  0.00  0.00    -0.326 N 
ATOM      2  C   UNL     1      -8.221  -4.375  -1.373  0.00  0.00    +0.117 C 
ATOM      3  N   UNL     1      -8.972  -4.746  -0.291  0.00  0.00    -0.293 N 
ATOM      4  H   UNL     1      -6.451  -4.479  -0.420  0.00  0.00    +0.148 HD
ATOM      5  H   UNL     1      -9.935  -4.825  -0.373  0.00  0.00    +0.186 HD
ENDROOT
BRANCH   2   6
ATOM      6  C   UNL     1      -8.877  -4.032  -2.634  0.00  0.00    +0.014 A 
ATOM      7  C   UNL     1      -8.546  -2.838  -3.302  0.00  0.00    +0.011 A 
ATOM      8  C   UNL     1      -9.166  -2.526  -4.484  0.00  0.00    +0.001 A 
ATOM      9  C   UNL     1     -10.116  -3.382  -5.022  0.00  0.00    +0.000 A 
ATOM     10  C   UNL     1     -10.450  -4.560  -4.371  0.00  0.00    +0.001 A 
ATOM     11  C   UNL     1      -9.838  -4.895  -3.191  0.00  0.00    +0.011 A 
ENDBRANCH   2   6
BRANCH   3  12
ATOM     12  N   UNL     1      -8.399  -4.990   0.839  0.00  0.00    -0.259 N 
ATOM     13  H   UNL     1      -7.442  -4.864   0.934  0.00  0.00    +0.172 HD
BRANCH  12  14
ATOM     14  C   UNL     1      -9.142  -5.429   1.904  0.00  0.00    +0.046 A 
ATOM     15  C   UNL     1     -10.523  -5.618   1.768  0.00  0.00    +0.027 A 
ATOM     16  C   UNL     1     -11.263  -6.059   2.843  0.00  0.00    +0.034 A 
ATOM     17  C   UNL     1     -10.644  -6.315   4.057  0.00  0.00    +0.126 A 
ATOM     18  C   UNL     1      -9.278  -6.130   4.199  0.00  0.00    +0.034 A 
ATOM     19  C   UNL     1      -8.523  -5.695   3.132  0.00  0.00    +0.027 A 
BRANCH  17  20
ATOM     20  N   UNL     1     -11.447  -6.787   5.207  0.00  0.00    +0.056 N 
ATOM     21  O   UNL     1     -12.745  -6.964   5.076  0.00  0.00    -0.126 OA
ATOM     22  O   UNL     1     -10.863  -7.031   6.362  0.00  0.00    -0.126 OA
ENDBRANCH  17  20
ENDBRANCH  12  14
ENDBRANCH   3  12
BRANCH   1  23
ATOM     23  C   UNL     1      -6.072  -4.047  -2.464  0.00  0.00    +0.144 C 
BRANCH  23  24
ATOM     24  C   UNL     1      -4.589  -4.189  -2.116  0.00  0.00    +0.247 C 
BRANCH  24  25
ATOM     25  O   UNL     1      -4.307  -5.549  -1.778  0.00  0.00    -0.490 OA
BRANCH  25  29
ATOM     26  C   UNL     1      -0.412  -6.459  -0.756  0.00  0.00    +0.120 A 
ATOM     27  C   UNL     1      -1.379  -7.454  -0.761  0.00  0.00    +0.049 A 
ATOM     28  C   UNL     1      -2.682  -7.149  -1.103  0.00  0.00    +0.049 A 
ATOM     29  C   UNL     1      -3.024  -5.849  -1.441  0.00  0.00    +0.121 A 
ATOM     30  C   UNL     1      -2.058  -4.853  -1.435  0.00  0.00    +0.049 A 
ATOM     31  C   UNL     1      -0.756  -5.157  -1.089  0.00  0.00    +0.049 A 
BRANCH  26  33
ATOM     32  C   UNL     1       1.153  -8.119  -0.088  0.00  0.00    +0.277 C 
ATOM     33  O   UNL     1       0.871  -6.758  -0.420  0.00  0.00    -0.495 OA
ENDBRANCH  26  33
ENDBRANCH  25  29
ENDBRANCH  24  25
ENDBRANCH  23  24
ENDBRANCH   1  23
TORSDOF 9
