REMARK  Name = ZINC08582533
REMARK  11 active torsions:
REMARK  status: ('A' for Active; 'I' for Inactive)
REMARK    1  A    between atoms: C_1  and  C_2
REMARK    2  A    between atoms: C_9  and  O_33
REMARK    3  A    between atoms: C_10  and  C_12
REMARK    4  A    between atoms: C_12  and  N_64
REMARK    5  A    between atoms: C_13  and  C_14
REMARK    6  A    between atoms: C_13  and  N_64
REMARK    7  A    between atoms: N_18  and  C_19
REMARK    8  A    between atoms: C_19  and  C_20
REMARK    9  A    between atoms: C_23  and  O_26
REMARK   10  A    between atoms: O_26  and  C_27
REMARK   11  A    between atoms: C_28  and  N_64
REMARK                            x       y       z     vdW  Elec       q    Type
REMARK                         _______ _______ _______ _____ _____    ______ ____
ROOT
ATOM      1  N   UNL     1      -1.392   2.230   1.751  0.00  0.00    +0.389 N 
ATOM      2  H   UNL     1      -1.155   1.407   2.317  0.00  0.00    -0.080 HD
ENDROOT
BRANCH   1   3
ATOM      3  C   UNL     1      -0.415   3.303   2.030  0.00  0.00    -0.068 C 
ATOM      4  C   UNL     1       0.960   2.919   1.444  0.00  0.00    -0.015 C 
ATOM      5  C   UNL     1       1.976   3.427   2.496  0.00  0.00    -0.002 C 
ATOM      6  C   UNL     1       1.261   3.125   3.836  0.00  0.00    -0.002 C 
ATOM      7  C   UNL     1      -0.223   3.434   3.551  0.00  0.00    -0.015 C 
ENDBRANCH   1   3
BRANCH   1   8
ATOM      8  C   UNL     1      -1.341   1.860   0.321  0.00  0.00    -0.037 C 
BRANCH   8  18
ATOM      9  C   UNL     1      -4.602   6.410  -3.061  0.00  0.00    +0.046 C 
ATOM     10  C   UNL     1      -3.126   6.155  -2.895  0.00  0.00    -0.024 A 
ATOM     11  C   UNL     1      -2.219   6.957  -3.520  0.00  0.00    +0.005 A 
ATOM     12  C   UNL     1      -0.851   6.738  -3.380  0.00  0.00    +0.001 A 
ATOM     13  C   UNL     1      -0.382   5.715  -2.613  0.00  0.00    +0.010 A 
ATOM     14  C   UNL     1      -1.288   4.869  -1.955  0.00  0.00    +0.001 A 
ATOM     15  C   UNL     1      -2.680   5.090  -2.095  0.00  0.00    +0.078 A 
ATOM     16  N   UNL     1      -3.548   4.286  -1.470  0.00  0.00    -0.213 NA
ATOM     17  C   UNL     1      -3.136   3.287  -0.720  0.00  0.00    +0.214 A 
ATOM     18  C   UNL     1      -1.774   3.018  -0.541  0.00  0.00    -0.002 A 
ATOM     19  C   UNL     1      -0.840   3.800  -1.152  0.00  0.00    +0.017 A 
BRANCH  17  20
ATOM     20  O   UNL     1      -4.053   2.500  -0.106  0.00  0.00    -0.492 OA
ATOM     21  H   UNL     1      -4.380   2.857   0.732  0.00  0.00    +0.294 HD
ENDBRANCH  17  20
ENDBRANCH   8  18
ENDBRANCH   1   8
BRANCH   1  22
ATOM     22  C   UNL     1      -2.754   2.682   2.107  0.00  0.00    +0.001 C 
BRANCH  22  23
ATOM     23  C   UNL     1      -2.842   2.825   3.604  0.00  0.00    +0.135 A 
ATOM     24  N   UNL     1      -2.687   3.928   4.295  0.00  0.00    -0.115 NA
ATOM     25  N   UNL     1      -2.838   3.640   5.542  0.00  0.00    -0.023 NA
ATOM     26  N   UNL     1      -3.084   2.383   5.665  0.00  0.00    -0.044 NA
ATOM     27  N   UNL     1      -3.100   1.846   4.491  0.00  0.00    -0.227 N 
BRANCH  27  28
ATOM     28  C   UNL     1      -3.349   0.436   4.183  0.00  0.00    +0.182 C 
BRANCH  28  29
ATOM     29  C   UNL     1      -2.044  -0.317   4.185  0.00  0.00    -0.026 A 
ATOM     30  C   UNL     1      -1.313  -0.435   3.017  0.00  0.00    +0.009 A 
ATOM     31  C   UNL     1      -0.114  -1.120   3.018  0.00  0.00    +0.046 A 
ATOM     32  C   UNL     1       0.353  -1.699   4.190  0.00  0.00    +0.120 A 
ATOM     33  C   UNL     1      -0.385  -1.584   5.359  0.00  0.00    +0.046 A 
ATOM     34  C   UNL     1      -1.582  -0.893   5.354  0.00  0.00    +0.009 A 
BRANCH  32  35
ATOM     35  O   UNL     1       1.530  -2.378   4.192  0.00  0.00    -0.495 OA
ATOM     36  C   UNL     1       2.236  -2.456   2.952  0.00  0.00    +0.277 C 
ENDBRANCH  32  35
ENDBRANCH  28  29
ENDBRANCH  27  28
ENDBRANCH  22  23
ENDBRANCH   1  22
TORSDOF 9
