REMARK  Name = ZINC66332506
REMARK  6 active torsions:
REMARK  status: ('A' for Active; 'I' for Inactive)
REMARK    1  A    between atoms: C_1  and  C_2
REMARK    2  A    between atoms: C_2  and  C_4
REMARK    3  A    between atoms: C_2  and  N_18
REMARK    4  A    between atoms: C_4  and  C_5
REMARK    5  A    between atoms: C_11  and  C_13
REMARK    6  A    between atoms: C_19  and  C_21
REMARK                            x       y       z     vdW  Elec       q    Type
REMARK                         _______ _______ _______ _____ _____    ______ ____
ROOT
ATOM      1  C   UNL     1       0.981  -0.451   1.350  0.00  0.00    +0.118 C 
ENDROOT
BRANCH   1   2
ATOM      2  C   UNL     1       0.812  -1.949   1.353  0.00  0.00    +0.218 C 
ATOM      3  O   UNL     1       0.214  -2.494   0.449  0.00  0.00    -0.276 OA
ATOM      4  N   UNL     1       1.326  -2.683   2.360  0.00  0.00    -0.298 N 
ATOM      5  C   UNL     1       2.067  -2.152   3.519  0.00  0.00    +0.108 C 
ATOM      6  C   UNL     1       1.889  -3.221   4.626  0.00  0.00    +0.021 C 
ATOM      7  C   UNL     1       1.942  -4.535   3.803  0.00  0.00    +0.024 C 
ATOM      8  C   UNL     1       1.235  -4.145   2.487  0.00  0.00    +0.079 C 
BRANCH   8   9
ATOM      9  C   UNL     1       1.936  -4.815   1.304  0.00  0.00    +0.010 C 
ATOM     10  C   UNL     1       3.437  -4.434   1.277  0.00  0.00    +0.005 C 
ATOM     11  C   UNL     1       4.072  -5.600   0.480  0.00  0.00    +0.000 C 
ATOM     12  C   UNL     1       3.296  -6.848   0.952  0.00  0.00    +0.000 C 
ATOM     13  C   UNL     1       1.938  -6.348   1.476  0.00  0.00    +0.005 C 
ENDBRANCH   8   9
ENDBRANCH   1   2
BRANCH   1  15
ATOM     14  C   UNL     1       0.373   1.663   0.165  0.00  0.00    +0.028 C 
ATOM     15  C   UNL     1       0.310   0.135   0.106  0.00  0.00    +0.079 C 
BRANCH  15  16
ATOM     16  N   UNL     1       1.008  -0.336  -1.093  0.00  0.00    -0.312 N 
ATOM     17  C   UNL     1       0.357  -0.393  -2.272  0.00  0.00    +0.216 C 
ATOM     18  O   UNL     1      -0.805  -0.054  -2.341  0.00  0.00    -0.276 OA
ATOM     19  H   UNL     1       1.937  -0.608  -1.039  0.00  0.00    +0.149 HD
BRANCH  17  20
ATOM     20  C   UNL     1       1.074  -0.878  -3.506  0.00  0.00    +0.075 C 
ATOM     21  C   UNL     1       2.273   0.029  -3.788  0.00  0.00    +0.013 C 
ATOM     22  C   UNL     1       3.002  -0.463  -5.041  0.00  0.00    +0.001 C 
ATOM     23  C   UNL     1       2.044  -0.429  -6.234  0.00  0.00    +0.000 C 
ATOM     24  C   UNL     1       0.845  -1.336  -5.951  0.00  0.00    +0.001 C 
ATOM     25  C   UNL     1       0.117  -0.844  -4.699  0.00  0.00    +0.013 C 
ENDBRANCH  17  20
ENDBRANCH  15  16
ENDBRANCH   1  15
TORSDOF 5
