REMARK  Name = ZINC66650627
REMARK  10 active torsions:
REMARK  status: ('A' for Active; 'I' for Inactive)
REMARK    1  A    between atoms: C_1  and  C_2
REMARK    2  A    between atoms: C_2  and  N_19
REMARK    3  A    between atoms: C_8  and  C_10
REMARK    4  A    between atoms: C_10  and  C_11
REMARK    5  A    between atoms: N_19  and  C_20
REMARK    6  A    between atoms: C_21  and  O_23
REMARK    7  A    between atoms: O_23  and  C_24
REMARK    8  A    between atoms: C_24  and  C_25
REMARK    9  A    between atoms: C_24  and  C_26
REMARK   10  A    between atoms: C_24  and  C_27
REMARK                            x       y       z     vdW  Elec       q    Type
REMARK                         _______ _______ _______ _____ _____    ______ ____
ROOT
ATOM      1  C   UNL     1      -0.042   1.537  -0.106  0.00  0.00    +0.032 C 
ATOM      2  C   UNL     1      -0.004   0.011  -0.005  0.00  0.00    +0.040 C 
ATOM      3  C   UNL     1       0.744  -0.561  -1.212  0.00  0.00    +0.045 C 
ATOM      4  C   UNL     1       0.750  -2.091  -1.125  0.00  0.00    +0.110 C 
ATOM      5  N   UNL     1       1.308  -2.488   0.174  0.00  0.00    -0.301 N 
ATOM      6  C   UNL     1       0.721  -1.924   1.398  0.00  0.00    +0.110 C 
ATOM      7  C   UNL     1       0.715  -0.397   1.283  0.00  0.00    +0.045 C 
ATOM      8  C   UNL     1       2.338  -3.355   0.243  0.00  0.00    +0.221 C 
ATOM      9  O   UNL     1       2.813  -3.814  -0.773  0.00  0.00    -0.275 OA
ENDROOT
BRANCH   2  10
ATOM     10  N   UNL     1      -1.372  -0.511   0.013  0.00  0.00    -0.265 N 
ATOM     11  C   UNL     1      -1.886  -1.261  -1.136  0.00  0.00    +0.136 C 
ATOM     12  C   UNL     1      -2.159  -0.301   1.087  0.00  0.00    +0.404 C 
ATOM     13  O   UNL     1      -1.734   0.321   2.040  0.00  0.00    -0.226 OA
BRANCH  12  14
ATOM     14  O   UNL     1      -3.417  -0.781   1.104  0.00  0.00    -0.445 OA
BRANCH  14  15
ATOM     15  C   UNL     1      -4.195  -0.521   2.274  0.00  0.00    +0.107 C 
ATOM     16  C   UNL     1      -4.329   0.990   2.473  0.00  0.00    +0.055 C 
ATOM     17  C   UNL     1      -5.585  -1.139   2.110  0.00  0.00    +0.055 C 
ATOM     18  C   UNL     1      -3.504  -1.136   3.493  0.00  0.00    +0.055 C 
ENDBRANCH  14  15
ENDBRANCH  12  14
ENDBRANCH   2  10
BRANCH   8  19
ATOM     19  C   UNL     1       2.899  -3.753   1.584  0.00  0.00    +0.153 C 
BRANCH  19  20
ATOM     20  C   UNL     1       4.035  -4.723   1.385  0.00  0.00    +0.069 A 
ATOM     21  C   UNL     1       5.281  -4.584   1.866  0.00  0.00    +0.117 A 
ATOM     22  N   UNL     1       6.019  -5.692   1.460  0.00  0.00    -0.300 N 
ATOM     23  C   UNL     1       7.302  -6.178   1.590  0.00  0.00    +0.100 A 
ATOM     24  C   UNL     1       7.653  -7.335   1.031  0.00  0.00    +0.067 A 
ATOM     25  S   UNL     1       6.131  -7.843   0.248  0.00  0.00    -0.058 S 
ATOM     26  C   UNL     1       5.138  -6.452   0.736  0.00  0.00    +0.178 A 
ATOM     27  N   UNL     1       3.971  -5.877   0.702  0.00  0.00    -0.226 NA
ENDBRANCH  19  20
ENDBRANCH   8  19
TORSDOF 5
