REMARK  Name = ZINC65436249
REMARK  4 active torsions:
REMARK  status: ('A' for Active; 'I' for Inactive)
REMARK    1  A    between atoms: C_1  and  C_2
REMARK    2  A    between atoms: C_2  and  C_3
REMARK    3  A    between atoms: C_2  and  C_4
REMARK    4  A    between atoms: C_6  and  C_15
REMARK                            x       y       z     vdW  Elec       q    Type
REMARK                         _______ _______ _______ _____ _____    ______ ____
ROOT
ATOM      1  C   UNL     1      -1.412  -0.526   0.013  0.00  0.00    +0.154 A 
ATOM      2  N   UNL     1      -1.957  -1.302  -0.923  0.00  0.00    -0.211 NA
ATOM      3  C   UNL     1      -3.197  -1.573  -0.608  0.00  0.00    +0.175 A 
ATOM      4  N   UNL     1      -3.474  -0.962   0.561  0.00  0.00    -0.195 N 
ATOM      5  N   UNL     1      -2.299  -0.294   0.944  0.00  0.00    -0.148 NA
ATOM      6  C   UNL     1      -4.687  -0.991   1.257  0.00  0.00    +0.156 A 
ATOM      7  C   UNL     1      -4.698  -0.777   2.629  0.00  0.00    +0.048 A 
ATOM      8  C   UNL     1      -5.906  -0.808   3.305  0.00  0.00    +0.005 A 
ATOM      9  C   UNL     1      -7.064  -1.052   2.581  0.00  0.00    +0.020 A 
ATOM     10  C   UNL     1      -6.978  -1.256   1.217  0.00  0.00    +0.113 A 
ATOM     11  N   UNL     1      -5.813  -1.215   0.600  0.00  0.00    -0.236 NA
ENDROOT
BRANCH   3  12
ATOM     12  C   UNL     1      -4.151  -2.420  -1.411  0.00  0.00    +0.245 C 
ATOM     13  C   UNL     1      -3.768  -3.916  -1.317  0.00  0.00    +0.091 C 
ATOM     14  C   UNL     1      -4.092  -4.412  -2.712  0.00  0.00    -0.002 A 
ATOM     15  C   UNL     1      -4.248  -5.678  -3.231  0.00  0.00    +0.007 A 
ATOM     16  C   UNL     1      -4.557  -5.844  -4.569  0.00  0.00    +0.000 A 
ATOM     17  C   UNL     1      -4.707  -4.735  -5.382  0.00  0.00    +0.004 A 
ATOM     18  C   UNL     1      -4.547  -3.466  -4.865  0.00  0.00    +0.046 A 
ATOM     19  C   UNL     1      -4.233  -3.291  -3.520  0.00  0.00    +0.125 A 
ATOM     20  O   UNL     1      -4.019  -2.143  -2.816  0.00  0.00    -0.481 OA
ENDBRANCH   3  12
BRANCH   1  22
ATOM     21  C   UNL     1      -0.019   1.526   0.010  0.00  0.00    +0.015 C 
ATOM     22  C   UNL     1       0.002  -0.004   0.002  0.00  0.00    +0.053 C 
ATOM     23  C   UNL     1       0.742  -0.511   1.242  0.00  0.00    +0.015 C 
ENDBRANCH   1  22
TORSDOF 2
