REMARK  Name = ZINC12246107
REMARK  10 active torsions:
REMARK  status: ('A' for Active; 'I' for Inactive)
REMARK    1  A    between atoms: C_1  and  N_2
REMARK    2  A    between atoms: C_6  and  S_7
REMARK    3  A    between atoms: S_7  and  C_8
REMARK    4  A    between atoms: C_8  and  C_9
REMARK    5  A    between atoms: C_9  and  N_60
REMARK    6  A    between atoms: C_10  and  N_60
REMARK    7  A    between atoms: N_13  and  C_16
REMARK    8  A    between atoms: C_20  and  N_22
REMARK    9  A    between atoms: N_22  and  S_23
REMARK   10  A    between atoms: S_23  and  C_26
REMARK                            x       y       z     vdW  Elec       q    Type
REMARK                         _______ _______ _______ _____ _____    ______ ____
ROOT
ATOM      1  C   UNL     1      -1.959   1.320  -1.280  0.00  0.00    -0.069 C 
ATOM      2  C   UNL     1      -0.500   1.780  -1.243  0.00  0.00    +0.003 C 
ATOM      3  C   UNL     1       0.176   1.218   0.009  0.00  0.00    +0.103 C 
ATOM      4  N   UNL     1      -0.535   1.689   1.205  0.00  0.00    -0.330 N 
ATOM      5  C   UNL     1      -1.926   1.219   1.215  0.00  0.00    +0.103 C 
ATOM      6  C   UNL     1      -2.664   1.782  -0.001  0.00  0.00    +0.003 C 
ENDROOT
BRANCH   4   7
ATOM      7  C   UNL     1       0.133   1.302   2.369  0.00  0.00    +0.031 A 
ATOM      8  C   UNL     1       1.307   0.564   2.285  0.00  0.00    +0.023 A 
ATOM      9  C   UNL     1       1.970   0.185   3.436  0.00  0.00    +0.004 A 
ATOM     10  C   UNL     1       1.464   0.531   4.675  0.00  0.00    +0.024 A 
ATOM     11  C   UNL     1       0.287   1.265   4.766  0.00  0.00    +0.050 A 
ATOM     12  C   UNL     1      -0.379   1.651   3.611  0.00  0.00    +0.047 A 
BRANCH  11  13
ATOM     13  N   UNL     1      -0.224   1.613   6.018  0.00  0.00    -0.216 N 
ATOM     14  H   UNL     1      -0.528   2.519   6.183  0.00  0.00    +0.174 HD
BRANCH  13  15
ATOM     15  S   UNL     1      -0.313   0.478   7.221  0.00  0.00    +0.072 S 
ATOM     16  O   UNL     1       0.980  -0.100   7.330  0.00  0.00    -0.150 OA
ATOM     17  O   UNL     1      -0.965   1.101   8.319  0.00  0.00    -0.150 OA
BRANCH  15  18
ATOM     18  C   UNL     1      -1.389  -0.798   6.655  0.00  0.00    +0.109 A 
ATOM     19  C   UNL     1      -2.756  -0.672   6.819  0.00  0.00    +0.031 A 
ATOM     20  C   UNL     1      -3.601  -1.670   6.372  0.00  0.00    +0.040 A 
ATOM     21  C   UNL     1      -3.077  -2.800   5.768  0.00  0.00    +0.124 A 
ATOM     22  C   UNL     1      -1.707  -2.927   5.608  0.00  0.00    +0.040 A 
ATOM     23  C   UNL     1      -0.865  -1.926   6.052  0.00  0.00    +0.031 A 
ATOM     24  F   UNL     1      -3.901  -3.779   5.334  0.00  0.00    -0.205 F 
ENDBRANCH  15  18
ENDBRANCH  13  15
ENDBRANCH  11  13
ENDBRANCH   4   7
BRANCH   1  25
ATOM     25  N   UNL     1      -2.626   1.912  -2.454  0.00  0.00    +0.382 N 
ATOM     26  H   UNL     1      -2.959   2.853  -2.216  0.00  0.00    -0.085 HD
ATOM     27  H   UNL     1      -1.956   1.973  -3.229  0.00  0.00    -0.085 HD
BRANCH  25  28
ATOM     28  C   UNL     1      -3.772   1.080  -2.866  0.00  0.00    -0.071 C 
BRANCH  28  29
ATOM     29  C   UNL     1      -4.443   1.718  -4.085  0.00  0.00    +0.058 C 
BRANCH  29  30
ATOM     30  S   UNL     1      -5.851   0.704  -4.599  0.00  0.00    -0.090 S 
BRANCH  30  36
ATOM     31  C   UNL     1      -8.365   0.174  -6.627  0.00  0.00    +0.151 C 
ATOM     32  N   UNL     1      -7.484   1.337  -6.766  0.00  0.00    -0.329 N 
ATOM     33  C   UNL     1      -7.578   2.327  -7.718  0.00  0.00    +0.107 A 
ATOM     34  C   UNL     1      -6.579   3.194  -7.482  0.00  0.00    +0.131 A 
ATOM     35  N   UNL     1      -5.888   2.763  -6.414  0.00  0.00    -0.230 NA
ATOM     36  C   UNL     1      -6.418   1.644  -5.977  0.00  0.00    +0.169 A 
ENDBRANCH  30  36
ENDBRANCH  29  30
ENDBRANCH  28  29
ENDBRANCH  25  28
ENDBRANCH   1  25
TORSDOF 9
