REMARK  Name = ZINC11998615
REMARK  6 active torsions:
REMARK  status: ('A' for Active; 'I' for Inactive)
REMARK    1  A    between atoms: C_1  and  C_2
REMARK    2  A    between atoms: C_2  and  C_4
REMARK    3  A    between atoms: C_2  and  N_48
REMARK    4  A    between atoms: C_4  and  N_5
REMARK    5  A    between atoms: C_6  and  C_8
REMARK    6  A    between atoms: C_11  and  N_14
REMARK                            x       y       z     vdW  Elec       q    Type
REMARK                         _______ _______ _______ _____ _____    ______ ____
ROOT
ATOM      1  C   UNL     1       6.139  -0.388   2.046  0.00  0.00    +0.037 A 
ATOM      2  C   UNL     1       5.329  -1.404   1.532  0.00  0.00    +0.015 A 
ATOM      3  C   UNL     1       4.025  -1.133   1.185  0.00  0.00    +0.026 A 
ATOM      4  C   UNL     1       3.513   0.151   1.345  0.00  0.00    +0.059 A 
ATOM      5  C   UNL     1       4.319   1.166   1.851  0.00  0.00    +0.026 A 
ATOM      6  C   UNL     1       5.623   0.900   2.206  0.00  0.00    +0.015 A 
ENDROOT
BRANCH   4   7
ATOM      7  N   UNL     1       2.192   0.423   0.992  0.00  0.00    -0.144 N 
ATOM      8  C   UNL     1       1.189  -0.467   0.943  0.00  0.00    +0.240 C 
ATOM      9  O   UNL     1       1.373  -1.626   1.248  0.00  0.00    -0.274 OA
ATOM     10  C   UNL     1      -0.164   0.004   0.502  0.00  0.00    +0.122 C 
ATOM     11  C   UNL     1      -0.224   1.548   0.648  0.00  0.00    +0.198 C 
ATOM     12  S   UNL     1       1.576   1.917   0.555  0.00  0.00    +0.052 S 
ATOM     13  O   UNL     1       1.983   2.123  -0.790  0.00  0.00    -0.155 OA
ATOM     14  O   UNL     1       1.965   2.811   1.590  0.00  0.00    -0.155 OA
ENDBRANCH   4   7
BRANCH   1  16
ATOM     15  N   UNL     1       8.319   0.305   2.915  0.00  0.00    -0.313 N 
ATOM     16  C   UNL     1       7.538  -0.676   2.419  0.00  0.00    +0.244 C 
ATOM     17  O   UNL     1       7.987  -1.797   2.279  0.00  0.00    -0.270 OA
ATOM     18  H   UNL     1       7.961   1.200   3.027  0.00  0.00    +0.149 HD
BRANCH  15  19
ATOM     19  C   UNL     1       9.707   0.020   3.285  0.00  0.00    +0.089 C 
BRANCH  19  21
ATOM     20  C   UNL     1       9.751   1.852   4.983  0.00  0.00    -0.012 C 
ATOM     21  C   UNL     1      10.400   1.318   3.705  0.00  0.00    -0.054 C 
BRANCH  21  26
ATOM     22  C   UNL     1      12.485   0.519   2.735  0.00  0.00    -0.078 C 
ATOM     23  C   UNL     1      13.986   0.802   2.992  0.00  0.00    -0.020 C 
ATOM     24  C   UNL     1      13.962   2.177   3.699  0.00  0.00    -0.020 C 
ATOM     25  C   UNL     1      12.543   2.304   4.285  0.00  0.00    -0.078 C 
ATOM     26  N   UNL     1      11.851   1.059   3.947  0.00  0.00    +0.382 N 
ATOM     27  H   UNL     1      11.949   0.388   4.718  0.00  0.00    -0.081 HD
ENDBRANCH  21  26
ENDBRANCH  19  21
ENDBRANCH  15  19
ENDBRANCH   1  16
TORSDOF 5
