REMARK  Name = ZINC04831449
REMARK  7 active torsions:
REMARK  status: ('A' for Active; 'I' for Inactive)
REMARK    1  A    between atoms: C_1  and  C_2
REMARK    2  A    between atoms: C_17  and  C_29
REMARK    3  A    between atoms: C_22  and  C_23
REMARK    4  A    between atoms: C_22  and  O_28
REMARK    5  A    between atoms: C_23  and  C_25
REMARK    6  A    between atoms: C_23  and  O_27
REMARK    7  A    between atoms: C_25  and  O_26
REMARK                            x       y       z     vdW  Elec       q    Type
REMARK                         _______ _______ _______ _____ _____    ______ ____
ROOT
ATOM      1  C   UNL     1      -1.466   0.035   1.729  0.00  0.00    +0.016 C 
ATOM      2  C   UNL     1      -0.782   0.517   0.450  0.00  0.00    -0.007 C 
ATOM      3  C   UNL     1       0.655   0.020   0.472  0.00  0.00    +0.019 C 
ATOM      4  C   UNL     1       1.582   0.931   1.269  0.00  0.00    +0.080 C 
ATOM      5  C   UNL     1       1.483   2.322   0.676  0.00  0.00    +0.156 C 
ATOM      6  O   UNL     1       2.469   2.966   0.385  0.00  0.00    -0.293 OA
ATOM      7  C   UNL     1       0.130   2.847   0.469  0.00  0.00    +0.046 C 
ATOM      8  C   UNL     1      -0.905   2.016   0.356  0.00  0.00    -0.060 C 
ATOM      9  C   UNL     1      -2.264   2.635   0.085  0.00  0.00    +0.032 C 
ATOM     10  C   UNL     1      -2.902   1.951  -1.138  0.00  0.00    +0.008 C 
ATOM     11  C   UNL     1      -2.927   0.458  -0.849  0.00  0.00    -0.003 C 
ATOM     12  C   UNL     1      -1.486  -0.060  -0.776  0.00  0.00    +0.002 C 
ATOM     13  C   UNL     1      -1.503  -1.580  -0.848  0.00  0.00    +0.005 C 
ATOM     14  C   UNL     1      -1.815  -1.980  -2.307  0.00  0.00    +0.010 C 
ATOM     15  C   UNL     1      -2.877  -1.076  -2.875  0.00  0.00    +0.002 C 
ATOM     16  C   UNL     1      -3.726  -0.400  -1.782  0.00  0.00    +0.001 C 
ATOM     17  C   UNL     1      -4.811   0.310  -2.607  0.00  0.00    +0.007 C 
ATOM     18  C   UNL     1      -5.096  -0.679  -3.769  0.00  0.00    +0.038 C 
ATOM     19  C   UNL     1      -3.971  -1.747  -3.725  0.00  0.00    +0.100 C 
ATOM     20  C   UNL     1      -2.217  -0.024  -3.783  0.00  0.00    +0.014 C 
ENDROOT
BRANCH  19  21
ATOM     21  O   UNL     1      -3.479  -2.001  -5.040  0.00  0.00    -0.385 OA
ATOM     22  H   UNL     1      -4.122  -2.423  -5.626  0.00  0.00    +0.210 HD
ENDBRANCH  19  21
BRANCH  19  23
ATOM     23  C   UNL     1      -4.493  -3.027  -3.085  0.00  0.00    +0.172 C 
BRANCH  23  24
ATOM     24  O   UNL     1      -3.457  -4.011  -3.071  0.00  0.00    -0.387 OA
ATOM     25  H   UNL     1      -3.126  -4.245  -3.949  0.00  0.00    +0.210 HD
ENDBRANCH  23  24
BRANCH  23  26
ATOM     26  C   UNL     1      -5.684  -3.551  -3.890  0.00  0.00    +0.190 C 
BRANCH  26  27
ATOM     27  O   UNL     1      -6.247  -4.684  -3.226  0.00  0.00    -0.392 OA
ATOM     28  H   UNL     1      -7.008  -5.069  -3.681  0.00  0.00    +0.210 HD
ENDBRANCH  26  27
ENDBRANCH  23  26
ENDBRANCH  19  23
TORSDOF 5
