REMARK  Name = ZINC49721513
REMARK  9 active torsions:
REMARK  status: ('A' for Active; 'I' for Inactive)
REMARK    1  A    between atoms: C_1  and  C_2
REMARK    2  A    between atoms: C_2  and  C_4
REMARK    3  A    between atoms: C_8  and  C_10
REMARK    4  A    between atoms: C_10  and  C_11
REMARK    5  A    between atoms: C_10  and  C_12
REMARK    6  A    between atoms: C_10  and  N_13
REMARK    7  A    between atoms: N_16  and  C_17
REMARK    8  A    between atoms: C_17  and  C_18
REMARK    9  A    between atoms: C_18  and  N_19
REMARK                            x       y       z     vdW  Elec       q    Type
REMARK                         _______ _______ _______ _____ _____    ______ ____
ROOT
ATOM      1  N   UNL     1      -4.498  -3.667   2.103  0.00  0.00    -0.290 N 
ATOM      2  C   UNL     1      -5.075  -4.389   3.084  0.00  0.00    +0.300 C 
ATOM      3  O   UNL     1      -4.476  -4.590   4.123  0.00  0.00    -0.253 OA
ATOM      4  N   UNL     1      -6.315  -4.887   2.913  0.00  0.00    -0.298 N 
ATOM      5  H   UNL     1      -4.975  -3.506   1.274  0.00  0.00    +0.151 HD
ATOM      6  H   UNL     1      -6.793  -4.727   2.084  0.00  0.00    +0.150 HD
ENDROOT
BRANCH   1   7
ATOM      7  C   UNL     1      -3.149  -3.125   2.288  0.00  0.00    +0.056 C 
ATOM      8  C   UNL     1      -2.163  -4.274   2.501  0.00  0.00    +0.036 C 
ATOM      9  C   UNL     1      -3.133  -2.205   3.511  0.00  0.00    +0.036 C 
BRANCH   7  14
ATOM     10  C   UNL     1      -3.351  -1.071  -0.884  0.00  0.00    -0.022 A 
ATOM     11  C   UNL     1      -1.998  -0.901  -1.184  0.00  0.00    +0.008 A 
ATOM     12  C   UNL     1      -1.038  -1.450  -0.361  0.00  0.00    +0.001 A 
ATOM     13  C   UNL     1      -1.412  -2.169   0.761  0.00  0.00    +0.006 A 
ATOM     14  C   UNL     1      -2.751  -2.341   1.064  0.00  0.00    -0.024 A 
ATOM     15  C   UNL     1      -3.721  -1.791   0.252  0.00  0.00    +0.014 A 
BRANCH  10  17
ATOM     16  C   UNL     1      -4.541  -0.978  -3.176  0.00  0.00    +0.044 C 
ATOM     17  C   UNL     1      -4.386  -0.484  -1.761  0.00  0.00    -0.050 C 
ATOM     18  C   UNL     1      -5.176   0.476  -1.303  0.00  0.00    +0.012 C 
ENDBRANCH  10  17
ENDBRANCH   7  14
ENDBRANCH   1   7
BRANCH   4  19
ATOM     19  C   UNL     1      -6.942  -5.672   3.980  0.00  0.00    +0.127 C 
BRANCH  19  20
ATOM     20  C   UNL     1      -8.337  -6.115   3.534  0.00  0.00    +0.145 C 
BRANCH  20  21
ATOM     21  N   UNL     1      -8.964  -6.900   4.600  0.00  0.00    -0.291 N 
ATOM     22  C   UNL     1      -8.869  -8.280   4.761  0.00  0.00    +0.070 A 
ATOM     23  C   UNL     1      -8.221  -9.279   4.048  0.00  0.00    +0.028 A 
ATOM     24  C   UNL     1      -8.315 -10.592   4.465  0.00  0.00    +0.002 A 
ATOM     25  C   UNL     1      -9.053 -10.916   5.591  0.00  0.00    +0.002 A 
ATOM     26  C   UNL     1      -9.702  -9.929   6.306  0.00  0.00    +0.028 A 
ATOM     27  C   UNL     1      -9.613  -8.607   5.896  0.00  0.00    +0.067 A 
ATOM     28  N   UNL     1     -10.137  -7.415   6.391  0.00  0.00    -0.306 N 
ATOM     29  H   UNL     1     -10.699  -7.325   7.176  0.00  0.00    +0.170 HD
ATOM     30  C   UNL     1      -9.726  -6.409   5.596  0.00  0.00    +0.328 A 
ATOM     31  O   UNL     1     -10.004  -5.235   5.752  0.00  0.00    -0.247 OA
ENDBRANCH  20  21
ENDBRANCH  19  20
ENDBRANCH   4  19
TORSDOF 6
