REMARK  Name = ZINC02927167
REMARK  6 active torsions:
REMARK  status: ('A' for Active; 'I' for Inactive)
REMARK    1  A    between atoms: C_1  and  C_2
REMARK    2  A    between atoms: C_3  and  C_29
REMARK    3  A    between atoms: C_4  and  C_22
REMARK    4  A    between atoms: C_10  and  C_15
REMARK    5  A    between atoms: C_29  and  O_31
REMARK    6  A    between atoms: O_31  and  C_32
REMARK                            x       y       z     vdW  Elec       q    Type
REMARK                         _______ _______ _______ _____ _____    ______ ____
ROOT
ATOM      1  C   UNL     1      -1.749  10.361  -3.831  0.00  0.00    +0.061 C 
ATOM      2  C   UNL     1      -1.336   9.889  -2.461  0.00  0.00    +0.016 C 
ATOM      3  C   UNL     1      -1.408  10.730  -1.415  0.00  0.00    +0.065 C 
ATOM      4  C   UNL     1      -0.997  10.298  -0.038  0.00  0.00    +0.094 C 
ATOM      5  C   UNL     1      -0.942   8.794   0.063  0.00  0.00    +0.024 C 
ATOM      6  C   UNL     1      -0.889   8.030  -1.048  0.00  0.00    +0.016 C 
ATOM      7  N   UNL     1      -0.891   8.608  -2.290  0.00  0.00    -0.321 N 
ATOM      8  C   UNL     1      -0.829   6.526  -0.955  0.00  0.00    +0.059 C 
ATOM      9  C   UNL     1      -0.106   6.119   0.331  0.00  0.00    +0.032 C 
ATOM     10  C   UNL     1      -0.858   6.722   1.522  0.00  0.00    +0.088 C 
ATOM     11  C   UNL     1      -0.942   8.214   1.343  0.00  0.00    +0.162 C 
ATOM     12  O   UNL     1      -1.010   8.929   2.323  0.00  0.00    -0.292 OA
ATOM     13  H   UNL     1      -0.531   8.031  -3.154  0.00  0.00    +0.152 HD
ENDROOT
BRANCH   9  14
ATOM     14  C   UNL     1      -0.091   4.617   0.451  0.00  0.00    -0.043 A 
ATOM     15  C   UNL     1       1.114   3.941   0.507  0.00  0.00    +0.005 A 
ATOM     16  C   UNL     1       1.129   2.563   0.616  0.00  0.00    +0.020 A 
ATOM     17  C   UNL     1      -0.062   1.861   0.669  0.00  0.00    +0.041 A 
ATOM     18  C   UNL     1      -1.267   2.537   0.607  0.00  0.00    +0.020 A 
ATOM     19  C   UNL     1      -1.281   3.916   0.503  0.00  0.00    +0.005 A 
ATOM     20 CL   UNL     1      -0.044   0.130   0.805  0.00  0.00    -0.084 Cl
ENDBRANCH   9  14
BRANCH   4  21
ATOM     21  C   UNL     1       0.363  10.866   0.274  0.00  0.00    -0.017 A 
ATOM     22  C   UNL     1       1.454  10.510  -0.498  0.00  0.00    +0.006 A 
ATOM     23  C   UNL     1       2.701  11.034  -0.215  0.00  0.00    +0.000 A 
ATOM     24  C   UNL     1       2.861  11.906   0.846  0.00  0.00    +0.001 A 
ATOM     25  C   UNL     1       1.772  12.259   1.621  0.00  0.00    +0.020 A 
ATOM     26  C   UNL     1       0.522  11.738   1.335  0.00  0.00    +0.045 A 
ATOM     27 CL   UNL     1      -0.846  12.180   2.308  0.00  0.00    -0.083 Cl
ENDBRANCH   4  21
BRANCH   3  28
ATOM     28  C   UNL     1      -1.879  12.049  -1.616  0.00  0.00    +0.338 C 
ATOM     29  O   UNL     1      -2.114  12.445  -2.743  0.00  0.00    -0.245 OA
BRANCH  28  30
ATOM     30  O   UNL     1      -2.068  12.866  -0.560  0.00  0.00    -0.458 OA
BRANCH  30  31
ATOM     31  C   UNL     1      -2.546  14.184  -0.837  0.00  0.00    +0.177 C 
ATOM     32  C   UNL     1      -1.358  15.123  -1.054  0.00  0.00    +0.044 C 
ATOM     33  C   UNL     1      -1.870  16.534  -1.351  0.00  0.00    +0.004 C 
ATOM     34  C   UNL     1      -2.704  17.033  -0.169  0.00  0.00    +0.000 C 
ATOM     35  C   UNL     1      -3.892  16.094   0.049  0.00  0.00    +0.004 C 
ATOM     36  C   UNL     1      -3.380  14.683   0.345  0.00  0.00    +0.044 C 
ENDBRANCH  30  31
ENDBRANCH  28  30
ENDBRANCH   3  28
TORSDOF 5
