REMARK  Name = ZINC66379986
REMARK  9 active torsions:
REMARK  status: ('A' for Active; 'I' for Inactive)
REMARK    1  A    between atoms: C_1  and  C_2
REMARK    2  A    between atoms: C_4  and  C_28
REMARK    3  A    between atoms: C_9  and  N_14
REMARK    4  A    between atoms: C_11  and  C_13
REMARK    5  A    between atoms: C_15  and  C_17
REMARK    6  A    between atoms: C_18  and  C_27
REMARK    7  A    between atoms: C_19  and  C_24
REMARK    8  A    between atoms: C_20  and  C_23
REMARK    9  A    between atoms: C_24  and  C_26
REMARK                            x       y       z     vdW  Elec       q    Type
REMARK                         _______ _______ _______ _____ _____    ______ ____
ROOT
ATOM      1  N   UNL     1      -0.712  -0.575   3.779  0.00  0.00    -0.265 N 
ATOM      2  C   UNL     1      -0.542  -0.210   5.065  0.00  0.00    +0.266 C 
ATOM      3  O   UNL     1      -0.610  -1.044   5.948  0.00  0.00    -0.268 OA
ATOM      4  H   UNL     1      -0.657   0.090   3.075  0.00  0.00    +0.157 HD
ENDROOT
BRANCH   1  13
ATOM      5  C   UNL     1      -0.616   1.806  -0.006  0.00  0.00    +0.066 C 
ATOM      6  C   UNL     1      -0.877   0.323  -0.058  0.00  0.00    +0.044 A 
ATOM      7  C   UNL     1      -1.093  -0.309  -1.272  0.00  0.00    +0.046 A 
ATOM      8  C   UNL     1      -1.330  -1.675  -1.274  0.00  0.00    +0.044 A 
ATOM      9  N   UNL     1      -1.343  -2.329  -0.124  0.00  0.00    -0.216 NA
ATOM     10  C   UNL     1      -1.134  -1.694   1.018  0.00  0.00    +0.253 A 
ATOM     11  N   UNL     1      -0.899  -0.392   1.055  0.00  0.00    -0.216 NA
ATOM     12  N   UNL     1      -1.156  -2.415   2.211  0.00  0.00    -0.183 N 
ATOM     13  C   UNL     1      -0.965  -1.907   3.460  0.00  0.00    +0.132 A 
ATOM     14  C   UNL     1      -1.066  -2.940   4.340  0.00  0.00    +0.068 A 
ATOM     15  C   UNL     1      -1.325  -4.103   3.609  0.00  0.00    +0.062 A 
ATOM     16  N   UNL     1      -1.384  -3.791   2.340  0.00  0.00    -0.167 NA
ATOM     17  C   UNL     1      -1.511  -5.483   4.185  0.00  0.00    +0.067 C 
ATOM     18  C   UNL     1      -1.569  -2.406  -2.570  0.00  0.00    +0.066 C 
ENDBRANCH   1  13
BRANCH   2  19
ATOM     19  C   UNL     1      -0.275   1.194   5.401  0.00  0.00    +0.106 A 
ATOM     20  C   UNL     1      -0.080   1.691   6.654  0.00  0.00    -0.010 A 
ATOM     21  C   UNL     1       0.144   3.082   6.518  0.00  0.00    +0.041 A 
ATOM     22  C   UNL     1       0.073   3.372   5.164  0.00  0.00    +0.024 A 
ATOM     23  N   UNL     1      -0.173   2.233   4.500  0.00  0.00    -0.354 N 
ATOM     24  H   UNL     1      -0.267   2.153   3.538  0.00  0.00    +0.166 HD
ATOM     25  C   UNL     1       0.249   4.734   4.543  0.00  0.00    +0.064 C 
ATOM     26  C   UNL     1      -0.099   0.908   7.942  0.00  0.00    +0.047 C 
BRANCH  21  27
ATOM     27  C   UNL     1       0.401   4.035   7.602  0.00  0.00    +0.162 C 
ATOM     28  O   UNL     1      -0.526   4.599   8.146  0.00  0.00    -0.292 OA
ATOM     29  C   UNL     1       1.815   4.314   8.041  0.00  0.00    +0.091 C 
ENDBRANCH  21  27
ENDBRANCH   2  19
TORSDOF 3
