REMARK  Name = ZINC42603387
REMARK  5 active torsions:
REMARK  status: ('A' for Active; 'I' for Inactive)
REMARK    1  A    between atoms: C_1  and  C_2
REMARK    2  A    between atoms: C_8  and  N_10
REMARK    3  A    between atoms: N_10  and  C_11
REMARK    4  A    between atoms: C_13  and  C_19
REMARK    5  A    between atoms: C_15  and  N_18
REMARK                            x       y       z     vdW  Elec       q    Type
REMARK                         _______ _______ _______ _____ _____    ______ ____
ROOT
ATOM      1  N   UNL     1       1.722  -0.035   1.480  0.00  0.00    -0.314 N 
ATOM      2  C   UNL     1       2.450  -0.526   0.306  0.00  0.00    +0.131 C 
ATOM      3  C   UNL     1       2.331   0.855   2.349  0.00  0.00    +0.134 A 
ATOM      4  C   UNL     1       3.182   0.373   3.358  0.00  0.00    +0.078 A 
ATOM      5  C   UNL     1       3.787   1.288   4.226  0.00  0.00    +0.040 A 
ATOM      6  C   UNL     1       3.517   2.640   4.051  0.00  0.00    +0.044 A 
ATOM      7  C   UNL     1       2.664   3.037   3.029  0.00  0.00    +0.135 A 
ATOM      8  N   UNL     1       2.111   2.154   2.221  0.00  0.00    -0.238 NA
ENDROOT
BRANCH   1  15
ATOM      9  C   UNL     1      -0.528   1.506   0.506  0.00  0.00    +0.009 C 
ATOM     10  C   UNL     1      -0.556  -0.021   0.592  0.00  0.00    +0.006 C 
ATOM     11  C   UNL     1      -1.988  -0.491   0.856  0.00  0.00    +0.005 C 
ATOM     12  C   UNL     1      -2.016  -2.018   0.941  0.00  0.00    +0.000 C 
ATOM     13  C   UNL     1      -1.108  -2.482   2.082  0.00  0.00    +0.002 C 
ATOM     14  C   UNL     1       0.324  -2.012   1.818  0.00  0.00    +0.023 C 
ATOM     15  C   UNL     1       0.351  -0.485   1.733  0.00  0.00    +0.077 C 
ENDBRANCH   1  15
BRANCH   4  16
ATOM     16  C   UNL     1       3.433  -1.073   3.499  0.00  0.00    +0.245 C 
ATOM     17  O   UNL     1       2.991  -1.850   2.674  0.00  0.00    -0.270 OA
ATOM     18  N   UNL     1       4.151  -1.534   4.543  0.00  0.00    -0.325 N 
ATOM     19  H   UNL     1       4.503  -0.914   5.201  0.00  0.00    +0.145 HD
ATOM     20  H   UNL     1       4.316  -2.485   4.636  0.00  0.00    +0.145 HD
ENDBRANCH   4  16
BRANCH   6  21
ATOM     21  N   UNL     1       4.100   3.593   4.896  0.00  0.00    -0.357 N 
ATOM     22  H   UNL     1       4.695   3.310   5.609  0.00  0.00    +0.142 HD
ATOM     23  H   UNL     1       3.908   4.535   4.769  0.00  0.00    +0.142 HD
ENDBRANCH   6  21
TORSDOF 3
