REMARK  Name = ZINC28020752
REMARK  7 active torsions:
REMARK  status: ('A' for Active; 'I' for Inactive)
REMARK    1  A    between atoms: C_1  and  S_2
REMARK    2  A    between atoms: S_2  and  N_5
REMARK    3  A    between atoms: N_5  and  C_6
REMARK    4  A    between atoms: C_11  and  N_12
REMARK    5  A    between atoms: C_13  and  C_15
REMARK    6  A    between atoms: C_16  and  C_17
REMARK    7  A    between atoms: C_22  and  N_23
REMARK                            x       y       z     vdW  Elec       q    Type
REMARK                         _______ _______ _______ _____ _____    ______ ____
ROOT
ATOM      1  N   UNL     1       3.340   1.248  -0.077  0.00  0.00    -0.280 N 
ATOM      2  C   UNL     1       4.485   1.954  -0.167  0.00  0.00    +0.241 C 
ATOM      3  O   UNL     1       4.446   3.151  -0.386  0.00  0.00    -0.270 OA
ATOM      4  H   UNL     1       3.376   0.154   0.031  0.00  0.00    +0.155 HD
ENDROOT
BRANCH   1  10
ATOM      5  C   UNL     1       1.023   1.415   0.609  0.00  0.00    +0.069 A 
ATOM      6  C   UNL     1      -0.199   2.070   0.556  0.00  0.00    +0.026 A 
ATOM      7  C   UNL     1      -0.338   3.212  -0.211  0.00  0.00    +0.002 A 
ATOM      8  C   UNL     1       0.735   3.699  -0.935  0.00  0.00    +0.002 A 
ATOM      9  C   UNL     1       1.954   3.050  -0.892  0.00  0.00    +0.025 A 
ATOM     10  C   UNL     1       2.105   1.907  -0.122  0.00  0.00    +0.056 A 
BRANCH   5  11
ATOM     11  N   UNL     1       1.168   0.263   1.388  0.00  0.00    -0.219 N 
ATOM     12  H   UNL     1       2.112   0.074   1.921  0.00  0.00    +0.173 HD
BRANCH  11  14
ATOM     13  C   UNL     1      -0.389  -1.365  -0.194  0.00  0.00    +0.218 C 
ATOM     14  S   UNL     1      -0.081  -0.818   1.508  0.00  0.00    +0.040 S 
ATOM     15  O   UNL     1       0.441  -1.891   2.280  0.00  0.00    -0.155 OA
ATOM     16  O   UNL     1      -1.179  -0.052   1.982  0.00  0.00    -0.155 OA
ENDBRANCH  11  14
ENDBRANCH   5  11
ENDBRANCH   1  10
BRANCH   2  17
ATOM     17  C   UNL     1       5.774   1.282  -0.002  0.00  0.00    +0.068 C 
ATOM     18  C   UNL     1       6.919   1.988  -0.092  0.00  0.00    +0.015 C 
BRANCH  18  19
ATOM     19  C   UNL     1       8.216   1.312   0.075  0.00  0.00    +0.005 A 
ATOM     20  C   UNL     1       8.282  -0.085   0.109  0.00  0.00    +0.010 A 
ATOM     21  C   UNL     1       9.500  -0.711   0.265  0.00  0.00    +0.001 A 
ATOM     22  C   UNL     1      10.657   0.040   0.388  0.00  0.00    +0.002 A 
ATOM     23  C   UNL     1      10.600   1.422   0.355  0.00  0.00    +0.033 A 
ATOM     24  C   UNL     1       9.390   2.063   0.193  0.00  0.00    +0.133 A 
BRANCH  24  25
ATOM     25  N   UNL     1       9.332   3.541   0.152  0.00  0.00    +0.057 N 
ATOM     26  O   UNL     1      10.363   4.191   0.143  0.00  0.00    -0.126 OA
ATOM     27  O   UNL     1       8.255   4.108   0.127  0.00  0.00    -0.126 OA
ENDBRANCH  24  25
ENDBRANCH  18  19
ENDBRANCH   2  17
TORSDOF 6
