REMARK  Name = ZINC58193001
REMARK  6 active torsions:
REMARK  status: ('A' for Active; 'I' for Inactive)
REMARK    1  A    between atoms: C_1  and  C_2
REMARK    2  A    between atoms: N_4  and  C_5
REMARK    3  A    between atoms: C_8  and  C_11
REMARK    4  A    between atoms: C_11  and  N_12
REMARK    5  A    between atoms: C_15  and  C_19
REMARK    6  A    between atoms: C_15  and  C_20
REMARK                            x       y       z     vdW  Elec       q    Type
REMARK                         _______ _______ _______ _____ _____    ______ ____
ROOT
ATOM      1  N   UNL     1      -3.580  -5.407   1.371  0.00  0.00    -0.218 N 
ATOM      2  C   UNL     1      -3.099  -6.377   2.174  0.00  0.00    +0.251 C 
ATOM      3  O   UNL     1      -2.248  -7.196   1.903  0.00  0.00    -0.272 OA
ATOM      4  C   UNL     1      -3.844  -6.229   3.486  0.00  0.00    +0.138 C 
ATOM      5  N   UNL     1      -4.742  -5.086   3.247  0.00  0.00    -0.281 N 
ATOM      6  C   UNL     1      -4.511  -4.672   1.988  0.00  0.00    +0.310 C 
ATOM      7  O   UNL     1      -5.088  -3.736   1.469  0.00  0.00    -0.252 OA
ATOM      8  C   UNL     1      -2.871  -5.920   4.625  0.00  0.00    +0.047 C 
ATOM      9  H   UNL     1      -5.374  -4.705   3.876  0.00  0.00    +0.152 HD
ENDROOT
BRANCH   4  10
ATOM     10  C   UNL     1      -4.639  -7.473   3.787  0.00  0.00    +0.020 A 
ATOM     11  C   UNL     1      -6.012  -7.401   3.922  0.00  0.00    +0.009 A 
ATOM     12  C   UNL     1      -6.741  -8.542   4.199  0.00  0.00    +0.001 A 
ATOM     13  C   UNL     1      -6.098  -9.758   4.341  0.00  0.00    +0.003 A 
ATOM     14  C   UNL     1      -4.724  -9.833   4.206  0.00  0.00    +0.039 A 
ATOM     15  C   UNL     1      -3.994  -8.691   3.924  0.00  0.00    +0.129 A 
ATOM     16  F   UNL     1      -2.651  -8.764   3.787  0.00  0.00    -0.205 F 
ENDBRANCH   4  10
BRANCH   1  17
ATOM     17  C   UNL     1      -3.133  -5.182  -0.006  0.00  0.00    +0.174 C 
BRANCH  17  25
ATOM     18  C   UNL     1      -0.018   1.503   0.010  0.00  0.00    +0.110 C 
ATOM     19  C   UNL     1       0.002  -0.004   0.002  0.00  0.00    +0.218 C 
ATOM     20  O   UNL     1       1.060  -0.596  -0.011  0.00  0.00    -0.276 OA
ATOM     21  N   UNL     1      -1.156  -0.694   0.009  0.00  0.00    -0.254 N 
ATOM     22  C   UNL     1      -2.434   0.021   0.025  0.00  0.00    +0.140 C 
ATOM     23  C   UNL     1      -1.137  -2.084   0.002  0.00  0.00    +0.167 A 
ATOM     24  N   UNL     1      -2.156  -2.915   0.002  0.00  0.00    -0.228 NA
ATOM     25  C   UNL     1      -1.971  -4.222  -0.006  0.00  0.00    +0.068 A 
ATOM     26  C   UNL     1      -0.689  -4.662  -0.014  0.00  0.00    +0.073 A 
ATOM     27  S   UNL     1       0.196  -3.111  -0.017  0.00  0.00    -0.060 S 
ENDBRANCH  17  25
ENDBRANCH   1  17
TORSDOF 3
