REMARK  Name = ZINC16259233
REMARK  10 active torsions:
REMARK  status: ('A' for Active; 'I' for Inactive)
REMARK    1  A    between atoms: C_1  and  N_59
REMARK    2  A    between atoms: C_2  and  N_59
REMARK    3  A    between atoms: C_3  and  C_5
REMARK    4  A    between atoms: C_3  and  C_26
REMARK    5  A    between atoms: C_3  and  N_59
REMARK    6  A    between atoms: C_5  and  N_6
REMARK    7  A    between atoms: C_7  and  C_9
REMARK    8  A    between atoms: N_12  and  S_15
REMARK    9  A    between atoms: S_15  and  C_18
REMARK   10  A    between atoms: C_21  and  C_24
REMARK                            x       y       z     vdW  Elec       q    Type
REMARK                         _______ _______ _______ _____ _____    ______ ____
ROOT
ATOM      1  N   UNL     1       5.132   3.994   0.744  0.00  0.00    -0.316 N 
ATOM      2  C   UNL     1       5.625   4.839   1.670  0.00  0.00    +0.216 C 
ATOM      3  O   UNL     1       5.067   4.959   2.740  0.00  0.00    -0.276 OA
ATOM      4  H   UNL     1       5.579   3.898  -0.112  0.00  0.00    +0.149 HD
ENDROOT
BRANCH   2   5
ATOM      5  C   UNL     1       6.870   5.636   1.377  0.00  0.00    +0.077 C 
ATOM      6  C   UNL     1       8.031   4.681   1.090  0.00  0.00    +0.030 C 
ATOM      7  C   UNL     1       9.286   5.494   0.758  0.00  0.00    +0.110 C 
ATOM      8  N   UNL     1       9.540   6.441   1.853  0.00  0.00    -0.177 NA
ATOM      9  C   UNL     1       8.459   7.344   2.270  0.00  0.00    +0.110 C 
ATOM     10  C   UNL     1       7.213   6.510   2.585  0.00  0.00    +0.030 C 
BRANCH   8  11
ATOM     11  S   UNL     1      11.015   6.489   2.602  0.00  0.00    +0.061 S 
ATOM     12  O   UNL     1      11.958   5.964   1.677  0.00  0.00    -0.153 OA
ATOM     13  O   UNL     1      11.143   7.787   3.166  0.00  0.00    -0.153 OA
BRANCH  11  14
ATOM     14  C   UNL     1      10.952   5.358   3.952  0.00  0.00    +0.106 A 
ATOM     15  C   UNL     1      10.539   5.796   5.198  0.00  0.00    +0.030 A 
ATOM     16  C   UNL     1      10.482   4.915   6.258  0.00  0.00    +0.021 A 
ATOM     17  C   UNL     1      10.852   3.581   6.074  0.00  0.00    +0.052 A 
ATOM     18  C   UNL     1      11.272   3.147   4.815  0.00  0.00    +0.021 A 
ATOM     19  C   UNL     1      11.319   4.038   3.762  0.00  0.00    +0.030 A 
BRANCH  17  20
ATOM     20  C   UNL     1      10.800   2.662   7.171  0.00  0.00    +0.099 C 
ATOM     21  N   UNL     1      10.759   1.933   8.041  0.00  0.00    -0.191 NA
ENDBRANCH  17  20
ENDBRANCH  11  14
ENDBRANCH   8  11
ENDBRANCH   2   5
BRANCH   1  22
ATOM     22  C   UNL     1       3.922   3.219   1.029  0.00  0.00    +0.093 C 
BRANCH  22  23
ATOM     23  C   UNL     1       3.653   2.250  -0.124  0.00  0.00    -0.017 C 
BRANCH  23  24
ATOM     24  C   UNL     1       4.783   1.258  -0.221  0.00  0.00    -0.006 A 
ATOM     25  C   UNL     1       5.722   1.374  -1.232  0.00  0.00    +0.126 A 
ATOM     26  C   UNL     1       6.760   0.462  -1.319  0.00  0.00    +0.038 A 
ATOM     27  C   UNL     1       6.859  -0.563  -0.397  0.00  0.00    +0.004 A 
ATOM     28  C   UNL     1       5.922  -0.678   0.612  0.00  0.00    +0.020 A 
ATOM     29  C   UNL     1       4.884   0.232   0.701  0.00  0.00    +0.045 A 
ATOM     30 CL   UNL     1       3.707   0.085   1.969  0.00  0.00    -0.083 Cl
ATOM     31  F   UNL     1       5.624   2.376  -2.133  0.00  0.00    -0.205 F 
ENDBRANCH  23  24
BRANCH  23  34
ATOM     32  C   UNL     1       1.297   2.475   0.389  0.00  0.00    -0.096 C 
ATOM     33  C   UNL     1       2.064   0.648  -1.002  0.00  0.00    -0.096 C 
ATOM     34  N   UNL     1       2.397   1.518   0.145  0.00  0.00    +0.382 N 
ATOM     35  H   UNL     1       2.523   0.935   0.981  0.00  0.00    -0.082 HD
ENDBRANCH  23  34
ENDBRANCH  22  23
ENDBRANCH   1  22
TORSDOF 8
