REMARK  Name = ZINC55063663
REMARK  9 active torsions:
REMARK  status: ('A' for Active; 'I' for Inactive)
REMARK    1  A    between atoms: C_1  and  C_2
REMARK    2  A    between atoms: C_2  and  C_3
REMARK    3  A    between atoms: C_3  and  C_5
REMARK    4  A    between atoms: C_3  and  N_6
REMARK    5  A    between atoms: N_9  and  C_12
REMARK    6  A    between atoms: C_12  and  C_14
REMARK    7  A    between atoms: C_12  and  C_16
REMARK    8  A    between atoms: C_14  and  N_15
REMARK    9  A    between atoms: N_19  and  C_21
REMARK                            x       y       z     vdW  Elec       q    Type
REMARK                         _______ _______ _______ _____ _____    ______ ____
ROOT
ATOM      1  C   UNL     1      -4.898   1.010   4.330  0.00  0.00    +0.072 C 
ENDROOT
BRANCH   1   5
ATOM      2  N   UNL     1      -2.151  -0.306   1.399  0.00  0.00    +0.383 N 
ATOM      3  C   UNL     1      -3.425  -1.027   1.525  0.00  0.00    -0.063 C 
ATOM      4  C   UNL     1      -4.038  -0.743   2.898  0.00  0.00    +0.066 C 
ATOM      5  N   UNL     1      -4.257   0.703   3.045  0.00  0.00    -0.301 NA
ATOM      6  C   UNL     1      -2.994   1.439   2.897  0.00  0.00    +0.066 C 
ATOM      7  C   UNL     1      -2.389   1.138   1.524  0.00  0.00    -0.063 C 
ATOM      8  H   UNL     1      -1.522  -0.607   2.128  0.00  0.00    -0.081 HD
BRANCH   2   9
ATOM      9  C   UNL     1      -1.554  -0.593   0.088  0.00  0.00    -0.072 C 
ATOM     10  C   UNL     1      -2.565  -0.271  -1.014  0.00  0.00    -0.013 C 
BRANCH   9  12
ATOM     11  C   UNL     1      -0.063  -2.365   1.026  0.00  0.00    +0.002 C 
ATOM     12  C   UNL     1      -1.173  -2.073   0.014  0.00  0.00    -0.019 C 
ENDBRANCH   9  12
ENDBRANCH   2   9
ENDBRANCH   1   5
BRANCH   1  13
ATOM     13  C   UNL     1      -3.978   0.619   5.457  0.00  0.00    +0.005 A 
ATOM     14  C   UNL     1      -2.743   1.206   5.753  0.00  0.00    +0.139 A 
ATOM     15  N   UNL     1      -2.242   0.599   6.798  0.00  0.00    -0.180 NA
ATOM     16  N   UNL     1      -3.143  -0.395   7.201  0.00  0.00    -0.274 N 
ATOM     17  C   UNL     1      -4.202  -0.358   6.366  0.00  0.00    +0.113 A 
ATOM     18  C   UNL     1      -2.969  -1.308   8.333  0.00  0.00    +0.172 C 
ENDBRANCH   1  13
BRANCH   1  19
ATOM     19  C   UNL     1      -5.191   2.510   4.408  0.00  0.00    -0.062 C 
BRANCH  19  20
ATOM     20  N   UNL     1      -5.990   2.914   3.243  0.00  0.00    +0.379 N 
ATOM     21  H   UNL     1      -6.183   3.903   3.295  0.00  0.00    -0.090 HD
ATOM     22  H   UNL     1      -5.476   2.715   2.398  0.00  0.00    -0.090 HD
ATOM     23  H   UNL     1      -6.859   2.402   3.237  0.00  0.00    -0.090 HD
ENDBRANCH  19  20
ENDBRANCH   1  19
TORSDOF 6
