REMARK  Name = ZINC33598407
REMARK  11 active torsions:
REMARK  status: ('A' for Active; 'I' for Inactive)
REMARK    1  A    between atoms: C_1  and  C_2
REMARK    2  A    between atoms: C_2  and  C_3
REMARK    3  A    between atoms: C_7  and  C_40
REMARK    4  A    between atoms: C_8  and  N_9
REMARK    5  A    between atoms: C_14  and  C_32
REMARK    6  A    between atoms: C_17  and  C_22
REMARK    7  A    between atoms: C_17  and  C_29
REMARK    8  A    between atoms: C_22  and  C_23
REMARK    9  A    between atoms: C_37  and  O_38
REMARK   10  A    between atoms: O_38  and  C_39
REMARK   11  A    between atoms: C_40  and  C_41
REMARK                            x       y       z     vdW  Elec       q    Type
REMARK                         _______ _______ _______ _____ _____    ______ ____
ROOT
ATOM      1  N   UNL     1       4.393   3.658  -1.109  0.00  0.00    -0.209 N 
ATOM      2  C   UNL     1       3.677   4.626  -1.756  0.00  0.00    +0.229 C 
ATOM      3  O   UNL     1       4.025   5.266  -2.725  0.00  0.00    -0.275 OA
ATOM      4  C   UNL     1       2.377   4.734  -1.024  0.00  0.00    +0.077 C 
ATOM      5  C   UNL     1       1.058   4.883  -1.762  0.00  0.00    -0.023 C 
ATOM      6  N   UNL     1       0.105   3.962  -1.070  0.00  0.00    +0.396 N 
ATOM      7  C   UNL     1       0.891   3.147  -0.081  0.00  0.00    +0.048 C 
ATOM      8  C   UNL     1       2.256   3.212  -0.632  0.00  0.00    +0.086 C 
ATOM      9  C   UNL     1       3.616   2.893  -0.275  0.00  0.00    +0.229 C 
ATOM     10  O   UNL     1       3.991   2.117   0.578  0.00  0.00    -0.275 OA
ATOM     11  H   UNL     1      -0.664   4.553  -0.552  0.00  0.00    -0.083 HD
ATOM     12  H   UNL     1      -0.374   3.306  -1.812  0.00  0.00    -0.083 HD
ENDROOT
BRANCH   1  18
ATOM     13  C   UNL     1       6.237   2.603  -2.262  0.00  0.00    -0.026 A 
ATOM     14  C   UNL     1       7.596   2.420  -2.431  0.00  0.00    +0.005 A 
ATOM     15  C   UNL     1       8.491   3.087  -1.615  0.00  0.00    +0.001 A 
ATOM     16  C   UNL     1       8.030   3.942  -0.631  0.00  0.00    +0.005 A 
ATOM     17  C   UNL     1       6.673   4.134  -0.462  0.00  0.00    -0.026 A 
ATOM     18  C   UNL     1       5.771   3.466  -1.279  0.00  0.00    +0.050 A 
BRANCH  13  20
ATOM     19  C   UNL     1       4.872   2.767  -4.326  0.00  0.00    +0.009 C 
ATOM     20  C   UNL     1       5.262   1.871  -3.148  0.00  0.00    +0.033 C 
ENDBRANCH  13  20
BRANCH  17  21
ATOM     21  C   UNL     1       6.170   5.066   0.611  0.00  0.00    +0.033 C 
ATOM     22  C   UNL     1       5.845   4.264   1.872  0.00  0.00    +0.009 C 
ENDBRANCH  17  21
ENDBRANCH   1  18
BRANCH   5  23
ATOM     23  C   UNL     1       1.219   4.477  -3.205  0.00  0.00    -0.019 A 
ATOM     24  C   UNL     1       1.018   3.163  -3.580  0.00  0.00    +0.005 A 
ATOM     25  C   UNL     1       1.165   2.791  -4.904  0.00  0.00    +0.000 A 
ATOM     26  C   UNL     1       1.514   3.732  -5.854  0.00  0.00    +0.004 A 
ATOM     27  C   UNL     1       1.716   5.048  -5.484  0.00  0.00    +0.046 A 
ATOM     28  C   UNL     1       1.564   5.425  -4.157  0.00  0.00    +0.122 A 
BRANCH  28  29
ATOM     29  O   UNL     1       1.756   6.719  -3.791  0.00  0.00    -0.495 OA
ATOM     30  C   UNL     1       2.110   7.640  -4.825  0.00  0.00    +0.277 C 
ENDBRANCH  28  29
ENDBRANCH   5  23
BRANCH   7  31
ATOM     31  C   UNL     1       0.395   1.724  -0.046  0.00  0.00    +0.346 C 
ATOM     32  O   UNL     1       1.177   0.815   0.106  0.00  0.00    -0.248 OA
ATOM     33  O   UNL     1      -0.915   1.466  -0.183  0.00  0.00    -0.248 OA
ENDBRANCH   7  31
BRANCH   7  34
ATOM     34  C   UNL     1       0.832   3.776   1.312  0.00  0.00    +0.003 C 
BRANCH  34  35
ATOM     35  C   UNL     1      -0.592   3.663   1.862  0.00  0.00    -0.012 C 
ATOM     36  C   UNL     1      -1.533   4.529   1.022  0.00  0.00    +0.003 C 
ATOM     37  C   UNL     1      -2.956   4.416   1.572  0.00  0.00    +0.000 C 
ATOM     38  C   UNL     1      -2.981   4.896   3.024  0.00  0.00    +0.000 C 
ATOM     39  C   UNL     1      -2.040   4.031   3.864  0.00  0.00    +0.000 C 
ATOM     40  C   UNL     1      -0.617   4.143   3.314  0.00  0.00    +0.003 C 
ENDBRANCH  34  35
ENDBRANCH   7  34
TORSDOF 8
