REMARK  Name = ZINC39665441
REMARK  12 active torsions:
REMARK  status: ('A' for Active; 'I' for Inactive)
REMARK    1  A    between atoms: C_1  and  C_2
REMARK    2  A    between atoms: C_7  and  N_12
REMARK    3  A    between atoms: C_9  and  C_11
REMARK    4  A    between atoms: C_16  and  C_18
REMARK    5  A    between atoms: C_18  and  S_19
REMARK    6  A    between atoms: S_19  and  C_20
REMARK    7  A    between atoms: C_23  and  C_33
REMARK    8  A    between atoms: N_24  and  C_25
REMARK    9  A    between atoms: C_25  and  C_27
REMARK   10  A    between atoms: C_25  and  C_30
REMARK   11  A    between atoms: C_27  and  C_28
REMARK   12  A    between atoms: C_27  and  C_29
REMARK                            x       y       z     vdW  Elec       q    Type
REMARK                         _______ _______ _______ _____ _____    ______ ____
ROOT
ATOM      1  S   UNL     1       4.694  -7.552   4.375  0.00  0.00    -0.077 S 
ENDROOT
BRANCH   1   2
ATOM      2  C   UNL     1       5.505  -7.990   5.876  0.00  0.00    +0.193 A 
ATOM      3  N   UNL     1       5.576  -7.259   6.965  0.00  0.00    -0.122 NA
ATOM      4  N   UNL     1       6.242  -7.880   7.872  0.00  0.00    -0.128 NA
ATOM      5  C   UNL     1       6.638  -9.049   7.418  0.00  0.00    +0.172 A 
ATOM      6  N   UNL     1       6.173  -9.157   6.126  0.00  0.00    -0.287 N 
BRANCH   5   7
ATOM      7  C   UNL     1       7.424 -10.053   8.153  0.00  0.00    +0.056 A 
ATOM      8  C   UNL     1       7.669 -10.143   9.500  0.00  0.00    +0.019 A 
ATOM      9  C   UNL     1       8.442 -11.184   9.963  0.00  0.00    +0.008 A 
ATOM     10  C   UNL     1       8.937 -12.086   9.076  0.00  0.00    +0.046 A 
ATOM     11  S   UNL     1       8.301 -11.476   7.524  0.00  0.00    -0.094 S 
ENDBRANCH   5   7
BRANCH   6  12
ATOM     12  C   UNL     1       6.356 -10.286   5.211  0.00  0.00    +0.206 C 
BRANCH  12  13
ATOM     13  C   UNL     1       4.990 -10.842   4.806  0.00  0.00    +0.017 C 
ATOM     14  C   UNL     1       5.182 -12.021   3.850  0.00  0.00    +0.010 C 
ATOM     15  C   UNL     1       4.241 -11.314   6.054  0.00  0.00    +0.010 C 
ENDBRANCH  12  13
BRANCH  12  16
ATOM     16  C   UNL     1       7.094  -9.821   3.982  0.00  0.00    +0.379 C 
ATOM     17  O   UNL     1       8.210  -9.341   4.085  0.00  0.00    -0.244 OA
ATOM     18  O   UNL     1       6.575  -9.925   2.884  0.00  0.00    -0.244 OA
ENDBRANCH  12  16
ENDBRANCH   6  12
ENDBRANCH   1   2
BRANCH   1  19
ATOM     19  C   UNL     1       4.022  -5.900   4.705  0.00  0.00    +0.173 C 
BRANCH  19  24
ATOM     20  N   UNL     1       1.471  -2.526   2.420  0.00  0.00    -0.296 N 
ATOM     21  C   UNL     1       2.056  -3.740   2.406  0.00  0.00    +0.306 C 
ATOM     22  O   UNL     1       1.996  -4.432   1.409  0.00  0.00    -0.252 OA
ATOM     23  N   UNL     1       2.708  -4.187   3.498  0.00  0.00    -0.239 N 
ATOM     24  C   UNL     1       3.293  -5.401   3.484  0.00  0.00    +0.231 C 
ATOM     25  O   UNL     1       3.233  -6.091   2.489  0.00  0.00    -0.274 OA
ATOM     26  H   UNL     1       1.520  -1.974   3.216  0.00  0.00    +0.151 HD
ATOM     27  H   UNL     1       2.756  -3.634   4.294  0.00  0.00    +0.159 HD
BRANCH  20  33
ATOM     28  C   UNL     1      -0.019   1.526   0.010  0.00  0.00    +0.008 C 
ATOM     29  C   UNL     1       0.002  -0.004   0.002  0.00  0.00    -0.009 C 
ATOM     30  C   UNL     1      -1.433  -0.534   0.013  0.00  0.00    +0.003 C 
ATOM     31  C   UNL     1      -1.413  -2.063   0.004  0.00  0.00    +0.002 C 
ATOM     32  C   UNL     1      -0.673  -2.570   1.244  0.00  0.00    +0.022 C 
ATOM     33  C   UNL     1       0.763  -2.041   1.233  0.00  0.00    +0.078 C 
ATOM     34  C   UNL     1       0.742  -0.511   1.242  0.00  0.00    +0.009 C 
ATOM     35  C   UNL     1       0.026  -0.018   2.500  0.00  0.00    +0.009 C 
ENDBRANCH  20  33
ENDBRANCH  19  24
ENDBRANCH   1  19
TORSDOF 8
