REMARK  Name = ZINC21723407
REMARK  3 active torsions:
REMARK  status: ('A' for Active; 'I' for Inactive)
REMARK    1  A    between atoms: C_6  and  C_7
REMARK    2  A    between atoms: C_8  and  C_13
REMARK    3  A    between atoms: CA_16  and  C_23
REMARK                            x       y       z     vdW  Elec       q    Type
REMARK                         _______ _______ _______ _____ _____    ______ ____
ROOT
ATOM      1  C   UNL     1      -1.268  -0.764   0.011  0.00  0.00    +0.071 A 
ATOM      2  C   UNL     1      -1.571  -1.843  -0.770  0.00  0.00    +0.022 A 
ATOM      3  C   UNL     1      -2.864  -2.256  -0.447  0.00  0.00    +0.140 A 
ATOM      4  N   UNL     1      -3.332  -1.468   0.487  0.00  0.00    -0.181 NA
ATOM      5  H   UNL     1      -2.426   0.184   1.466  0.00  0.00    +0.189 HD
ATOM      6  N   UNL     1      -2.349  -0.520   0.803  0.00  0.00    -0.277 N 
ENDROOT
BRANCH   2   7
ATOM      7  C   UNL     1      -0.669  -2.475  -1.799  0.00  0.00    +0.150 C 
ATOM      8  C   UNL     1      -0.423  -3.946  -1.440  0.00  0.00    +0.095 C 
ATOM      9  CA  UNL     1       0.086  -4.713  -2.628  0.00  0.00    +0.135 C 
ATOM     10  N   UNL     1      -0.284  -4.447  -3.849  0.00  0.00    -0.209 NA
ATOM     11  C   UNL     1      -1.102  -3.394  -4.068  0.00  0.00    +0.250 A 
ATOM     12  N   UNL     1      -1.311  -2.433  -3.113  0.00  0.00    -0.222 N 
ATOM     13  N   UNL     1      -2.194  -1.511  -3.663  0.00  0.00    -0.156 NA
ATOM     14  C   UNL     1      -2.458  -1.923  -4.885  0.00  0.00    +0.247 A 
ATOM     15  N   UNL     1      -1.796  -3.052  -5.126  0.00  0.00    -0.198 NA
BRANCH   9  16
ATOM     16  C   UNL     1       1.043  -5.810  -2.403  0.00  0.00    +0.401 C 
ATOM     17  O   UNL     1       1.473  -6.450  -3.352  0.00  0.00    -0.239 OA
ATOM     18  OXT UNL     1       1.407  -6.081  -1.267  0.00  0.00    -0.239 OA
ENDBRANCH   9  16
ENDBRANCH   2   7
BRANCH   1  24
ATOM     19  C   UNL     1      -0.017   1.391   0.010  0.00  0.00    +0.013 A 
ATOM     20  C   UNL     1       1.170   2.094   0.002  0.00  0.00    +0.039 A 
ATOM     21  C   UNL     1       2.379   1.418  -0.013  0.00  0.00    +0.123 A 
ATOM     22  C   UNL     1       2.403   0.033  -0.021  0.00  0.00    +0.039 A 
ATOM     23  C   UNL     1       1.222  -0.680  -0.014  0.00  0.00    +0.013 A 
ATOM     24  C   UNL     1       0.002  -0.004   0.002  0.00  0.00    +0.000 A 
ATOM     25  F   UNL     1       3.538   2.112  -0.020  0.00  0.00    -0.205 F 
ENDBRANCH   1  24
TORSDOF 3
