REMARK  Name = ZINC36587990
REMARK  22 active torsions:
REMARK  status: ('A' for Active; 'I' for Inactive)
REMARK    1  A    between atoms: C_1  and  C_2
REMARK    2  A    between atoms: C_2  and  C_4
REMARK    3  A    between atoms: C_2  and  C_34
REMARK    4  A    between atoms: C_4  and  C_5
REMARK    5  A    between atoms: N_7  and  C_8
REMARK    6  A    between atoms: N_7  and  C_30
REMARK    7  A    between atoms: C_8  and  C_10
REMARK    8  A    between atoms: C_8  and  C_19
REMARK    9  A    between atoms: C_11  and  O_18
REMARK   10  A    between atoms: C_13  and  O_17
REMARK   11  A    between atoms: C_15  and  O_16
REMARK   12  A    between atoms: N_21  and  C_22
REMARK   13  A    between atoms: C_22  and  C_23
REMARK   14  A    between atoms: C_22  and  C_24
REMARK   15  A    between atoms: C_22  and  C_25
REMARK   16  A    between atoms: C_25  and  C_26
REMARK   17  A    between atoms: C_26  and  C_27
REMARK   18  A    between atoms: C_26  and  C_28
REMARK   19  A    between atoms: C_26  and  C_29
REMARK   20  A    between atoms: C_30  and  C_31
REMARK   21  A    between atoms: C_30  and  C_32
REMARK   22  A    between atoms: C_30  and  C_33
REMARK                            x       y       z     vdW  Elec       q    Type
REMARK                         _______ _______ _______ _____ _____    ______ ____
ROOT
ATOM      1  C   UNL     1       5.273  -2.611  -0.892  0.00  0.00    +0.200 C 
ENDROOT
BRANCH   1   2
ATOM      2  C   UNL     1       6.521  -2.175  -1.615  0.00  0.00    +0.065 A 
ATOM      3  C   UNL     1       6.537  -0.973  -2.307  0.00  0.00    +0.129 A 
ATOM      4  C   UNL     1       7.686  -0.572  -2.972  0.00  0.00    +0.091 A 
ATOM      5  C   UNL     1       8.817  -1.373  -2.947  0.00  0.00    +0.124 A 
ATOM      6  C   UNL     1       8.801  -2.575  -2.255  0.00  0.00    +0.091 A 
ATOM      7  C   UNL     1       7.654  -2.974  -1.585  0.00  0.00    +0.129 A 
BRANCH   7   8
ATOM      8  O   UNL     1       7.639  -4.149  -0.904  0.00  0.00    -0.506 OA
ATOM      9  H   UNL     1       7.360  -4.908  -1.434  0.00  0.00    +0.292 HD
ENDBRANCH   7   8
BRANCH   5  10
ATOM     10  O   UNL     1       9.943  -0.980  -3.600  0.00  0.00    -0.507 OA
ATOM     11  H   UNL     1      10.546  -0.451  -3.061  0.00  0.00    +0.292 HD
ENDBRANCH   5  10
BRANCH   3  12
ATOM     12  O   UNL     1       5.428  -0.188  -2.332  0.00  0.00    -0.506 OA
ATOM     13  H   UNL     1       5.422   0.506  -1.658  0.00  0.00    +0.292 HD
ENDBRANCH   3  12
ENDBRANCH   1   2
BRANCH   1  14
ATOM     14  C   UNL     1       4.314  -3.234  -1.874  0.00  0.00    +0.239 C 
ATOM     15  O   UNL     1       3.337  -2.617  -2.242  0.00  0.00    -0.273 OA
ATOM     16  N   UNL     1       4.542  -4.477  -2.342  0.00  0.00    -0.308 N 
ATOM     17  H   UNL     1       5.324  -4.970  -2.048  0.00  0.00    +0.149 HD
BRANCH  16  18
ATOM     18  C   UNL     1       3.611  -5.082  -3.297  0.00  0.00    +0.030 C 
ATOM     19  C   UNL     1       2.264  -5.324  -2.612  0.00  0.00    +0.031 C 
ATOM     20  C   UNL     1       3.416  -4.140  -4.487  0.00  0.00    +0.031 C 
BRANCH  18  21
ATOM     21  C   UNL     1       4.179  -6.415  -3.789  0.00  0.00    +0.031 C 
BRANCH  21  22
ATOM     22  C   UNL     1       5.272  -6.151  -4.827  0.00  0.00    -0.036 C 
ATOM     23  C   UNL     1       6.083  -4.922  -4.412  0.00  0.00    +0.010 C 
ATOM     24  C   UNL     1       6.197  -7.367  -4.914  0.00  0.00    +0.010 C 
ATOM     25  C   UNL     1       4.629  -5.901  -6.192  0.00  0.00    +0.010 C 
ENDBRANCH  21  22
ENDBRANCH  18  21
ENDBRANCH  16  18
ENDBRANCH   1  14
BRANCH   1  28
ATOM     26  C   UNL     1       5.403  -0.492   0.304  0.00  0.00    +0.217 C 
ATOM     27  O   UNL     1       6.608  -0.622   0.344  0.00  0.00    -0.276 OA
ATOM     28  N   UNL     1       4.641  -1.448  -0.264  0.00  0.00    -0.281 N 
BRANCH  28  29
ATOM     29  C   UNL     1       3.181  -1.324  -0.253  0.00  0.00    +0.030 C 
ATOM     30  C   UNL     1       2.748  -0.506   0.965  0.00  0.00    +0.031 C 
ATOM     31  C   UNL     1       2.720  -0.620  -1.530  0.00  0.00    +0.031 C 
ATOM     32  C   UNL     1       2.552  -2.717  -0.181  0.00  0.00    +0.031 C 
ENDBRANCH  28  29
BRANCH  26  33
ATOM     33  C   UNL     1       4.757   0.737   0.890  0.00  0.00    +0.104 C 
BRANCH  33  35
ATOM     34  C   UNL     1       6.858   2.071   0.677  0.00  0.00    +0.013 C 
ATOM     35  C   UNL     1       5.805   1.548   1.655  0.00  0.00    +0.025 C 
BRANCH  35  36
ATOM     36  C   UNL     1       5.136   2.711   2.342  0.00  0.00    -0.044 A 
ATOM     37  C   UNL     1       4.454   3.655   1.597  0.00  0.00    +0.004 A 
ATOM     38  C   UNL     1       3.841   4.721   2.228  0.00  0.00    +0.000 A 
ATOM     39  C   UNL     1       3.909   4.843   3.603  0.00  0.00    +0.000 A 
ATOM     40  C   UNL     1       4.590   3.899   4.348  0.00  0.00    +0.000 A 
ATOM     41  C   UNL     1       5.200   2.830   3.718  0.00  0.00    +0.004 A 
ENDBRANCH  35  36
ENDBRANCH  33  35
ENDBRANCH  26  33
ENDBRANCH   1  28
TORSDOF 13
