REMARK  Name = ZINC59249164
REMARK  8 active torsions:
REMARK  status: ('A' for Active; 'I' for Inactive)
REMARK    1  A    between atoms: C_1  and  C_2
REMARK    2  A    between atoms: C_5  and  N_8
REMARK    3  A    between atoms: C_9  and  C_11
REMARK    4  A    between atoms: C_15  and  N_16
REMARK    5  A    between atoms: C_17  and  C_31
REMARK    6  A    between atoms: C_19  and  C_22
REMARK    7  A    between atoms: C_20  and  C_21
REMARK    8  A    between atoms: N_26  and  C_30
REMARK                            x       y       z     vdW  Elec       q    Type
REMARK                         _______ _______ _______ _____ _____    ______ ____
ROOT
ATOM      1  C   UNL     1       0.349  -6.408   0.585  0.00  0.00    +0.072 A 
ATOM      2  C   UNL     1       1.666  -6.983   0.789  0.00  0.00    -0.023 A 
ATOM      3  C   UNL     1       1.658  -8.159   1.456  0.00  0.00    -0.004 A 
ATOM      4  S   UNL     1      -0.050  -8.472   1.791  0.00  0.00    -0.075 S 
ATOM      5  C   UNL     1      -0.735  -7.109   1.088  0.00  0.00    +0.097 A 
ATOM      6  C   UNL     1       2.846  -8.995   1.818  0.00  0.00    +0.043 C 
ATOM      7  C   UNL     1       4.047  -8.510   0.993  0.00  0.00    +0.005 C 
ATOM      8  C   UNL     1       4.128  -6.984   1.085  0.00  0.00    +0.005 C 
ATOM      9  C   UNL     1       2.966  -6.353   0.314  0.00  0.00    +0.037 C 
ENDROOT
BRANCH   5  10
ATOM     10  N   UNL     1      -2.080  -6.764   1.025  0.00  0.00    -0.311 N 
ATOM     11  C   UNL     1      -2.967  -7.240   0.100  0.00  0.00    +0.022 A 
ATOM     12  C   UNL     1      -4.176  -6.701   0.330  0.00  0.00    +0.031 A 
ATOM     13  C   UNL     1      -4.028  -5.818   1.494  0.00  0.00    -0.003 A 
ATOM     14  C   UNL     1      -2.704  -5.910   1.877  0.00  0.00    +0.029 A 
ATOM     15  C   UNL     1      -2.065  -5.188   3.034  0.00  0.00    +0.064 C 
ATOM     16  C   UNL     1      -2.641  -8.214  -1.003  0.00  0.00    +0.064 C 
BRANCH  13  17
ATOM     17  C   UNL     1      -5.074  -5.007   2.125  0.00  0.00    +0.030 C 
ATOM     18  C   UNL     1      -6.351  -5.470   2.183  0.00  0.00    +0.080 C 
ATOM     19  C   UNL     1      -6.895  -6.777   1.773  0.00  0.00    +0.260 C 
ATOM     20  O   UNL     1      -6.184  -7.645   1.302  0.00  0.00    -0.269 OA
ATOM     21  N   UNL     1      -8.194  -6.960   1.944  0.00  0.00    -0.231 N 
ATOM     22  C   UNL     1      -8.978  -5.995   2.467  0.00  0.00    +0.286 C 
ATOM     23  O   UNL     1     -10.175  -6.026   2.679  0.00  0.00    -0.262 OA
ATOM     24  S   UNL     1      -7.830  -4.664   2.782  0.00  0.00    -0.026 S 
ATOM     25  C   UNL     1      -8.794  -8.238   1.556  0.00  0.00    +0.142 C 
ENDBRANCH  13  17
ENDBRANCH   5  10
BRANCH   1  27
ATOM     26  N   UNL     1      -0.066  -5.126  -1.448  0.00  0.00    -0.281 N 
ATOM     27  C   UNL     1       0.173  -5.134  -0.121  0.00  0.00    +0.251 C 
ATOM     28  O   UNL     1       0.243  -4.084   0.491  0.00  0.00    -0.270 OA
ATOM     29  H   UNL     1      -0.157  -5.963  -1.929  0.00  0.00    +0.155 HD
BRANCH  26  34
ATOM     30  C   UNL     1      -0.545  -0.196  -4.214  0.00  0.00    +0.044 C 
ATOM     31  C   UNL     1      -0.418  -1.506  -3.479  0.00  0.00    -0.050 A 
ATOM     32  C   UNL     1       0.190  -2.586  -4.093  0.00  0.00    +0.005 A 
ATOM     33  C   UNL     1       0.308  -3.787  -3.422  0.00  0.00    +0.023 A 
ATOM     34  C   UNL     1      -0.184  -3.910  -2.129  0.00  0.00    +0.034 A 
ATOM     35  C   UNL     1      -0.793  -2.824  -1.515  0.00  0.00    +0.023 A 
ATOM     36  C   UNL     1      -0.904  -1.624  -2.190  0.00  0.00    +0.005 A 
ENDBRANCH  26  34
ENDBRANCH   1  27
TORSDOF 4
