REMARK  Name = ZINC01446072
REMARK  6 active torsions:
REMARK  status: ('A' for Active; 'I' for Inactive)
REMARK    1  A    between atoms: C_1  and  C_2
REMARK    2  A    between atoms: C_2  and  O_3
REMARK    3  A    between atoms: O_3  and  C_4
REMARK    4  A    between atoms: N_10  and  N_14
REMARK    5  A    between atoms: N_15  and  C_16
REMARK    6  A    between atoms: N_15  and  C_22
REMARK                            x       y       z     vdW  Elec       q    Type
REMARK                         _______ _______ _______ _____ _____    ______ ____
ROOT
ATOM      1  C   UNL     1      -0.442   1.412   2.476  0.00  0.00    +0.324 A 
ATOM      2  N   UNL     1      -0.819   1.670   3.723  0.00  0.00    -0.160 NA
ATOM      3  C   UNL     1      -0.087   1.232   4.743  0.00  0.00    +0.234 A 
ATOM      4  N   UNL     1       1.029   0.546   4.513  0.00  0.00    -0.179 NA
ATOM      5  C   UNL     1       1.407   0.294   3.265  0.00  0.00    +0.247 A 
ATOM      6  N   UNL     1       0.671   0.727   2.247  0.00  0.00    -0.160 NA
ATOM      7  N   UNL     1       2.570  -0.421   3.025  0.00  0.00    -0.157 N 
ATOM      8  C   UNL     1       2.954  -0.677   1.759  0.00  0.00    +0.320 C 
ATOM      9  O   UNL     1       2.231  -0.371   0.831  0.00  0.00    -0.251 OA
ATOM     10  N   UNL     1       4.140  -1.271   1.522  0.00  0.00    -0.312 N 
ATOM     11  N   UNL     1      -0.482   1.496   6.042  0.00  0.00    -0.238 N 
ATOM     12  H   UNL     1       4.683  -1.584   2.263  0.00  0.00    +0.147 HD
ATOM     13  H   UNL     1       4.452  -1.386   0.610  0.00  0.00    +0.147 HD
ENDROOT
BRANCH  11  14
ATOM     14  C   UNL     1      -1.587   2.320   6.284  0.00  0.00    +0.042 A 
ATOM     15  C   UNL     1      -2.663   1.842   7.020  0.00  0.00    +0.024 A 
ATOM     16  C   UNL     1      -3.750   2.659   7.261  0.00  0.00    +0.002 A 
ATOM     17  C   UNL     1      -3.772   3.949   6.761  0.00  0.00    +0.000 A 
ATOM     18  C   UNL     1      -2.704   4.425   6.022  0.00  0.00    +0.002 A 
ATOM     19  C   UNL     1      -1.612   3.615   5.783  0.00  0.00    +0.024 A 
ENDBRANCH  11  14
BRANCH  11  20
ATOM     20  C   UNL     1       0.224   0.939   7.114  0.00  0.00    +0.042 A 
ATOM     21  C   UNL     1       0.368  -0.439   7.212  0.00  0.00    +0.024 A 
ATOM     22  C   UNL     1       1.068  -0.985   8.269  0.00  0.00    +0.002 A 
ATOM     23  C   UNL     1       1.618  -0.163   9.235  0.00  0.00    +0.000 A 
ATOM     24  C   UNL     1       1.472   1.210   9.144  0.00  0.00    +0.002 A 
ATOM     25  C   UNL     1       0.776   1.763   8.087  0.00  0.00    +0.024 A 
ENDBRANCH  11  20
BRANCH   7  26
ATOM     26  N   UNL     1       3.326  -0.867   4.072  0.00  0.00    -0.243 NA
ATOM     27  H   UNL     1       4.179  -1.294   3.745  0.00  0.00    +0.141 HD
ATOM     28  H   UNL     1       3.521  -0.119   4.721  0.00  0.00    +0.141 HD
ENDBRANCH   7  26
BRANCH   1  29
ATOM     29  O   UNL     1      -1.191   1.853   1.439  0.00  0.00    -0.463 OA
BRANCH  29  31
ATOM     30  C   UNL     1      -1.693   2.121  -0.910  0.00  0.00    +0.048 C 
ATOM     31  C   UNL     1      -0.723   1.545   0.124  0.00  0.00    +0.229 C 
ENDBRANCH  29  31
ENDBRANCH   1  29
TORSDOF 5
