REMARK  Name = ZINC44265991
REMARK  5 active torsions:
REMARK  status: ('A' for Active; 'I' for Inactive)
REMARK    1  A    between atoms: C_4  and  C_8
REMARK    2  A    between atoms: C_8  and  C_9
REMARK    3  A    between atoms: C_11  and  C_14
REMARK    4  A    between atoms: C_14  and  N_15
REMARK    5  A    between atoms: N_15  and  C_16
REMARK                            x       y       z     vdW  Elec       q    Type
REMARK                         _______ _______ _______ _____ _____    ______ ____
ROOT
ATOM      1  C   UNL     1       4.166  -0.960   1.376  0.00  0.00    +0.176 A 
ATOM      2  N   UNL     1       4.927  -0.138   2.108  0.00  0.00    -0.197 NA
ATOM      3  C   UNL     1       5.136  -0.653   3.288  0.00  0.00    +0.210 A 
ATOM      4  O   UNL     1       4.508  -1.834   3.347  0.00  0.00    -0.340 OA
ATOM      5  N   UNL     1       3.876  -2.011   2.088  0.00  0.00    -0.061 NA
ENDROOT
BRANCH   1   6
ATOM      6  C   UNL     1       3.713  -0.707  -0.038  0.00  0.00    +0.117 C 
BRANCH   6  10
ATOM      7  C   UNL     1      -0.017   1.378   0.010  0.00  0.00    +0.003 A 
ATOM      8  C   UNL     1       1.171   2.086   0.002  0.00  0.00    +0.020 A 
ATOM      9  C   UNL     1       2.378   1.411  -0.013  0.00  0.00    +0.046 A 
ATOM     10  C   UNL     1       2.398   0.028  -0.021  0.00  0.00    -0.003 A 
ATOM     11  C   UNL     1       1.209  -0.680  -0.013  0.00  0.00    +0.046 A 
ATOM     12  C   UNL     1       0.002  -0.004   0.002  0.00  0.00    +0.020 A 
ATOM     13 CL   UNL     1       1.233  -2.416  -0.023  0.00  0.00    -0.083 Cl
ATOM     14 CL   UNL     1       3.869   2.300  -0.024  0.00  0.00    -0.083 Cl
ENDBRANCH   6  10
ENDBRANCH   1   6
BRANCH   3  15
ATOM     15  C   UNL     1       5.946  -0.027   4.394  0.00  0.00    +0.018 C 
BRANCH  15  16
ATOM     16  N   UNL     1       5.070   0.805   5.230  0.00  0.00    +0.387 N 
ATOM     17  H   UNL     1       4.655   1.531   4.665  0.00  0.00    -0.085 HD
ATOM     18  H   UNL     1       4.342   0.232   5.629  0.00  0.00    -0.085 HD
BRANCH  16  19
ATOM     19  C   UNL     1       5.859   1.416   6.308  0.00  0.00    -0.071 C 
ATOM     20  C   UNL     1       6.814   2.495   5.738  0.00  0.00    -0.016 C 
ATOM     21  C   UNL     1       7.075   3.403   6.965  0.00  0.00    -0.002 C 
ATOM     22  C   UNL     1       5.715   3.458   7.692  0.00  0.00    -0.002 C 
ATOM     23  C   UNL     1       4.942   2.195   7.274  0.00  0.00    -0.016 C 
ENDBRANCH  16  19
ENDBRANCH  15  16
ENDBRANCH   3  15
TORSDOF 5
