REMARK  Name = ZINC06623489
REMARK  4 active torsions:
REMARK  status: ('A' for Active; 'I' for Inactive)
REMARK    1  A    between atoms: C_4  and  S_8
REMARK    2  A    between atoms: S_8  and  N_11
REMARK    3  A    between atoms: N_11  and  C_12
REMARK    4  A    between atoms: C_21  and  O_22
REMARK                            x       y       z     vdW  Elec       q    Type
REMARK                         _______ _______ _______ _____ _____    ______ ____
ROOT
ATOM      1  N   UNL     1      -2.510   3.781   0.045  0.00  0.00    -0.216 N 
ATOM      2  H   UNL     1      -2.765   4.345  -0.702  0.00  0.00    +0.174 HD
ENDROOT
BRANCH   1   3
ATOM      3  C   UNL     1      -1.251   3.183   0.069  0.00  0.00    +0.056 A 
ATOM      4  C   UNL     1      -1.132   1.812  -0.007  0.00  0.00    +0.025 A 
ATOM      5  C   UNL     1       0.120   1.205   0.021  0.00  0.00    +0.003 A 
ATOM      6  C   UNL     1       1.259   1.946   0.114  0.00  0.00    +0.012 A 
ATOM      7  C   UNL     1       1.180   3.346   0.188  0.00  0.00    +0.025 A 
ATOM      8  C   UNL     1      -0.088   3.976   0.166  0.00  0.00    +0.008 A 
ATOM      9  C   UNL     1      -0.165   5.376   0.240  0.00  0.00    +0.010 A 
ATOM     10  C   UNL     1       0.977   6.112   0.332  0.00  0.00    +0.004 A 
ATOM     11  C   UNL     1       2.227   5.498   0.355  0.00  0.00    +0.046 A 
ATOM     12  C   UNL     1       2.342   4.139   0.285  0.00  0.00    +0.125 A 
BRANCH  12  13
ATOM     13  O   UNL     1       3.568   3.555   0.307  0.00  0.00    -0.506 OA
ATOM     14  H   UNL     1       3.963   3.435  -0.567  0.00  0.00    +0.292 HD
ENDBRANCH  12  13
ENDBRANCH   1   3
BRANCH   1  15
ATOM     15  S   UNL     1      -3.570   3.530   1.293  0.00  0.00    +0.075 S 
ATOM     16  O   UNL     1      -4.748   4.261   0.978  0.00  0.00    -0.150 OA
ATOM     17  O   UNL     1      -3.585   2.131   1.538  0.00  0.00    -0.150 OA
BRANCH  15  21
ATOM     18  C   UNL     1      -1.789   5.471   4.976  0.00  0.00    +0.003 A 
ATOM     19  C   UNL     1      -2.968   5.954   4.440  0.00  0.00    +0.002 A 
ATOM     20  C   UNL     1      -3.509   5.365   3.312  0.00  0.00    +0.032 A 
ATOM     21  C   UNL     1      -2.877   4.285   2.726  0.00  0.00    +0.143 A 
ATOM     22  C   UNL     1      -1.696   3.800   3.261  0.00  0.00    +0.150 A 
ATOM     23  C   UNL     1      -1.152   4.395   4.388  0.00  0.00    +0.040 A 
ATOM     24  F   UNL     1      -1.074   2.748   2.685  0.00  0.00    -0.203 F 
ENDBRANCH  15  21
ENDBRANCH   1  15
TORSDOF 4
