REMARK  Name = ZINC43287240
REMARK  8 active torsions:
REMARK  status: ('A' for Active; 'I' for Inactive)
REMARK    1  A    between atoms: C_1  and  C_2
REMARK    2  A    between atoms: C_2  and  C_3
REMARK    3  A    between atoms: C_3  and  C_5
REMARK    4  A    between atoms: C_3  and  N_25
REMARK    5  A    between atoms: C_5  and  C_7
REMARK    6  A    between atoms: C_5  and  N_13
REMARK    7  A    between atoms: C_15  and  C_22
REMARK    8  A    between atoms: C_19  and  C_21
REMARK                            x       y       z     vdW  Elec       q    Type
REMARK                         _______ _______ _______ _____ _____    ______ ____
ROOT
ATOM      1  C   UNL     1      -1.001  -1.868   0.327  0.00  0.00    +0.079 C 
ENDROOT
BRANCH   1   2
ATOM      2  N   UNL     1      -0.321  -2.716   1.316  0.00  0.00    -0.293 NA
ATOM      3  C   UNL     1      -0.953  -2.597   2.635  0.00  0.00    +0.098 C 
ATOM      4  C   UNL     1      -0.134  -3.376   3.667  0.00  0.00    +0.089 C 
ATOM      5  C   UNL     1      -0.060  -4.846   3.247  0.00  0.00    +0.015 C 
ATOM      6  C   UNL     1       0.558  -4.939   1.849  0.00  0.00    +0.019 C 
ATOM      7  C   UNL     1      -0.281  -4.115   0.870  0.00  0.00    +0.054 C 
ATOM      8  C   UNL     1       0.344  -4.188  -0.524  0.00  0.00    +0.024 C 
BRANCH   4   9
ATOM      9  C   UNL     1       1.257  -2.802   3.742  0.00  0.00    +0.215 C 
ATOM     10  O   UNL     1       1.564  -1.862   3.040  0.00  0.00    -0.276 OA
ATOM     11  N   UNL     1       2.160  -3.333   4.590  0.00  0.00    -0.329 N 
ATOM     12  H   UNL     1       1.915  -4.085   5.152  0.00  0.00    +0.145 HD
ATOM     13  H   UNL     1       3.056  -2.963   4.638  0.00  0.00    +0.145 HD
ENDBRANCH   4   9
ENDBRANCH   1   2
BRANCH   1  14
ATOM     14  C   UNL     1      -2.388  -2.402   0.077  0.00  0.00    +0.006 A 
ATOM     15  C   UNL     1      -3.010  -2.643  -1.102  0.00  0.00    +0.028 A 
ATOM     16  C   UNL     1      -4.301  -3.140  -1.091  0.00  0.00    +0.025 A 
ATOM     17  C   UNL     1      -4.905  -3.371   0.101  0.00  0.00    +0.060 A 
ATOM     18  S   UNL     1      -3.635  -2.889   1.259  0.00  0.00    -0.099 S 
ATOM     19 BR   UNL     1      -5.209  -3.491  -2.712  0.00  0.00    -0.050 Br
ENDBRANCH   1  14
BRANCH   1  20
ATOM     20  C   UNL     1      -1.094  -0.437   0.861  0.00  0.00    -0.053 C 
BRANCH  20  21
ATOM     21  N   UNL     1      -1.775   0.410  -0.128  0.00  0.00    +0.381 N 
ATOM     22  H   UNL     1      -2.703   0.053  -0.295  0.00  0.00    -0.090 HD
ATOM     23  H   UNL     1      -1.836   1.354   0.224  0.00  0.00    -0.090 HD
ATOM     24  H   UNL     1      -1.252   0.406  -0.991  0.00  0.00    -0.090 HD
ENDBRANCH  20  21
BRANCH  20  26
ATOM     25  C   UNL     1       0.219   1.487   1.763  0.00  0.00    +0.002 C 
ATOM     26  C   UNL     1       0.314   0.105   1.114  0.00  0.00    -0.018 C 
ENDBRANCH  20  26
ENDBRANCH   1  20
TORSDOF 6
