REMARK  Name = ZINC21605378
REMARK  8 active torsions:
REMARK  status: ('A' for Active; 'I' for Inactive)
REMARK    1  A    between atoms: C_1  and  C_2
REMARK    2  A    between atoms: C_2  and  C_4
REMARK    3  A    between atoms: C_2  and  O_18
REMARK    4  A    between atoms: N_6  and  C_7
REMARK    5  A    between atoms: C_8  and  C_15
REMARK    6  A    between atoms: O_18  and  C_19
REMARK    7  A    between atoms: C_19  and  C_21
REMARK    8  A    between atoms: C_24  and  C_26
REMARK                            x       y       z     vdW  Elec       q    Type
REMARK                         _______ _______ _______ _____ _____    ______ ____
ROOT
ATOM      1  C   UNL     1      -7.446  -6.389   1.450  0.00  0.00    +0.062 C 
ATOM      2  C   UNL     1      -7.113  -6.002   0.008  0.00  0.00    +0.259 C 
ENDROOT
BRANCH   2   3
ATOM      3  C   UNL     1      -6.540  -7.194  -0.713  0.00  0.00    +0.258 C 
ATOM      4  O   UNL     1      -5.391  -7.174  -1.100  0.00  0.00    -0.271 OA
ATOM      5  N   UNL     1      -7.303  -8.284  -0.926  0.00  0.00    -0.276 N 
ATOM      6  H   UNL     1      -8.345  -8.303  -0.575  0.00  0.00    +0.155 HD
BRANCH   5   7
ATOM      7  C   UNL     1      -6.775  -9.382  -1.589  0.00  0.00    +0.084 A 
ATOM      8  C   UNL     1      -7.394 -10.582  -1.895  0.00  0.00    +0.068 A 
ATOM      9  C   UNL     1      -6.609 -11.585  -2.612  0.00  0.00    -0.023 A 
ATOM     10  C   UNL     1      -5.343 -11.226  -2.893  0.00  0.00    -0.004 A 
ATOM     11  S   UNL     1      -5.181  -9.587  -2.229  0.00  0.00    -0.077 S 
ATOM     12  C   UNL     1      -4.599 -12.309  -3.627  0.00  0.00    +0.043 C 
ATOM     13  C   UNL     1      -5.704 -13.248  -4.159  0.00  0.00    +0.010 C 
ATOM     14  C   UNL     1      -6.842 -12.998  -3.149  0.00  0.00    +0.037 C 
BRANCH   8  15
ATOM     15  C   UNL     1      -8.788 -10.835  -1.517  0.00  0.00    +0.244 C 
ATOM     16  O   UNL     1      -9.689 -10.541  -2.280  0.00  0.00    -0.270 OA
ATOM     17  N   UNL     1      -9.071 -11.396  -0.324  0.00  0.00    -0.325 N 
ATOM     18  H   UNL     1     -10.117 -11.586  -0.040  0.00  0.00    +0.145 HD
ATOM     19  H   UNL     1      -8.257 -11.662   0.366  0.00  0.00    +0.145 HD
ENDBRANCH   8  15
ENDBRANCH   5   7
ENDBRANCH   2   3
BRANCH   2  20
ATOM     20  O   UNL     1      -6.157  -4.940   0.008  0.00  0.00    -0.448 OA
BRANCH  20  21
ATOM     21  C   UNL     1      -6.640  -3.680   0.019  0.00  0.00    +0.347 C 
ATOM     22  O   UNL     1      -7.841  -3.490   0.027  0.00  0.00    -0.244 OA
BRANCH  21  23
ATOM     23  C   UNL     1      -5.719  -2.544   0.020  0.00  0.00    +0.097 A 
ATOM     24  C   UNL     1      -6.009  -1.186   0.029  0.00  0.00    +0.023 A 
ATOM     25  C   UNL     1      -4.975  -0.295   0.035  0.00  0.00    +0.017 A 
ATOM     26  C   UNL     1      -3.676  -0.780   0.019  0.00  0.00    +0.020 A 
ATOM     27  S   UNL     1      -3.934  -2.547   0.009  0.00  0.00    -0.082 S 
BRANCH  26  28
ATOM     28  C   UNL     1      -2.405  -0.028   0.016  0.00  0.00    -0.008 A 
ATOM     29  C   UNL     1      -2.417   1.368   0.025  0.00  0.00    +0.013 A 
ATOM     30  C   UNL     1      -1.228   2.067   0.019  0.00  0.00    +0.050 A 
ATOM     31  C   UNL     1      -0.017   1.387   0.010  0.00  0.00    +0.162 A 
ATOM     32  C   UNL     1       0.002  -0.004   0.002  0.00  0.00    +0.163 A 
ATOM     33  C   UNL     1      -1.187  -0.712   0.004  0.00  0.00    +0.058 A 
ATOM     34  O   UNL     1       1.181  -0.685  -0.006  0.00  0.00    -0.485 OA
ATOM     35  C   UNL     1       2.347   0.054  -0.387  0.00  0.00    +0.270 C 
ATOM     36  C   UNL     1       2.334   1.392   0.365  0.00  0.00    +0.270 C 
ATOM     37  O   UNL     1       1.144   2.099   0.002  0.00  0.00    -0.485 OA
ENDBRANCH  26  28
ENDBRANCH  21  23
ENDBRANCH  20  21
ENDBRANCH   2  20
TORSDOF 7
