REMARK  Name = ZINC35845899
REMARK  7 active torsions:
REMARK  status: ('A' for Active; 'I' for Inactive)
REMARK    1  A    between atoms: C_1  and  C_2
REMARK    2  A    between atoms: C_2  and  O_3
REMARK    3  A    between atoms: O_3  and  C_4
REMARK    4  A    between atoms: C_4  and  C_6
REMARK    5  A    between atoms: C_12  and  C_14
REMARK    6  A    between atoms: C_14  and  N_15
REMARK    7  A    between atoms: C_23  and  C_25
REMARK                            x       y       z     vdW  Elec       q    Type
REMARK                         _______ _______ _______ _____ _____    ______ ____
ROOT
ATOM      1  N   UNL     1       0.722  -6.840  -6.968  0.00  0.00    +0.395 N 
ATOM      2  C   UNL     1      -0.718  -6.566  -7.059  0.00  0.00    -0.055 C 
ATOM      3  C   UNL     1      -1.238  -6.962  -8.447  0.00  0.00    +0.103 C 
ATOM      4  N   UNL     1      -0.793  -8.333  -8.724  0.00  0.00    -0.353 N 
ATOM      5  C   UNL     1      -1.253  -9.190  -9.669  0.00  0.00    +0.086 A 
ATOM      6  C   UNL     1      -0.562 -10.346  -9.561  0.00  0.00    +0.019 A 
ATOM      7  C   UNL     1       0.362 -10.191  -8.506  0.00  0.00    +0.021 A 
ATOM      8  C   UNL     1       0.202  -8.954  -8.014  0.00  0.00    +0.009 A 
ATOM      9  C   UNL     1       0.952  -8.292  -6.884  0.00  0.00    +0.011 C 
ATOM     10  H   UNL     1       1.183  -6.474  -7.788  0.00  0.00    -0.080 HD
ENDROOT
BRANCH   9  11
ATOM     11  C   UNL     1       2.425  -8.582  -7.013  0.00  0.00    -0.054 A 
ATOM     12  C   UNL     1       3.193  -7.870  -7.916  0.00  0.00    +0.004 A 
ATOM     13  C   UNL     1       4.544  -8.135  -8.036  0.00  0.00    +0.021 A 
ATOM     14  C   UNL     1       5.129  -9.113  -7.251  0.00  0.00    +0.059 A 
ATOM     15  C   UNL     1       4.361  -9.825  -6.347  0.00  0.00    +0.059 A 
ATOM     16  C   UNL     1       3.009  -9.555  -6.225  0.00  0.00    +0.023 A 
ATOM     17 CL   UNL     1       5.093 -11.053  -5.362  0.00  0.00    -0.082 Cl
ATOM     18 CL   UNL     1       6.826  -9.446  -7.402  0.00  0.00    -0.082 Cl
ENDBRANCH   9  11
BRANCH   1  19
ATOM     19  C   UNL     1       1.268  -6.189  -5.770  0.00  0.00    +0.020 C 
BRANCH  19  26
ATOM     20  C   UNL     1       1.468  -2.353  -2.550  0.00  0.00    +0.101 C 
ATOM     21  C   UNL     1       0.742  -1.883  -3.812  0.00  0.00    +0.033 C 
ATOM     22  C   UNL     1       1.469  -2.426  -5.047  0.00  0.00    +0.108 C 
ATOM     23  N   UNL     1       1.583  -3.885  -4.925  0.00  0.00    -0.303 N 
ATOM     24  C   UNL     1       2.184  -4.448  -3.708  0.00  0.00    +0.108 C 
ATOM     25  C   UNL     1       1.449  -3.882  -2.488  0.00  0.00    +0.033 C 
ATOM     26  C   UNL     1       1.144  -4.693  -5.910  0.00  0.00    +0.199 C 
ATOM     27  O   UNL     1       0.649  -4.217  -6.910  0.00  0.00    -0.278 OA
BRANCH  20  28
ATOM     28  C   UNL     1       0.775  -1.794  -1.334  0.00  0.00    +0.310 C 
ATOM     29  O   UNL     1       0.314  -2.540  -0.504  0.00  0.00    -0.251 OA
BRANCH  28  30
ATOM     30  O   UNL     1       0.671  -0.465  -1.174  0.00  0.00    -0.465 OA
BRANCH  30  32
ATOM     31  C   UNL     1      -0.019   1.526   0.010  0.00  0.00    +0.048 C 
ATOM     32  C   UNL     1       0.002  -0.004   0.002  0.00  0.00    +0.229 C 
ENDBRANCH  30  32
ENDBRANCH  28  30
ENDBRANCH  20  28
ENDBRANCH  19  26
ENDBRANCH   1  19
TORSDOF 6
