REMARK  Name = ZINC47962405
REMARK  5 active torsions:
REMARK  status: ('A' for Active; 'I' for Inactive)
REMARK    1  A    between atoms: C_1  and  C_2
REMARK    2  A    between atoms: C_7  and  N_25
REMARK    3  A    between atoms: C_12  and  C_14
REMARK    4  A    between atoms: N_16  and  C_17
REMARK    5  A    between atoms: C_17  and  C_18
REMARK                            x       y       z     vdW  Elec       q    Type
REMARK                         _______ _______ _______ _____ _____    ______ ____
ROOT
ATOM      1  C   UNL     1       0.049   1.933   0.634  0.00  0.00    +0.029 C 
ATOM      2  C   UNL     1      -0.109   0.434   0.367  0.00  0.00    +0.083 C 
ATOM      3  C   UNL     1      -1.556  -0.006   0.641  0.00  0.00    +0.059 C 
ATOM      4  C   UNL     1      -1.439  -1.029   1.748  0.00  0.00    -0.022 A 
ATOM      5  C   UNL     1      -2.404  -1.767   2.406  0.00  0.00    +0.038 A 
ATOM      6  C   UNL     1      -2.041  -2.654   3.402  0.00  0.00    +0.127 A 
ATOM      7  C   UNL     1      -0.708  -2.801   3.740  0.00  0.00    +0.034 A 
ATOM      8  C   UNL     1       0.259  -2.066   3.087  0.00  0.00    +0.026 A 
ATOM      9  C   UNL     1      -0.100  -1.168   2.079  0.00  0.00    +0.040 A 
ATOM     10  N   UNL     1       0.713  -0.338   1.302  0.00  0.00    -0.260 N 
ATOM     11  C   UNL     1       2.055  -0.259   1.397  0.00  0.00    +0.306 C 
ATOM     12  O   UNL     1       2.648  -0.950   2.200  0.00  0.00    -0.265 OA
ENDROOT
BRANCH  11  13
ATOM     13  C   UNL     1       2.812   0.679   0.516  0.00  0.00    +0.300 C 
ATOM     14  O   UNL     1       2.235   1.286  -0.362  0.00  0.00    -0.265 OA
ATOM     15  N   UNL     1       4.137   0.852   0.696  0.00  0.00    -0.303 N 
ATOM     16  H   UNL     1       4.598   0.367   1.398  0.00  0.00    +0.149 HD
BRANCH  15  17
ATOM     17  C   UNL     1       4.880   1.772  -0.168  0.00  0.00    +0.140 C 
BRANCH  17  18
ATOM     18  C   UNL     1       6.331   1.783   0.239  0.00  0.00    -0.030 A 
ATOM     19  C   UNL     1       6.775   2.679   1.193  0.00  0.00    +0.006 A 
ATOM     20  C   UNL     1       8.105   2.689   1.567  0.00  0.00    +0.020 A 
ATOM     21  C   UNL     1       8.993   1.802   0.985  0.00  0.00    +0.041 A 
ATOM     22  C   UNL     1       8.549   0.905   0.030  0.00  0.00    +0.020 A 
ATOM     23  C   UNL     1       7.217   0.892  -0.339  0.00  0.00    +0.006 A 
ATOM     24 CL   UNL     1      10.665   1.814   1.453  0.00  0.00    -0.084 Cl
ENDBRANCH  17  18
ENDBRANCH  15  17
ENDBRANCH  11  13
BRANCH   6  25
ATOM     25  N   UNL     1      -3.076  -3.444   4.105  0.00  0.00    +0.056 N 
ATOM     26  O   UNL     1      -4.241  -3.315   3.809  0.00  0.00    -0.126 OA
ATOM     27  O   UNL     1      -2.757  -4.219   4.977  0.00  0.00    -0.126 OA
ENDBRANCH   6  25
TORSDOF 4
