REMARK  Name = ZINC02304757
REMARK  7 active torsions:
REMARK  status: ('A' for Active; 'I' for Inactive)
REMARK    1  A    between atoms: C_1  and  C_2
REMARK    2  A    between atoms: C_2  and  C_3
REMARK    3  A    between atoms: C_3  and  C_28
REMARK    4  A    between atoms: N_13  and  C_18
REMARK    5  A    between atoms: N_16  and  N_17
REMARK    6  A    between atoms: C_21  and  O_24
REMARK    7  A    between atoms: O_24  and  C_25
REMARK                            x       y       z     vdW  Elec       q    Type
REMARK                         _______ _______ _______ _____ _____    ______ ____
ROOT
ATOM      1  C   UNL     1      -8.335   2.229   0.181  0.00  0.00    +0.071 C 
ATOM      2  C   UNL     1      -6.881   2.156  -0.308  0.00  0.00    +0.072 C 
ATOM      3  C   UNL     1      -6.240   3.494  -0.043  0.00  0.00    -0.007 A 
ATOM      4  C   UNL     1      -6.941   4.613   0.239  0.00  0.00    +0.048 A 
ATOM      5  N   UNL     1      -6.076   5.653   0.431  0.00  0.00    -0.341 N 
ATOM      6  H   UNL     1      -6.339   6.562   0.646  0.00  0.00    +0.167 HD
ATOM      7  C   UNL     1      -4.787   5.226   0.275  0.00  0.00    +0.148 A 
ATOM      8  C   UNL     1      -4.832   3.856  -0.029  0.00  0.00    +0.087 A 
ATOM      9  C   UNL     1      -3.620   3.164  -0.243  0.00  0.00    +0.269 A 
ATOM     10  O   UNL     1      -3.618   1.974  -0.509  0.00  0.00    -0.266 OA
ATOM     11  N   UNL     1      -2.461   3.853  -0.143  0.00  0.00    -0.248 N 
ATOM     12  C   UNL     1      -2.478   5.183   0.162  0.00  0.00    +0.219 A 
ATOM     13  N   UNL     1      -3.598   5.839   0.357  0.00  0.00    -0.197 NA
ATOM     14  N   UNL     1      -1.286   5.857   0.262  0.00  0.00    -0.253 N 
ATOM     15  C   UNL     1      -8.450   4.630   0.313  0.00  0.00    +0.214 C 
ATOM     16  O   UNL     1      -8.940   3.432  -0.302  0.00  0.00    -0.367 OA
ATOM     17  C   UNL     1      -8.360   2.225   1.711  0.00  0.00    +0.042 C 
ATOM     18  H   UNL     1      -0.448   5.376   0.177  0.00  0.00    +0.169 HD
ENDROOT
BRANCH  11  19
ATOM     19  C   UNL     1      -1.238   3.197  -0.348  0.00  0.00    +0.053 A 
ATOM     20  C   UNL     1      -0.581   2.602   0.720  0.00  0.00    +0.030 A 
ATOM     21  C   UNL     1       0.625   1.962   0.519  0.00  0.00    +0.047 A 
ATOM     22  C   UNL     1       1.177   1.904  -0.753  0.00  0.00    +0.120 A 
ATOM     23  C   UNL     1       0.518   2.494  -1.822  0.00  0.00    +0.047 A 
ATOM     24  C   UNL     1      -0.686   3.139  -1.621  0.00  0.00    +0.030 A 
BRANCH  22  25
ATOM     25  O   UNL     1       2.362   1.269  -0.951  0.00  0.00    -0.495 OA
ATOM     26  C   UNL     1       2.871   1.248  -2.286  0.00  0.00    +0.277 C 
ENDBRANCH  22  25
ENDBRANCH  11  19
BRANCH  14  27
ATOM     27  N   UNL     1      -1.280   7.206   0.482  0.00  0.00    -0.254 NA
ATOM     28  H   UNL     1      -0.337   7.560   0.532  0.00  0.00    +0.140 HD
ATOM     29  H   UNL     1      -1.811   7.690  -0.227  0.00  0.00    +0.140 HD
ENDBRANCH  14  27
BRANCH   1  31
ATOM     30  C   UNL     1     -10.560   1.093   0.143  0.00  0.00    +0.007 C 
ATOM     31  C   UNL     1      -9.112   1.020  -0.344  0.00  0.00    +0.032 C 
ENDBRANCH   1  31
TORSDOF 4
