REMARK  Name = ZINC64450930
REMARK  7 active torsions:
REMARK  status: ('A' for Active; 'I' for Inactive)
REMARK    1  A    between atoms: C_1  and  C_2
REMARK    2  A    between atoms: C_2  and  C_3
REMARK    3  A    between atoms: C_2  and  C_4
REMARK    4  A    between atoms: C_2  and  N_5
REMARK    5  A    between atoms: C_17  and  N_29
REMARK    6  A    between atoms: C_18  and  C_22
REMARK    7  A    between atoms: N_29  and  C_30
REMARK                            x       y       z     vdW  Elec       q    Type
REMARK                         _______ _______ _______ _____ _____    ______ ____
ROOT
ATOM      1  N   UNL     1       0.689  -0.480  -1.201  0.00  0.00    -0.294 N 
ATOM      2  C   UNL     1       1.972  -0.132  -1.427  0.00  0.00    +0.303 C 
ATOM      3  O   UNL     1       2.531   0.646  -0.679  0.00  0.00    -0.253 OA
ATOM      4  N   UNL     1       2.633  -0.647  -2.482  0.00  0.00    -0.283 N 
ATOM      5  C   UNL     1       1.937  -1.494  -3.461  0.00  0.00    +0.128 C 
ATOM      6  C   UNL     1       2.138  -0.894  -4.858  0.00  0.00    +0.126 C 
ATOM      7  N   UNL     1       3.568  -0.619  -5.050  0.00  0.00    -0.305 N 
ATOM      8  C   UNL     1       4.265   0.228  -4.071  0.00  0.00    +0.126 C 
ATOM      9  C   UNL     1       4.063  -0.368  -2.677  0.00  0.00    +0.128 C 
ATOM     10  C   UNL     1       4.249  -1.149  -6.135  0.00  0.00    +0.184 A 
ATOM     11  N   UNL     1       5.506  -1.016  -6.458  0.00  0.00    -0.140 NA
ATOM     12  N   UNL     1       6.029  -1.624  -7.595  0.00  0.00    -0.190 N 
ATOM     13  C   UNL     1       7.247  -1.722  -8.250  0.00  0.00    +0.150 A 
ATOM     14  C   UNL     1       7.061  -2.502  -9.352  0.00  0.00    +0.114 A 
ATOM     15  N   UNL     1       5.756  -2.879  -9.378  0.00  0.00    -0.218 NA
ATOM     16  C   UNL     1       5.153  -2.364  -8.349  0.00  0.00    +0.199 A 
ATOM     17  S   UNL     1       3.631  -2.194  -7.444  0.00  0.00    -0.013 S 
ATOM     18  H   UNL     1       0.221  -1.044  -1.835  0.00  0.00    +0.151 HD
ENDROOT
BRANCH  14  19
ATOM     19  C   UNL     1       8.096  -2.872 -10.345  0.00  0.00    +0.004 A 
ATOM     20  C   UNL     1       9.104  -1.967 -10.675  0.00  0.00    +0.013 A 
ATOM     21  C   UNL     1      10.066  -2.317 -11.601  0.00  0.00    +0.039 A 
ATOM     22  C   UNL     1      10.032  -3.565 -12.201  0.00  0.00    +0.123 A 
ATOM     23  C   UNL     1       9.032  -4.468 -11.876  0.00  0.00    +0.039 A 
ATOM     24  C   UNL     1       8.069  -4.130 -10.948  0.00  0.00    +0.013 A 
ATOM     25  F   UNL     1      10.975  -3.902 -13.107  0.00  0.00    -0.205 F 
ENDBRANCH  14  19
BRANCH   1  27
ATOM     26  C   UNL     1      -0.022   1.524   0.008  0.00  0.00    +0.031 C 
ATOM     27  C   UNL     1       0.003  -0.006   0.004  0.00  0.00    +0.028 C 
ATOM     28  C   UNL     1       0.747  -0.506   1.244  0.00  0.00    +0.031 C 
ATOM     29  C   UNL     1      -1.430  -0.540   0.018  0.00  0.00    +0.031 C 
ENDBRANCH   1  27
BRANCH  13  30
ATOM     30  N   UNL     1       8.449  -1.128  -7.853  0.00  0.00    -0.324 N 
ATOM     31  H   UNL     1       9.252  -1.256  -8.382  0.00  0.00    +0.148 HD
BRANCH  30  32
ATOM     32  C   UNL     1       8.496  -0.311  -6.638  0.00  0.00    +0.072 C 
ATOM     33  C   UNL     1       8.784  -1.204  -5.412  0.00  0.00    +0.022 C 
ATOM     34  C   UNL     1      10.317  -1.097  -5.218  0.00  0.00    +0.002 C 
ATOM     35  C   UNL     1      10.602   0.388  -5.552  0.00  0.00    +0.002 C 
ATOM     36  C   UNL     1       9.652   0.700  -6.726  0.00  0.00    +0.022 C 
ENDBRANCH  30  32
ENDBRANCH  13  30
TORSDOF 4
