REMARK  Name = ZINC59224033
REMARK  8 active torsions:
REMARK  status: ('A' for Active; 'I' for Inactive)
REMARK    1  A    between atoms: C_1  and  C_2
REMARK    2  A    between atoms: C_2  and  O_3
REMARK    3  A    between atoms: O_3  and  C_4
REMARK    4  A    between atoms: C_6  and  C_12
REMARK    5  A    between atoms: C_9  and  O_10
REMARK    6  A    between atoms: N_18  and  C_19
REMARK    7  A    between atoms: C_22  and  C_26
REMARK    8  A    between atoms: C_23  and  C_25
REMARK                            x       y       z     vdW  Elec       q    Type
REMARK                         _______ _______ _______ _____ _____    ______ ____
ROOT
ATOM      1  C   UNL     1      -0.198  -4.957  -0.499  0.00  0.00    +0.028 C 
ATOM      2  C   UNL     1       0.001  -6.297  -0.403  0.00  0.00    +0.078 C 
ATOM      3  C   UNL     1      -0.382  -7.370  -1.340  0.00  0.00    +0.256 C 
ATOM      4  O   UNL     1      -0.964  -7.128  -2.381  0.00  0.00    -0.269 OA
ATOM      5  N   UNL     1      -0.063  -8.607  -0.998  0.00  0.00    -0.260 N 
ATOM      6  C   UNL     1       0.596  -8.860   0.185  0.00  0.00    +0.166 C 
ATOM      7  N   UNL     1       0.984 -10.018   0.672  0.00  0.00    -0.226 NA
ATOM      8  S   UNL     1       0.803  -7.233   0.890  0.00  0.00    -0.049 S 
ATOM      9  H   UNL     1      -0.297  -9.343  -1.585  0.00  0.00    +0.157 HD
ENDROOT
BRANCH   7  10
ATOM     10  C   UNL     1       0.739 -11.170  -0.024  0.00  0.00    +0.067 A 
ATOM     11  C   UNL     1      -0.513 -11.388  -0.602  0.00  0.00    +0.028 A 
ATOM     12  C   UNL     1      -0.753 -12.551  -1.303  0.00  0.00    +0.006 A 
ATOM     13  C   UNL     1       0.244 -13.502  -1.433  0.00  0.00    -0.047 A 
ATOM     14  C   UNL     1       1.487 -13.293  -0.863  0.00  0.00    -0.046 A 
ATOM     15  C   UNL     1       1.743 -12.131  -0.165  0.00  0.00    +0.031 A 
ATOM     16  C   UNL     1       2.567 -14.334  -1.011  0.00  0.00    +0.044 C 
ATOM     17  C   UNL     1      -0.025 -14.771  -2.200  0.00  0.00    +0.044 C 
ENDBRANCH   7  10
BRANCH   1  20
ATOM     18  C   UNL     1       0.585  -1.886   1.507  0.00  0.00    +0.163 A 
ATOM     19  C   UNL     1       0.277  -2.704   0.437  0.00  0.00    +0.057 A 
ATOM     20  C   UNL     1       0.131  -4.082   0.633  0.00  0.00    -0.019 A 
ATOM     21  C   UNL     1       0.299  -4.625   1.913  0.00  0.00    +0.027 A 
ATOM     22  C   UNL     1       0.607  -3.801   2.975  0.00  0.00    +0.063 A 
ATOM     23  C   UNL     1       0.757  -2.434   2.777  0.00  0.00    +0.173 A 
ATOM     24 BR   UNL     1       0.834  -4.534   4.703  0.00  0.00    -0.046 Br
BRANCH  23  25
ATOM     25  O   UNL     1       1.066  -1.627   3.826  0.00  0.00    -0.503 OA
ATOM     26  H   UNL     1       0.295  -1.280   4.295  0.00  0.00    +0.292 HD
ENDBRANCH  23  25
BRANCH  18  27
ATOM     27  O   UNL     1       0.727  -0.547   1.319  0.00  0.00    -0.489 OA
BRANCH  27  29
ATOM     28  C   UNL     1       0.736   1.463  -0.023  0.00  0.00    +0.048 C 
ATOM     29  C   UNL     1       0.537  -0.054  -0.009  0.00  0.00    +0.226 C 
ENDBRANCH  27  29
ENDBRANCH  18  27
ENDBRANCH   1  20
TORSDOF 5
