REMARK  Name = ZINC12599900
REMARK  8 active torsions:
REMARK  status: ('A' for Active; 'I' for Inactive)
REMARK    1  A    between atoms: C_1  and  C_2
REMARK    2  A    between atoms: C_5  and  N_11
REMARK    3  A    between atoms: C_6  and  N_8
REMARK    4  A    between atoms: C_12  and  C_14
REMARK    5  A    between atoms: C_14  and  C_16
REMARK    6  A    between atoms: C_14  and  N_22
REMARK    7  A    between atoms: N_22  and  C_23
REMARK    8  A    between atoms: C_23  and  C_24
REMARK                            x       y       z     vdW  Elec       q    Type
REMARK                         _______ _______ _______ _____ _____    ______ ____
ROOT
ATOM      1  C   UNL     1      -0.207  -6.116  -1.284  0.00  0.00    +0.171 C 
ENDROOT
BRANCH   1   2
ATOM      2  C   UNL     1      -1.411  -6.568  -0.499  0.00  0.00    -0.022 A 
ATOM      3  C   UNL     1      -2.671  -6.495  -1.062  0.00  0.00    +0.005 A 
ATOM      4  C   UNL     1      -3.776  -6.909  -0.341  0.00  0.00    +0.000 A 
ATOM      5  C   UNL     1      -3.620  -7.398   0.942  0.00  0.00    +0.000 A 
ATOM      6  C   UNL     1      -2.359  -7.472   1.505  0.00  0.00    +0.000 A 
ATOM      7  C   UNL     1      -1.254  -7.062   0.783  0.00  0.00    +0.005 A 
ENDBRANCH   1   2
BRANCH   1   9
ATOM      8  N   UNL     1       0.038  -3.998  -0.030  0.00  0.00    -0.282 N 
ATOM      9  C   UNL     1      -0.101  -4.614  -1.220  0.00  0.00    +0.239 C 
ATOM     10  O   UNL     1      -0.139  -3.959  -2.241  0.00  0.00    -0.273 OA
ATOM     11  H   UNL     1       0.150  -4.524   0.778  0.00  0.00    +0.155 HD
BRANCH   8  16
ATOM     12  C   UNL     1      -0.037   1.667   0.261  0.00  0.00    +0.044 C 
ATOM     13  C   UNL     1      -0.018   0.162   0.184  0.00  0.00    -0.048 A 
ATOM     14  C   UNL     1      -0.651  -0.484  -0.862  0.00  0.00    +0.005 A 
ATOM     15  C   UNL     1      -0.635  -1.863  -0.936  0.00  0.00    +0.026 A 
ATOM     16  C   UNL     1       0.019  -2.601   0.042  0.00  0.00    +0.064 A 
ATOM     17  C   UNL     1       0.655  -1.950   1.091  0.00  0.00    +0.148 A 
ATOM     18  C   UNL     1       0.639  -0.570   1.156  0.00  0.00    +0.038 A 
BRANCH  17  19
ATOM     19  N   UNL     1       1.353  -2.733   2.135  0.00  0.00    +0.058 N 
ATOM     20  O   UNL     1       1.824  -2.172   3.097  0.00  0.00    -0.126 OA
ATOM     21  O   UNL     1       1.453  -3.933   2.025  0.00  0.00    -0.126 OA
ENDBRANCH  17  19
ENDBRANCH   8  16
ENDBRANCH   1   9
BRANCH   1  22
ATOM     22  N   UNL     1      -0.349  -6.538  -2.684  0.00  0.00    -0.298 NA
ATOM     23  H   UNL     1      -1.304  -6.439  -2.997  0.00  0.00    +0.123 HD
BRANCH  22  24
ATOM     24  C   UNL     1       0.126  -7.915  -2.870  0.00  0.00    +0.130 C 
BRANCH  24  25
ATOM     25  C   UNL     1      -0.038  -8.318  -4.337  0.00  0.00    +0.224 C 
ATOM     26  C   UNL     1       0.352  -9.791  -4.516  0.00  0.00    +0.275 C 
ATOM     27  O   UNL     1       0.201 -10.130  -5.899  0.00  0.00    -0.485 OA
ATOM     28  C   UNL     1       0.715  -9.252  -6.803  0.00  0.00    +0.162 A 
ATOM     29  C   UNL     1       0.931  -9.668  -8.109  0.00  0.00    +0.049 A 
ATOM     30  C   UNL     1       1.449  -8.787  -9.039  0.00  0.00    +0.004 A 
ATOM     31  C   UNL     1       1.751  -7.488  -8.672  0.00  0.00    +0.004 A 
ATOM     32  C   UNL     1       1.539  -7.068  -7.372  0.00  0.00    +0.049 A 
ATOM     33  C   UNL     1       1.022  -7.948  -6.433  0.00  0.00    +0.163 A 
ATOM     34  O   UNL     1       0.825  -7.521  -5.155  0.00  0.00    -0.481 OA
ENDBRANCH  24  25
ENDBRANCH  22  24
ENDBRANCH   1  22
TORSDOF 7
