REMARK  Name = ZINC20610593
REMARK  10 active torsions:
REMARK  status: ('A' for Active; 'I' for Inactive)
REMARK    1  A    between atoms: C_1  and  C_2
REMARK    2  A    between atoms: N_8  and  C_9
REMARK    3  A    between atoms: C_9  and  C_10
REMARK    4  A    between atoms: C_18  and  C_19
REMARK    5  A    between atoms: C_22  and  O_29
REMARK    6  A    between atoms: C_23  and  O_27
REMARK    7  A    between atoms: C_24  and  O_25
REMARK    8  A    between atoms: O_25  and  C_26
REMARK    9  A    between atoms: O_27  and  C_28
REMARK   10  A    between atoms: O_29  and  C_30
REMARK                            x       y       z     vdW  Elec       q    Type
REMARK                         _______ _______ _______ _____ _____    ______ ____
ROOT
ATOM      1  C   UNL     1       2.083   5.572  -1.629  0.00  0.00    +0.026 A 
ATOM      2  C   UNL     1       3.467   5.613  -1.691  0.00  0.00    +0.184 A 
ATOM      3  C   UNL     1       4.212   4.437  -1.657  0.00  0.00    +0.052 A 
ATOM      4  C   UNL     1       3.583   3.228  -1.562  0.00  0.00    +0.019 A 
ATOM      5  C   UNL     1       2.190   3.172  -1.499  0.00  0.00    +0.068 A 
ATOM      6  C   UNL     1       1.428   4.351  -1.532  0.00  0.00    +0.144 A 
ATOM      7  O   UNL     1       0.115   4.045  -1.458  0.00  0.00    -0.451 OA
ATOM      8  C   UNL     1      -0.087   2.708  -1.382  0.00  0.00    +0.176 C 
ATOM      9  C   UNL     1      -1.291   2.081  -1.303  0.00  0.00    +0.062 C 
ATOM     10  C   UNL     1       1.229   2.059  -1.395  0.00  0.00    +0.231 C 
ATOM     11  O   UNL     1       1.473   0.866  -1.339  0.00  0.00    -0.283 OA
ATOM     12  O   UNL     1       4.101   6.809  -1.784  0.00  0.00    -0.288 OA
ENDROOT
BRANCH   9  13
ATOM     13  C   UNL     1      -2.529   2.855  -1.420  0.00  0.00    +0.024 A 
ATOM     14  C   UNL     1      -2.506   4.249  -1.269  0.00  0.00    +0.015 A 
ATOM     15  C   UNL     1      -3.669   4.973  -1.385  0.00  0.00    +0.050 A 
ATOM     16  C   UNL     1      -4.875   4.328  -1.641  0.00  0.00    +0.165 A 
ATOM     17  C   UNL     1      -4.914   2.945  -1.788  0.00  0.00    +0.204 A 
ATOM     18  C   UNL     1      -3.748   2.203  -1.679  0.00  0.00    +0.172 A 
BRANCH  18  19
ATOM     19  O   UNL     1      -3.782   0.853  -1.821  0.00  0.00    -0.491 OA
ATOM     20  C   UNL     1      -4.099   0.086  -0.659  0.00  0.00    +0.277 C 
ENDBRANCH  18  19
BRANCH  17  21
ATOM     21  O   UNL     1      -6.097   2.321  -2.038  0.00  0.00    -0.488 OA
ATOM     22  C   UNL     1      -6.420   2.067  -3.406  0.00  0.00    +0.277 C 
ENDBRANCH  17  21
BRANCH  16  23
ATOM     23  O   UNL     1      -6.019   5.052  -1.748  0.00  0.00    -0.491 OA
ATOM     24  C   UNL     1      -5.909   6.467  -1.587  0.00  0.00    +0.277 C 
ENDBRANCH  16  23
ENDBRANCH   9  13
BRANCH   1  25
ATOM     25  C   UNL     1       1.290   6.853  -1.665  0.00  0.00    -0.035 C 
BRANCH  25  32
ATOM     26  C   UNL     1      -1.100   8.218  -2.252  0.00  0.00    -0.013 C 
ATOM     27  C   UNL     1       0.140   8.400  -3.129  0.00  0.00    -0.071 C 
ATOM     28  C   UNL     1      -0.291   8.641  -4.578  0.00  0.00    -0.016 C 
ATOM     29  C   UNL     1       0.953   8.803  -5.455  0.00  0.00    -0.003 C 
ATOM     30  C   UNL     1       1.826   7.551  -5.326  0.00  0.00    -0.019 C 
ATOM     31  C   UNL     1       2.196   7.343  -3.856  0.00  0.00    -0.078 C 
ATOM     32  N   UNL     1       0.972   7.192  -3.058  0.00  0.00    +0.384 N 
ATOM     33  H   UNL     1       0.393   6.361  -3.487  0.00  0.00    -0.081 HD
ENDBRANCH  25  32
ENDBRANCH   1  25
TORSDOF 6
