REMARK  Name = ZINC09472385
REMARK  7 active torsions:
REMARK  status: ('A' for Active; 'I' for Inactive)
REMARK    1  A    between atoms: C_1  and  S_2
REMARK    2  A    between atoms: S_2  and  C_3
REMARK    3  A    between atoms: C_6  and  C_9
REMARK    4  A    between atoms: C_11  and  C_23
REMARK    5  A    between atoms: C_13  and  C_18
REMARK    6  A    between atoms: C_13  and  O_22
REMARK    7  A    between atoms: C_23  and  C_25
REMARK                            x       y       z     vdW  Elec       q    Type
REMARK                         _______ _______ _______ _____ _____    ______ ____
ROOT
ATOM      1  C   UNL     1      -1.209   8.107  -0.547  0.00  0.00    +0.120 C 
ATOM      2  C   UNL     1      -1.738   6.741  -0.099  0.00  0.00    +0.144 C 
ATOM      3  C   UNL     1      -2.228   6.854   1.349  0.00  0.00    +0.243 C 
ATOM      4  N   UNL     1      -1.135   7.370   2.182  0.00  0.00    -0.264 N 
ATOM      5  C   UNL     1      -0.191   8.177   1.677  0.00  0.00    +0.302 C 
ATOM      6  O   UNL     1       0.686   8.583   2.414  0.00  0.00    -0.253 OA
ATOM      7  N   UNL     1      -0.175   8.553   0.389  0.00  0.00    -0.292 N 
ATOM      8  H   UNL     1      -1.096   7.121   3.119  0.00  0.00    +0.153 HD
ATOM      9  H   UNL     1       0.536   9.131   0.072  0.00  0.00    +0.151 HD
ENDROOT
BRANCH   1  13
ATOM     10  C   UNL     1       0.457   7.778  -4.470  0.00  0.00    +0.008 A 
ATOM     11  C   UNL     1      -0.887   8.091  -4.308  0.00  0.00    +0.015 A 
ATOM     12  C   UNL     1      -1.422   8.197  -3.039  0.00  0.00    +0.006 A 
ATOM     13  C   UNL     1      -0.622   7.991  -1.930  0.00  0.00    -0.026 A 
ATOM     14  C   UNL     1       0.718   7.684  -2.087  0.00  0.00    +0.006 A 
ATOM     15  C   UNL     1       1.258   7.572  -3.353  0.00  0.00    +0.015 A 
BRANCH  10  17
ATOM     16  C   UNL     1       2.885   7.228  -5.791  0.00  0.00    +0.090 C 
ATOM     17  S   UNL     1       1.143   7.643  -6.087  0.00  0.00    -0.129 S 
ENDBRANCH  10  17
ENDBRANCH   1  13
BRANCH   3  18
ATOM     18  C   UNL     1      -3.417   7.815   1.412  0.00  0.00    +0.436 C 
ATOM     19  F   UNL     1      -4.452   7.329   0.607  0.00  0.00    -0.166 F 
ATOM     20  F   UNL     1      -3.864   7.917   2.734  0.00  0.00    -0.166 F 
ATOM     21  F   UNL     1      -3.022   9.076   0.955  0.00  0.00    -0.166 F 
ENDBRANCH   3  18
BRANCH   3  22
ATOM     22  O   UNL     1      -2.628   5.566   1.820  0.00  0.00    -0.364 OA
ATOM     23  H   UNL     1      -2.950   5.562   2.731  0.00  0.00    +0.212 HD
ENDBRANCH   3  22
BRANCH   2  24
ATOM     24  C   UNL     1      -0.633   5.719  -0.181  0.00  0.00    +0.173 C 
ATOM     25  O   UNL     1       0.508   6.038   0.076  0.00  0.00    -0.292 OA
BRANCH  24  26
ATOM     26  C   UNL     1      -0.940   4.334  -0.572  0.00  0.00    +0.018 A 
ATOM     27  C   UNL     1       0.082   3.383  -0.649  0.00  0.00    +0.013 A 
ATOM     28  C   UNL     1      -0.212   2.088  -1.016  0.00  0.00    +0.020 A 
ATOM     29  C   UNL     1      -1.518   1.727  -1.309  0.00  0.00    +0.041 A 
ATOM     30  C   UNL     1      -2.535   2.666  -1.241  0.00  0.00    +0.020 A 
ATOM     31  C   UNL     1      -2.256   3.963  -0.869  0.00  0.00    +0.013 A 
ATOM     32 CL   UNL     1      -1.880   0.094  -1.772  0.00  0.00    -0.084 Cl
ENDBRANCH  24  26
ENDBRANCH   2  24
TORSDOF 6
