REMARK  Name = ZINC08817508
REMARK  8 active torsions:
REMARK  status: ('A' for Active; 'I' for Inactive)
REMARK    1  A    between atoms: C_1  and  N_55
REMARK    2  A    between atoms: C_9  and  O_32
REMARK    3  A    between atoms: C_11  and  C_14
REMARK    4  A    between atoms: C_17  and  O_22
REMARK    5  A    between atoms: C_18  and  O_20
REMARK    6  A    between atoms: O_20  and  C_21
REMARK    7  A    between atoms: O_22  and  C_23
REMARK    8  A    between atoms: C_23  and  C_25
REMARK                            x       y       z     vdW  Elec       q    Type
REMARK                         _______ _______ _______ _____ _____    ______ ____
ROOT
ATOM      1  C   UNL     1       5.189  -0.415  -8.373  0.00  0.00    -0.096 C 
ATOM      2  C   UNL     1       3.889  -1.433  -6.601  0.00  0.00    -0.074 C 
ATOM      3  C   UNL     1       4.004  -2.054  -5.206  0.00  0.00    +0.018 C 
ATOM      4  C   UNL     1       4.439  -0.964  -4.233  0.00  0.00    -0.027 A 
ATOM      5  C   UNL     1       4.987   0.182  -4.703  0.00  0.00    -0.021 A 
ATOM      6  S   UNL     1       5.334   1.146  -3.257  0.00  0.00    -0.080 S 
ATOM      7  C   UNL     1       4.769   0.054  -2.067  0.00  0.00    +0.080 A 
ATOM      8  C   UNL     1       4.307  -1.053  -2.791  0.00  0.00    +0.067 A 
ATOM      9  C   UNL     1       3.737  -2.184  -2.014  0.00  0.00    +0.220 C 
ATOM     10  N   UNL     1       3.518  -1.997  -0.743  0.00  0.00    -0.223 NA
ATOM     11  C   UNL     1       3.698  -0.731  -0.043  0.00  0.00    +0.224 C 
ATOM     12  N   UNL     1       4.718   0.110  -0.695  0.00  0.00    -0.313 N 
ATOM     13  C   UNL     1       5.236   0.526  -6.137  0.00  0.00    -0.036 C 
ATOM     14  H   UNL     1       5.319   0.674  -0.184  0.00  0.00    +0.149 HD
ATOM     15  N   UNL     1       5.144  -0.725  -6.927  0.00  0.00    +0.381 N 
ATOM     16  H   UNL     1       5.940  -1.329  -6.691  0.00  0.00    -0.082 HD
ENDROOT
BRANCH  11  17
ATOM     17  C   UNL     1       2.386   0.011  -0.025  0.00  0.00    -0.002 A 
ATOM     18  C   UNL     1       2.376   1.393   0.011  0.00  0.00    +0.011 A 
ATOM     19  C   UNL     1       1.176   2.078   0.027  0.00  0.00    +0.050 A 
ATOM     20  C   UNL     1      -0.021   1.380   0.008  0.00  0.00    +0.173 A 
ATOM     21  C   UNL     1      -0.011  -0.011  -0.028  0.00  0.00    +0.163 A 
ATOM     22  C   UNL     1       1.196  -0.692  -0.044  0.00  0.00    +0.056 A 
BRANCH  21  23
ATOM     23  O   UNL     1      -1.183  -0.701  -0.047  0.00  0.00    -0.491 OA
ATOM     24  C   UNL     1      -1.096  -2.127  -0.084  0.00  0.00    +0.277 C 
ENDBRANCH  21  23
BRANCH  20  25
ATOM     25  O   UNL     1      -1.203   2.053   0.019  0.00  0.00    -0.419 OA
BRANCH  25  26
ATOM     26  C   UNL     1      -1.830   2.169   1.206  0.00  0.00    +0.345 C 
ATOM     27  O   UNL     1      -1.291   1.770   2.219  0.00  0.00    -0.245 OA
BRANCH  26  28
ATOM     28  C   UNL     1      -3.172   2.781   1.275  0.00  0.00    +0.059 A 
ATOM     29  C   UNL     1      -3.792   3.245   0.113  0.00  0.00    +0.016 A 
ATOM     30  C   UNL     1      -5.047   3.810   0.183  0.00  0.00    +0.021 A 
ATOM     31  C   UNL     1      -5.689   3.928   1.405  0.00  0.00    +0.041 A 
ATOM     32  C   UNL     1      -5.077   3.475   2.562  0.00  0.00    +0.021 A 
ATOM     33  C   UNL     1      -3.824   2.902   2.504  0.00  0.00    +0.016 A 
ATOM     34 CL   UNL     1      -7.267   4.647   1.486  0.00  0.00    -0.084 Cl
ENDBRANCH  26  28
ENDBRANCH  25  26
ENDBRANCH  20  25
ENDBRANCH  11  17
BRANCH   9  35
ATOM     35  O   UNL     1       3.454  -3.367  -2.607  0.00  0.00    -0.492 OA
ATOM     36  H   UNL     1       3.087  -4.030  -2.006  0.00  0.00    +0.294 HD
ENDBRANCH   9  35
TORSDOF 6
