REMARK  Name = ZINC26336421
REMARK  10 active torsions:
REMARK  status: ('A' for Active; 'I' for Inactive)
REMARK    1  A    between atoms: C_1  and  C_2
REMARK    2  A    between atoms: C_3  and  N_11
REMARK    3  A    between atoms: C_7  and  N_8
REMARK    4  A    between atoms: C_12  and  C_14
REMARK    5  A    between atoms: C_14  and  C_15
REMARK    6  A    between atoms: C_15  and  N_16
REMARK    7  A    between atoms: N_16  and  C_17
REMARK    8  A    between atoms: N_16  and  C_18
REMARK    9  A    between atoms: C_18  and  C_19
REMARK   10  A    between atoms: C_24  and  N_25
REMARK                            x       y       z     vdW  Elec       q    Type
REMARK                         _______ _______ _______ _____ _____    ______ ____
ROOT
ATOM      1  C   UNL     1       0.399  -1.834   1.596  0.00  0.00    -0.070 C 
ENDROOT
BRANCH   1   2
ATOM      2  N   UNL     1      -0.463  -1.621   0.425  0.00  0.00    +0.381 N 
ATOM      3  C   UNL     1      -0.709  -0.189   0.207  0.00  0.00    -0.096 C 
ATOM      4  H   UNL     1       0.064  -2.012  -0.458  0.00  0.00    -0.082 HD
BRANCH   2   5
ATOM      5  C   UNL     1      -1.726  -2.358   0.560  0.00  0.00    -0.042 C 
BRANCH   5   6
ATOM      6  C   UNL     1      -2.473  -2.318  -0.749  0.00  0.00    -0.043 A 
ATOM      7  C   UNL     1      -3.513  -1.426  -0.924  0.00  0.00    +0.003 A 
ATOM      8  C   UNL     1      -4.196  -1.385  -2.126  0.00  0.00    +0.000 A 
ATOM      9  C   UNL     1      -3.847  -2.244  -3.152  0.00  0.00    +0.002 A 
ATOM     10  C   UNL     1      -2.811  -3.141  -2.982  0.00  0.00    +0.023 A 
ATOM     11  C   UNL     1      -2.120  -3.181  -1.777  0.00  0.00    +0.031 A 
BRANCH  11  12
ATOM     12  N   UNL     1      -1.072  -4.088  -1.601  0.00  0.00    -0.330 N 
ATOM     13  C   UNL     1       0.037  -3.796  -2.519  0.00  0.00    +0.105 C 
ATOM     14  C   UNL     1       1.220  -4.713  -2.200  0.00  0.00    +0.019 C 
ATOM     15  C   UNL     1       0.782  -6.173  -2.348  0.00  0.00    +0.003 C 
ATOM     16  C   UNL     1      -0.405  -6.438  -1.417  0.00  0.00    +0.019 C 
ATOM     17  C   UNL     1      -1.541  -5.471  -1.759  0.00  0.00    +0.105 C 
ENDBRANCH  11  12
ENDBRANCH   5   6
ENDBRANCH   2   5
ENDBRANCH   1   2
BRANCH   1  18
ATOM     18  C   UNL     1       1.791  -1.264   1.316  0.00  0.00    +0.077 C 
BRANCH  18  20
ATOM     19  N   UNL     1       3.954  -1.060   2.498  0.00  0.00    -0.285 N 
ATOM     20  C   UNL     1       2.674  -1.484   2.517  0.00  0.00    +0.215 C 
ATOM     21  O   UNL     1       2.234  -2.041   3.500  0.00  0.00    -0.276 OA
ATOM     22  H   UNL     1       4.378  -0.631   1.578  0.00  0.00    +0.155 HD
BRANCH  19  25
ATOM     23  C   UNL     1       6.783  -0.996   2.199  0.00  0.00    +0.048 C 
ATOM     24  C   UNL     1       6.127  -1.139   3.548  0.00  0.00    +0.001 A 
ATOM     25  C   UNL     1       4.742  -1.167   3.649  0.00  0.00    +0.038 A 
ATOM     26  C   UNL     1       4.142  -1.305   4.893  0.00  0.00    +0.024 A 
ATOM     27  C   UNL     1       4.924  -1.409   6.028  0.00  0.00    +0.004 A 
ATOM     28  C   UNL     1       6.302  -1.376   5.925  0.00  0.00    +0.033 A 
ATOM     29  C   UNL     1       6.903  -1.239   4.687  0.00  0.00    +0.131 A 
BRANCH  29  30
ATOM     30  N   UNL     1       8.379  -1.205   4.581  0.00  0.00    +0.057 N 
ATOM     31  O   UNL     1       9.065  -1.434   5.561  0.00  0.00    -0.126 OA
ATOM     32  O   UNL     1       8.907  -0.948   3.514  0.00  0.00    -0.126 OA
ENDBRANCH  29  30
ENDBRANCH  19  25
ENDBRANCH  18  20
ENDBRANCH   1  18
TORSDOF 8
