REMARK  Name = ZINC15231046
REMARK  6 active torsions:
REMARK  status: ('A' for Active; 'I' for Inactive)
REMARK    1  A    between atoms: C_1  and  C_2
REMARK    2  A    between atoms: C_9  and  C_13
REMARK    3  A    between atoms: C_13  and  S_14
REMARK    4  A    between atoms: S_14  and  C_15
REMARK    5  A    between atoms: N_25  and  C_26
REMARK    6  A    between atoms: C_26  and  C_27
REMARK                            x       y       z     vdW  Elec       q    Type
REMARK                         _______ _______ _______ _____ _____    ______ ____
ROOT
ATOM      1  S   UNL     1       0.646   1.573   7.764  0.00  0.00    -0.081 S 
ENDROOT
BRANCH   1   2
ATOM      2  C   UNL     1       1.557   2.143   9.161  0.00  0.00    +0.173 A 
ATOM      3  N   UNL     1       1.705   3.435   9.324  0.00  0.00    -0.223 NA
ATOM      4  C   UNL     1       2.386   3.941  10.372  0.00  0.00    +0.079 A 
ATOM      5  C   UNL     1       2.540   5.319  10.550  0.00  0.00    +0.028 A 
ATOM      6  C   UNL     1       3.242   5.788  11.624  0.00  0.00    +0.002 A 
ATOM      7  C   UNL     1       3.807   4.916  12.545  0.00  0.00    +0.001 A 
ATOM      8  C   UNL     1       3.674   3.563  12.399  0.00  0.00    +0.015 A 
ATOM      9  C   UNL     1       2.962   3.056  11.312  0.00  0.00    +0.065 A 
ATOM     10  C   UNL     1       2.787   1.612  11.104  0.00  0.00    +0.263 A 
ATOM     11  O   UNL     1       3.260   0.801  11.878  0.00  0.00    -0.267 OA
ATOM     12  N   UNL     1       2.080   1.219  10.018  0.00  0.00    -0.283 N 
BRANCH  12  13
ATOM     13  C   UNL     1       1.875  -0.209   9.762  0.00  0.00    +0.154 C 
BRANCH  13  14
ATOM     14  C   UNL     1       3.001  -0.733   8.908  0.00  0.00    -0.013 C 
ATOM     15  C   UNL     1       3.706  -1.760   9.312  0.00  0.00    +0.005 C 
ENDBRANCH  13  14
ENDBRANCH  12  13
ENDBRANCH   1   2
BRANCH   1  16
ATOM     16  C   UNL     1       0.206   3.157   7.008  0.00  0.00    +0.133 C 
BRANCH  16  25
ATOM     17  C   UNL     1      -0.013   1.086   0.008  0.00  0.00    +0.044 C 
ATOM     18  C   UNL     1      -0.718   1.572   1.248  0.00  0.00    -0.046 A 
ATOM     19  C   UNL     1      -2.102   1.794   1.231  0.00  0.00    +0.021 A 
ATOM     20  C   UNL     1      -2.735   2.225   2.345  0.00  0.00    +0.096 A 
ATOM     21  N   UNL     1      -2.040   2.459   3.493  0.00  0.00    -0.268 N 
ATOM     22  C   UNL     1      -0.689   2.257   3.539  0.00  0.00    +0.141 A 
ATOM     23  C   UNL     1      -0.014   1.804   2.391  0.00  0.00    +0.050 A 
ATOM     24  N   UNL     1      -0.002   2.485   4.658  0.00  0.00    -0.233 NA
ATOM     25  C   UNL     1      -0.601   2.910   5.759  0.00  0.00    +0.059 A 
ATOM     26  C   UNL     1      -1.965   3.130   5.764  0.00  0.00    +0.094 A 
ATOM     27  C   UNL     1      -2.693   2.895   4.592  0.00  0.00    +0.259 A 
ATOM     28  O   UNL     1      -3.899   3.079   4.564  0.00  0.00    -0.267 OA
ENDBRANCH  16  25
ENDBRANCH   1  16
TORSDOF 5
