REMARK  Name = ZINC14124954
REMARK  4 active torsions:
REMARK  status: ('A' for Active; 'I' for Inactive)
REMARK    1  A    between atoms: C_7  and  S_15
REMARK    2  A    between atoms: C_9  and  C_11
REMARK    3  A    between atoms: S_15  and  C_16
REMARK    4  A    between atoms: C_16  and  C_17
REMARK                            x       y       z     vdW  Elec       q    Type
REMARK                         _______ _______ _______ _____ _____    ______ ____
ROOT
ATOM      1  C   UNL     1      -1.168   3.503   0.032  0.00  0.00    +0.001 A 
ATOM      2  C   UNL     1       0.049   4.179   0.024  0.00  0.00    +0.002 A 
ATOM      3  C   UNL     1       1.230   3.499   0.009  0.00  0.00    +0.028 A 
ATOM      4  C   UNL     1       1.222   2.098   0.002  0.00  0.00    +0.076 A 
ATOM      5  C   UNL     1      -0.017   1.413   0.010  0.00  0.00    +0.032 A 
ATOM      6  C   UNL     1      -1.212   2.140   0.031  0.00  0.00    +0.012 A 
ATOM      7  C   UNL     1       0.002  -0.004   0.002  0.00  0.00    +0.109 A 
ATOM      8  N   UNL     1       1.181  -0.615  -0.013  0.00  0.00    -0.217 NA
ATOM      9  C   UNL     1       2.313   0.069  -0.020  0.00  0.00    +0.236 A 
ATOM     10  N   UNL     1       2.355   1.381  -0.013  0.00  0.00    -0.224 NA
ENDROOT
BRANCH   9  11
ATOM     11  C   UNL     1       3.613  -0.692  -0.036  0.00  0.00    +0.452 C 
ATOM     12  F   UNL     1       3.369  -2.025  -0.382  0.00  0.00    -0.163 F 
ATOM     13  F   UNL     1       4.478  -0.118  -0.974  0.00  0.00    -0.163 F 
ATOM     14  F   UNL     1       4.200  -0.640   1.233  0.00  0.00    -0.163 F 
ENDBRANCH   9  11
BRANCH   7  15
ATOM     15  S   UNL     1      -1.497  -0.930   0.012  0.00  0.00    -0.097 S 
BRANCH  15  16
ATOM     16  C   UNL     1      -0.828  -2.612  -0.004  0.00  0.00    +0.152 C 
BRANCH  16  17
ATOM     17  C   UNL     1      -1.962  -3.604   0.002  0.00  0.00    +0.146 A 
ATOM     18  N   UNL     1      -2.443  -4.048   1.150  0.00  0.00    -0.199 NA
ATOM     19  C   UNL     1      -3.449  -4.920   1.159  0.00  0.00    +0.217 A 
ATOM     20  N   UNL     1      -3.961  -5.353   0.013  0.00  0.00    -0.181 NA
ATOM     21  C   UNL     1      -3.471  -4.908  -1.140  0.00  0.00    +0.217 A 
ATOM     22  N   UNL     1      -2.470  -4.031  -1.141  0.00  0.00    -0.199 NA
ATOM     23  N   UNL     1      -4.000  -5.354  -2.333  0.00  0.00    -0.327 N 
ATOM     24  N   UNL     1      -3.954  -5.380   2.359  0.00  0.00    -0.327 N 
ATOM     25  H   UNL     1      -3.642  -5.029  -3.174  0.00  0.00    +0.145 HD
ATOM     26  H   UNL     1      -4.730  -5.993  -2.332  0.00  0.00    +0.145 HD
ATOM     27  H   UNL     1      -4.684  -6.019   2.365  0.00  0.00    +0.145 HD
ATOM     28  H   UNL     1      -3.579  -5.064   3.196  0.00  0.00    +0.145 HD
ENDBRANCH  16  17
ENDBRANCH  15  16
ENDBRANCH   7  15
TORSDOF 4
