REMARK  Name = ZINC02739741
REMARK  10 active torsions:
REMARK  status: ('A' for Active; 'I' for Inactive)
REMARK    1  A    between atoms: C_1  and  C_2
REMARK    2  A    between atoms: C_3  and  C_26
REMARK    3  A    between atoms: C_4  and  N_13
REMARK    4  A    between atoms: C_6  and  C_7
REMARK    5  A    between atoms: C_7  and  O_9
REMARK    6  A    between atoms: O_9  and  C_10
REMARK    7  A    between atoms: C_10  and  C_11
REMARK    8  A    between atoms: C_10  and  C_12
REMARK    9  A    between atoms: C_14  and  C_16
REMARK   10  A    between atoms: C_22  and  C_24
REMARK                            x       y       z     vdW  Elec       q    Type
REMARK                         _______ _______ _______ _____ _____    ______ ____
ROOT
ATOM      1  C   UNL     1      -1.277  -0.801   0.010  0.00  0.00    +0.046 C 
ATOM      2  C   UNL     1       0.002  -0.004   0.002  0.00  0.00    -0.015 A 
ATOM      3  C   UNL     1      -0.017   1.381   0.010  0.00  0.00    +0.069 A 
ATOM      4  C   UNL     1       1.212   2.050   0.002  0.00  0.00    +0.085 A 
ATOM      5  S   UNL     1       2.359   0.751  -0.016  0.00  0.00    -0.066 S 
ATOM      6  C   UNL     1       1.224  -0.623  -0.013  0.00  0.00    +0.102 A 
ENDROOT
BRANCH   3   7
ATOM      7  C   UNL     1      -1.285   2.123   0.020  0.00  0.00    +0.244 C 
ATOM      8  O   UNL     1      -1.804   2.425   1.078  0.00  0.00    -0.270 OA
ATOM      9  N   UNL     1      -1.872   2.470  -1.143  0.00  0.00    -0.325 N 
ATOM     10  H   UNL     1      -1.457   2.230  -1.986  0.00  0.00    +0.145 HD
ATOM     11  H   UNL     1      -2.709   2.960  -1.136  0.00  0.00    +0.145 HD
ENDBRANCH   3   7
BRANCH   4  12
ATOM     12  N   UNL     1       1.452   3.410   0.006  0.00  0.00    -0.279 N 
ATOM     13  C   UNL     1       2.718   3.871  -0.003  0.00  0.00    +0.221 C 
ATOM     14  O   UNL     1       3.647   3.092  -0.016  0.00  0.00    -0.275 OA
ATOM     15  H   UNL     1       0.708   4.033   0.016  0.00  0.00    +0.155 HD
BRANCH  13  16
ATOM     16  C   UNL     1       2.979   5.355   0.002  0.00  0.00    +0.089 C 
ATOM     17  C   UNL     1       2.346   5.989  -1.238  0.00  0.00    +0.013 C 
ATOM     18  C   UNL     1       2.956   5.368  -2.497  0.00  0.00    +0.001 C 
ATOM     19  C   UNL     1       4.465   5.620  -2.510  0.00  0.00    +0.001 C 
ATOM     20  C   UNL     1       5.099   4.986  -1.269  0.00  0.00    +0.015 C 
ATOM     21  C   UNL     1       4.489   5.607  -0.011  0.00  0.00    +0.114 C 
BRANCH  21  22
ATOM     22  C   UNL     1       5.112   4.983   1.210  0.00  0.00    +0.360 C 
ATOM     23  O   UNL     1       4.421   4.397   2.009  0.00  0.00    -0.246 OA
ATOM     24  O   UNL     1       6.436   5.078   1.411  0.00  0.00    -0.246 OA
ENDBRANCH  21  22
ENDBRANCH  13  16
ENDBRANCH   4  12
BRANCH   6  25
ATOM     25  C   UNL     1       1.522  -2.055  -0.024  0.00  0.00    +0.346 C 
ATOM     26  O   UNL     1       0.615  -2.865  -0.020  0.00  0.00    -0.244 OA
BRANCH  25  27
ATOM     27  O   UNL     1       2.803  -2.477  -0.038  0.00  0.00    -0.458 OA
BRANCH  27  28
ATOM     28  C   UNL     1       3.021  -3.889  -0.048  0.00  0.00    +0.171 C 
ATOM     29  C   UNL     1       4.327  -4.199  -0.784  0.00  0.00    +0.052 C 
ATOM     30  C   UNL     1       3.112  -4.401   1.390  0.00  0.00    +0.052 C 
ENDBRANCH  27  28
ENDBRANCH  25  27
ENDBRANCH   6  25
TORSDOF 7
