REMARK  Name = ZINC01287042
REMARK  6 active torsions:
REMARK  status: ('A' for Active; 'I' for Inactive)
REMARK    1  A    between atoms: C_4  and  C_7
REMARK    2  A    between atoms: C_7  and  N_8
REMARK    3  A    between atoms: C_9  and  N_17
REMARK    4  A    between atoms: C_18  and  C_20
REMARK    5  A    between atoms: C_20  and  S_21
REMARK    6  A    between atoms: S_21  and  C_22
REMARK                            x       y       z     vdW  Elec       q    Type
REMARK                         _______ _______ _______ _____ _____    ______ ____
ROOT
ATOM      1  N   UNL     1       5.432   8.816  -0.018  0.00  0.00    -0.271 N 
ATOM      2  C   UNL     1       4.748   7.659  -0.119  0.00  0.00    +0.229 C 
ATOM      3  O   UNL     1       5.346   6.607  -0.207  0.00  0.00    -0.275 OA
ATOM      4  H   UNL     1       4.956   9.661  -0.016  0.00  0.00    +0.156 HD
ENDROOT
BRANCH   1   6
ATOM      5  N   UNL     1       7.586   8.945  -1.036  0.00  0.00    -0.277 N 
ATOM      6  C   UNL     1       6.806   8.798   0.085  0.00  0.00    +0.114 A 
ATOM      7  C   UNL     1       7.404   8.639   1.301  0.00  0.00    +0.112 A 
ATOM      8  C   UNL     1       8.808   8.620   1.375  0.00  0.00    +0.256 A 
ATOM      9  O   UNL     1       9.363   8.476   2.450  0.00  0.00    -0.268 OA
ATOM     10  N   UNL     1       9.535   8.768   0.250  0.00  0.00    -0.275 N 
ATOM     11  H   UNL     1      10.534   8.759   0.300  0.00  0.00    +0.173 HD
ATOM     12  C   UNL     1       8.928   8.928  -0.940  0.00  0.00    +0.331 A 
ATOM     13  O   UNL     1       9.602   9.061  -1.943  0.00  0.00    -0.246 OA
BRANCH   5  14
ATOM     14  C   UNL     1       6.952   9.121  -2.346  0.00  0.00    +0.163 C 
BRANCH  14  18
ATOM     15  C   UNL     1       6.593  13.289  -3.205  0.00  0.00    +0.000 A 
ATOM     16  C   UNL     1       7.764  12.620  -3.508  0.00  0.00    +0.000 A 
ATOM     17  C   UNL     1       7.880  11.271  -3.229  0.00  0.00    +0.005 A 
ATOM     18  C   UNL     1       6.825  10.591  -2.649  0.00  0.00    -0.028 A 
ATOM     19  C   UNL     1       5.653  11.260  -2.351  0.00  0.00    +0.005 A 
ATOM     20  C   UNL     1       5.538  12.610  -2.625  0.00  0.00    +0.000 A 
ENDBRANCH  14  18
ENDBRANCH   5  14
ENDBRANCH   1   6
BRANCH   2  21
ATOM     21  C   UNL     1       3.241   7.671  -0.124  0.00  0.00    +0.173 C 
BRANCH  21  22
ATOM     22  S   UNL     1       2.624   5.976  -0.271  0.00  0.00    -0.076 S 
BRANCH  22  23
ATOM     23  C   UNL     1       0.888   6.280  -0.251  0.00  0.00    +0.197 A 
ATOM     24  N   UNL     1       0.303   7.453  -0.153  0.00  0.00    -0.122 NA
ATOM     25  N   UNL     1      -0.975   7.314  -0.170  0.00  0.00    -0.129 NA
ATOM     26  C   UNL     1      -1.286   6.036  -0.281  0.00  0.00    +0.162 A 
ATOM     27  N   UNL     1      -0.098   5.342  -0.335  0.00  0.00    -0.270 N 
ATOM     28  C   UNL     1      -0.087   3.963  -0.454  0.00  0.00    +0.058 A 
ATOM     29  C   UNL     1       1.109   3.261  -0.510  0.00  0.00    +0.027 A 
ATOM     30  C   UNL     1       1.097   1.887  -0.629  0.00  0.00    +0.002 A 
ATOM     31  C   UNL     1      -0.103   1.194  -0.693  0.00  0.00    +0.001 A 
ATOM     32  C   UNL     1      -1.302   1.871  -0.645  0.00  0.00    +0.010 A 
ATOM     33  C   UNL     1      -1.305   3.263  -0.519  0.00  0.00    -0.001 A 
ATOM     34  C   UNL     1      -2.565   4.011  -0.458  0.00  0.00    +0.013 A 
ATOM     35  C   UNL     1      -2.526   5.358  -0.343  0.00  0.00    +0.049 A 
ENDBRANCH  22  23
ENDBRANCH  21  22
ENDBRANCH   2  21
TORSDOF 6
