REMARK  Name = ZINC20271609
REMARK  7 active torsions:
REMARK  status: ('A' for Active; 'I' for Inactive)
REMARK    1  A    between atoms: C_3  and  C_6
REMARK    2  A    between atoms: N_8  and  C_9
REMARK    3  A    between atoms: N_8  and  C_19
REMARK    4  A    between atoms: C_9  and  C_10
REMARK    5  A    between atoms: C_19  and  C_20
REMARK    6  A    between atoms: C_29  and  N_30
REMARK    7  A    between atoms: C_33  and  O_36
REMARK                            x       y       z     vdW  Elec       q    Type
REMARK                         _______ _______ _______ _____ _____    ______ ____
ROOT
ATOM      1  C   UNL     1       8.061   0.124   1.129  0.00  0.00    +0.009 A 
ATOM      2  C   UNL     1       8.201   1.182   1.976  0.00  0.00    +0.018 A 
ATOM      3  C   UNL     1       9.467   1.413   2.552  0.00  0.00    -0.001 A 
ATOM      4  C   UNL     1       9.682   2.480   3.436  0.00  0.00    +0.014 A 
ATOM      5  C   UNL     1      10.921   2.683   3.973  0.00  0.00    -0.043 A 
ATOM      6  C   UNL     1      11.981   1.836   3.651  0.00  0.00    -0.042 A 
ATOM      7  C   UNL     1      11.803   0.789   2.795  0.00  0.00    +0.030 A 
ATOM      8  C   UNL     1      10.542   0.551   2.225  0.00  0.00    +0.048 A 
ATOM      9  N   UNL     1      10.345  -0.470   1.383  0.00  0.00    -0.343 N 
ATOM     10  C   UNL     1       9.164  -0.694   0.845  0.00  0.00    +0.104 A 
ATOM     11  C   UNL     1      13.229   2.289   4.381  0.00  0.00    +0.036 C 
ATOM     12  C   UNL     1      12.937   3.737   4.825  0.00  0.00    +0.009 C 
ATOM     13  C   UNL     1      11.398   3.750   4.936  0.00  0.00    +0.036 C 
ATOM     14  H   UNL     1      11.179  -1.141   1.128  0.00  0.00    +0.167 HD
ENDROOT
BRANCH  10  15
ATOM     15  N   UNL     1       9.008  -1.765  -0.022  0.00  0.00    -0.316 N 
ATOM     16  C   UNL     1       9.304  -1.369  -1.405  0.00  0.00    +0.109 C 
ATOM     17  C   UNL     1       8.982  -2.530  -2.349  0.00  0.00    +0.050 C 
ATOM     18  C   UNL     1       9.821  -3.749  -1.956  0.00  0.00    +0.118 C 
ATOM     19  C   UNL     1       9.529  -4.111  -0.497  0.00  0.00    +0.050 C 
ATOM     20  C   UNL     1       9.835  -2.904   0.393  0.00  0.00    +0.109 C 
BRANCH  18  21
ATOM     21  O   UNL     1       9.483  -4.853  -2.799  0.00  0.00    -0.392 OA
ATOM     22  H   UNL     1       9.986  -5.822  -2.664  0.00  0.00    +0.210 HD
ENDBRANCH  18  21
ENDBRANCH  10  15
BRANCH   1  23
ATOM     23  C   UNL     1       6.725  -0.162   0.493  0.00  0.00    +0.147 C 
BRANCH  23  26
ATOM     24  C   UNL     1       6.069  -2.473   0.905  0.00  0.00    +0.282 C 
ATOM     25  O   UNL     1       6.627  -2.787  -0.130  0.00  0.00    -0.267 OA
ATOM     26  N   UNL     1       6.019  -1.178   1.277  0.00  0.00    -0.286 N 
BRANCH  24  29
ATOM     27  C   UNL     1       4.768  -5.451   2.567  0.00  0.00    +0.042 A 
ATOM     28  C   UNL     1       5.479  -4.848   1.518  0.00  0.00    +0.054 A 
ATOM     29  C   UNL     1       5.452  -3.503   1.746  0.00  0.00    +0.189 A 
ATOM     30  O   UNL     1       4.761  -3.287   2.885  0.00  0.00    -0.458 OA
ATOM     31  C   UNL     1       4.343  -4.459   3.380  0.00  0.00    +0.196 A 
ENDBRANCH  24  29
BRANCH  26  32
ATOM     32  C   UNL     1       5.259  -0.788   2.467  0.00  0.00    +0.143 C 
BRANCH  32  33
ATOM     33  C   UNL     1       3.844  -0.451   2.071  0.00  0.00    -0.026 A 
ATOM     34  C   UNL     1       2.906  -1.457   1.941  0.00  0.00    +0.009 A 
ATOM     35  C   UNL     1       1.607  -1.153   1.577  0.00  0.00    +0.050 A 
ATOM     36  C   UNL     1       1.243   0.163   1.342  0.00  0.00    +0.166 A 
ATOM     37  C   UNL     1       2.189   1.177   1.472  0.00  0.00    +0.167 A 
ATOM     38  C   UNL     1       3.488   0.865   1.837  0.00  0.00    +0.054 A 
ATOM     39  O   UNL     1       1.590   2.371   1.190  0.00  0.00    -0.453 OA
ATOM     40  C   UNL     1       0.175   2.123   1.284  0.00  0.00    +0.466 C 
ATOM     41  O   UNL     1       0.052   0.721   0.977  0.00  0.00    -0.453 OA
ENDBRANCH  32  33
ENDBRANCH  26  32
ENDBRANCH  23  26
ENDBRANCH   1  23
TORSDOF 7
