REMARK  Name = ZINC63165657
REMARK  9 active torsions:
REMARK  status: ('A' for Active; 'I' for Inactive)
REMARK    1  A    between atoms: C_7  and  C_10
REMARK    2  A    between atoms: C_13  and  S_22
REMARK    3  A    between atoms: N_14  and  C_15
REMARK    4  A    between atoms: S_22  and  C_23
REMARK    5  A    between atoms: C_23  and  C_24
REMARK    6  A    between atoms: C_24  and  C_26
REMARK    7  A    between atoms: C_24  and  C_30
REMARK    8  A    between atoms: C_26  and  C_27
REMARK    9  A    between atoms: C_27  and  C_28
REMARK                            x       y       z     vdW  Elec       q    Type
REMARK                         _______ _______ _______ _____ _____    ______ ____
ROOT
ATOM      1  C   UNL     1       0.675  -3.130  -0.022  0.00  0.00    +0.168 A 
ATOM      2  N   UNL     1      -0.649  -3.067  -0.015  0.00  0.00    -0.128 NA
ATOM      3  N   UNL     1      -1.141  -4.254  -0.016  0.00  0.00    -0.122 NA
ATOM      4  C   UNL     1      -0.168  -5.152  -0.024  0.00  0.00    +0.196 A 
ATOM      5  N   UNL     1       1.014  -4.473  -0.033  0.00  0.00    -0.270 N 
ENDROOT
BRANCH   1  12
ATOM      6  C   UNL     1      -0.016   1.354   0.009  0.00  0.00    +0.001 A 
ATOM      7  C   UNL     1       1.163   2.101   0.002  0.00  0.00    +0.002 A 
ATOM      8  C   UNL     1       2.384   1.511  -0.013  0.00  0.00    +0.026 A 
ATOM      9  C   UNL     1       2.483   0.096  -0.021  0.00  0.00    +0.043 A 
ATOM     10  N   UNL     1       3.531  -0.705  -0.036  0.00  0.00    -0.380 N 
ATOM     11  C   UNL     1       3.075  -2.098  -0.039  0.00  0.00    +0.152 C 
ATOM     12  C   UNL     1       1.563  -2.043  -0.024  0.00  0.00    +0.025 C 
ATOM     13  C   UNL     1       1.237  -0.687  -0.013  0.00  0.00    +0.006 A 
ATOM     14  C   UNL     1       0.002  -0.004   0.002  0.00  0.00    +0.010 A 
ATOM     15  H   UNL     1       4.457  -0.417  -0.043  0.00  0.00    +0.160 HD
ENDBRANCH   1  12
BRANCH   5  16
ATOM     16  C   UNL     1       2.305  -5.020  -0.048  0.00  0.00    +0.051 A 
ATOM     17  C   UNL     1       3.135  -4.813  -1.142  0.00  0.00    +0.028 A 
ATOM     18  C   UNL     1       4.406  -5.353  -1.154  0.00  0.00    +0.022 A 
ATOM     19  C   UNL     1       4.852  -6.100  -0.078  0.00  0.00    +0.041 A 
ATOM     20  C   UNL     1       4.027  -6.308   1.012  0.00  0.00    +0.022 A 
ATOM     21  C   UNL     1       2.757  -5.765   1.033  0.00  0.00    +0.028 A 
ATOM     22 CL   UNL     1       6.451  -6.777  -0.097  0.00  0.00    -0.084 Cl
ENDBRANCH   5  16
BRANCH   4  23
ATOM     23  S   UNL     1      -0.364  -6.903  -0.028  0.00  0.00    -0.084 S 
BRANCH  23  24
ATOM     24  C   UNL     1      -2.162  -7.143  -0.020  0.00  0.00    +0.095 C 
BRANCH  24  25
ATOM     25  C   UNL     1      -2.477  -8.640  -0.023  0.00  0.00    +0.103 C 
BRANCH  25  26
ATOM     26  C   UNL     1      -1.999  -9.245   1.231  0.00  0.00    +0.067 C 
ATOM     27  N   UNL     1      -1.629  -9.711   2.199  0.00  0.00    -0.196 NA
ENDBRANCH  25  26
BRANCH  25  28
ATOM     28  C   UNL     1      -3.989  -8.843  -0.142  0.00  0.00    +0.034 C 
BRANCH  28  29
ATOM     29  C   UNL     1      -4.295 -10.337  -0.270  0.00  0.00    +0.120 C 
BRANCH  29  30
ATOM     30  C   UNL     1      -5.749 -10.532  -0.385  0.00  0.00    +0.063 C 
ATOM     31  N   UNL     1      -6.872 -10.682  -0.473  0.00  0.00    -0.197 NA
ENDBRANCH  29  30
ENDBRANCH  28  29
ENDBRANCH  25  28
ENDBRANCH  24  25
ENDBRANCH  23  24
ENDBRANCH   4  23
TORSDOF 9
