REMARK  Name = ZINC36309332
REMARK  6 active torsions:
REMARK  status: ('A' for Active; 'I' for Inactive)
REMARK    1  A    between atoms: C_1  and  C_2
REMARK    2  A    between atoms: C_7  and  C_14
REMARK    3  A    between atoms: C_14  and  C_16
REMARK    4  A    between atoms: C_14  and  N_28
REMARK    5  A    between atoms: N_20  and  C_21
REMARK    6  A    between atoms: C_21  and  C_22
REMARK                            x       y       z     vdW  Elec       q    Type
REMARK                         _______ _______ _______ _____ _____    ______ ____
ROOT
ATOM      1  C   UNL     1       0.096  -6.383   1.200  0.00  0.00    +0.039 C 
ENDROOT
BRANCH   1   8
ATOM      2  C   UNL     1      -0.018   1.503   0.010  0.00  0.00    +0.044 C 
ATOM      3  C   UNL     1       0.002  -0.004   0.002  0.00  0.00    -0.048 A 
ATOM      4  C   UNL     1       0.006  -0.684  -1.208  0.00  0.00    +0.004 A 
ATOM      5  C   UNL     1       0.024  -2.050  -1.238  0.00  0.00    +0.010 A 
ATOM      6  C   UNL     1       0.040  -2.769  -0.039  0.00  0.00    -0.001 A 
ATOM      7  C   UNL     1       0.060  -4.233  -0.034  0.00  0.00    +0.017 A 
ATOM      8  C   UNL     1       0.075  -4.877   1.159  0.00  0.00    +0.011 A 
ATOM      9  C   UNL     1       0.070  -4.142   2.364  0.00  0.00    +0.251 A 
ATOM     10  O   UNL     1       0.084  -4.740   3.426  0.00  0.00    -0.268 OA
ATOM     11  N   UNL     1       0.052  -2.797   2.370  0.00  0.00    -0.322 N 
ATOM     12  H   UNL     1       0.050  -2.323   3.216  0.00  0.00    +0.169 HD
ATOM     13  C   UNL     1       0.036  -2.083   1.190  0.00  0.00    +0.049 A 
ATOM     14  C   UNL     1       0.023  -0.692   1.196  0.00  0.00    +0.029 A 
ENDBRANCH   1   8
BRANCH   1  15
ATOM     15  N   UNL     1      -1.028  -6.867   2.013  0.00  0.00    +0.390 N 
ATOM     16  C   UNL     1      -1.002  -8.334   2.058  0.00  0.00    -0.077 C 
ATOM     17  C   UNL     1      -2.122  -8.841   2.969  0.00  0.00    -0.018 C 
ATOM     18  C   UNL     1      -3.472  -8.370   2.419  0.00  0.00    +0.003 C 
ATOM     19  C   UNL     1      -3.460  -6.843   2.306  0.00  0.00    -0.044 C 
ATOM     20  C   UNL     1      -2.291  -6.410   1.420  0.00  0.00    -0.071 C 
ATOM     21  C   UNL     1      -3.300  -6.231   3.699  0.00  0.00    +0.005 C 
ATOM     22  C   UNL     1      -4.468  -6.669   4.586  0.00  0.00    +0.000 C 
ATOM     23  C   UNL     1      -5.784  -6.194   3.967  0.00  0.00    +0.000 C 
ATOM     24  C   UNL     1      -5.944  -6.806   2.574  0.00  0.00    +0.000 C 
ATOM     25  C   UNL     1      -4.776  -6.368   1.688  0.00  0.00    +0.005 C 
ATOM     26  H   UNL     1      -0.946  -6.502   2.950  0.00  0.00    -0.080 HD
ENDBRANCH   1  15
BRANCH   1  27
ATOM     27  C   UNL     1       1.393  -6.852   1.807  0.00  0.00    +0.143 A 
ATOM     28  N   UNL     1       1.718  -6.823   3.076  0.00  0.00    -0.115 NA
ATOM     29  N   UNL     1       2.905  -7.310   3.194  0.00  0.00    -0.023 NA
ATOM     30  N   UNL     1       3.346  -7.648   2.032  0.00  0.00    -0.044 NA
ATOM     31  N   UNL     1       2.440  -7.387   1.151  0.00  0.00    -0.228 N 
BRANCH  31  32
ATOM     32  C   UNL     1       2.535  -7.624  -0.291  0.00  0.00    +0.178 C 
BRANCH  32  33
ATOM     33  C   UNL     1       3.128  -6.389  -0.973  0.00  0.00    +0.140 C 
ATOM     34  C   UNL     1       3.321  -6.652  -2.487  0.00  0.00    +0.035 C 
ATOM     35  C   UNL     1       3.281  -5.203  -3.046  0.00  0.00    +0.031 C 
ATOM     36  C   UNL     1       2.269  -4.517  -2.103  0.00  0.00    +0.160 C 
ATOM     37  O   UNL     1       2.210  -5.287  -0.895  0.00  0.00    -0.375 OA
ENDBRANCH  32  33
ENDBRANCH  31  32
ENDBRANCH   1  27
TORSDOF 5
