REMARK  Name = ZINC13778959
REMARK  3 active torsions:
REMARK  status: ('A' for Active; 'I' for Inactive)
REMARK    1  A    between atoms: C_16  and  N_18
REMARK    2  A    between atoms: C_24  and  C_26
REMARK    3  A    between atoms: C_26  and  C_27
REMARK                            x       y       z     vdW  Elec       q    Type
REMARK                         _______ _______ _______ _____ _____    ______ ____
ROOT
ATOM      1  C   UNL     1       0.595   7.351   0.005  0.00  0.00    +0.020 A 
ATOM      2  C   UNL     1       0.843   5.991   0.009  0.00  0.00    +0.007 A 
ATOM      3  C   UNL     1       2.142   5.515  -0.006  0.00  0.00    -0.017 A 
ATOM      4  C   UNL     1       3.207   6.412  -0.018  0.00  0.00    -0.019 A 
ATOM      5  C   UNL     1       2.948   7.790  -0.025  0.00  0.00    +0.028 A 
ATOM      6  C   UNL     1       1.648   8.250  -0.014  0.00  0.00    +0.042 A 
ATOM      7 CL   UNL     1       1.332   9.957  -0.025  0.00  0.00    -0.084 Cl
ATOM      8  C   UNL     1       4.598   5.953  -0.022  0.00  0.00    +0.009 C 
ATOM      9  C   UNL     1       5.082   4.940  -0.707  0.00  0.00    +0.010 C 
ATOM     10  C   UNL     1       4.330   4.063  -1.605  0.00  0.00    -0.001 A 
ATOM     11  C   UNL     1       4.918   3.655  -2.814  0.00  0.00    +0.026 A 
ATOM     12  C   UNL     1       4.197   2.821  -3.649  0.00  0.00    +0.037 A 
ATOM     13  C   UNL     1       2.934   2.406  -3.260  0.00  0.00    +0.126 A 
ATOM     14  N   UNL     1       2.409   2.806  -2.120  0.00  0.00    -0.256 NA
ATOM     15  C   UNL     1       3.052   3.612  -1.292  0.00  0.00    +0.070 A 
ATOM     16  C   UNL     1       2.373   4.032  -0.019  0.00  0.00    +0.137 C 
ATOM     17 BR   UNL     1       4.930   2.248  -5.295  0.00  0.00    -0.049 Br
ENDROOT
BRANCH  16  18
ATOM     18  N   UNL     1       3.220   3.664   1.124  0.00  0.00    -0.287 NA
ATOM     19  C   UNL     1       3.503   2.223   1.127  0.00  0.00    +0.104 C 
ATOM     20  C   UNL     1       4.529   1.910   2.221  0.00  0.00    +0.123 C 
ATOM     21  N   UNL     1       4.032   2.448   3.496  0.00  0.00    -0.299 N 
ATOM     22  C   UNL     1       3.598   3.853   3.536  0.00  0.00    +0.123 C 
ATOM     23  C   UNL     1       2.608   4.090   2.390  0.00  0.00    +0.104 C 
ATOM     24  C   UNL     1       3.976   1.675   4.599  0.00  0.00    +0.216 C 
ATOM     25  O   UNL     1       3.563   2.136   5.642  0.00  0.00    -0.276 OA
BRANCH  24  26
ATOM     26  C   UNL     1       4.426   0.238   4.535  0.00  0.00    +0.099 C 
BRANCH  26  27
ATOM     27  C   UNL     1       4.260  -0.409   5.912  0.00  0.00    -0.006 C 
ATOM     28  C   UNL     1       5.205   0.264   6.911  0.00  0.00    -0.015 C 
ATOM     29  C   UNL     1       5.079  -0.429   8.270  0.00  0.00    -0.082 C 
ATOM     30  N   UNL     1       5.417  -1.851   8.130  0.00  0.00    +0.379 N 
ATOM     31  C   UNL     1       4.492  -2.528   7.211  0.00  0.00    -0.082 C 
ATOM     32  C   UNL     1       4.601  -1.899   5.820  0.00  0.00    -0.015 C 
ATOM     33  H   UNL     1       6.438  -1.949   7.734  0.00  0.00    -0.086 HD
ATOM     34  H   UNL     1       5.356  -2.341   9.113  0.00  0.00    -0.086 HD
ENDBRANCH  26  27
ENDBRANCH  24  26
ENDBRANCH  16  18
TORSDOF 3
