REMARK  Name = ZINC34791578
REMARK  12 active torsions:
REMARK  status: ('A' for Active; 'I' for Inactive)
REMARK    1  A    between atoms: C_1  and  C_2
REMARK    2  A    between atoms: C_2  and  C_3
REMARK    3  A    between atoms: C_2  and  C_4
REMARK    4  A    between atoms: C_4  and  C_5
REMARK    5  A    between atoms: C_5  and  C_7
REMARK    6  A    between atoms: C_5  and  N_14
REMARK    7  A    between atoms: N_9  and  C_10
REMARK    8  A    between atoms: C_10  and  C_11
REMARK    9  A    between atoms: C_20  and  C_29
REMARK   10  A    between atoms: N_25  and  C_26
REMARK   11  A    between atoms: C_26  and  C_27
REMARK   12  A    between atoms: C_34  and  C_35
REMARK                            x       y       z     vdW  Elec       q    Type
REMARK                         _______ _______ _______ _____ _____    ______ ____
ROOT
ATOM      1  N   UNL     1      -1.654  -1.943   1.086  0.00  0.00    -0.281 N 
ATOM      2  C   UNL     1      -0.507  -2.858   0.991  0.00  0.00    +0.160 C 
ATOM      3  C   UNL     1      -0.189  -3.234   2.421  0.00  0.00    +0.043 C 
ATOM      4  C   UNL     1      -1.081  -2.580   3.192  0.00  0.00    +0.058 C 
ATOM      5  C   UNL     1      -1.949  -1.808   2.392  0.00  0.00    +0.247 C 
ATOM      6  O   UNL     1      -2.849  -1.113   2.826  0.00  0.00    -0.270 OA
ATOM      7  C   UNL     1      -0.994  -2.777   4.692  0.00  0.00    +0.142 C 
ATOM      8  N   UNL     1       0.066  -3.672   5.186  0.00  0.00    -0.288 N 
ATOM      9  C   UNL     1       0.884  -4.255   4.288  0.00  0.00    +0.307 C 
ATOM     10  O   UNL     1       1.762  -4.996   4.686  0.00  0.00    -0.252 OA
ATOM     11  N   UNL     1       0.761  -4.045   2.971  0.00  0.00    -0.253 N 
ATOM     12  H   UNL     1       0.173  -3.838   6.136  0.00  0.00    +0.151 HD
ENDROOT
BRANCH   7  13
ATOM     13  C   UNL     1      -2.317  -3.318   5.168  0.00  0.00    -0.011 A 
ATOM     14  C   UNL     1      -2.683  -4.616   4.863  0.00  0.00    +0.006 A 
ATOM     15  C   UNL     1      -3.897  -5.112   5.299  0.00  0.00    +0.000 A 
ATOM     16  C   UNL     1      -4.745  -4.311   6.041  0.00  0.00    +0.001 A 
ATOM     17  C   UNL     1      -4.379  -3.014   6.346  0.00  0.00    +0.013 A 
ATOM     18  C   UNL     1      -3.163  -2.519   5.913  0.00  0.00    +0.060 A 
BRANCH  18  19
ATOM     19  C   UNL     1      -2.761  -1.106   6.251  0.00  0.00    +0.418 C 
ATOM     20  F   UNL     1      -3.800  -0.480   6.949  0.00  0.00    -0.166 F 
ATOM     21  F   UNL     1      -1.611  -1.125   7.046  0.00  0.00    -0.166 F 
ATOM     22  F   UNL     1      -2.501  -0.401   5.071  0.00  0.00    -0.166 F 
ENDBRANCH  18  19
ENDBRANCH   7  13
BRANCH   1  23
ATOM     23  C   UNL     1      -2.343  -1.294  -0.032  0.00  0.00    +0.163 C 
BRANCH  23  24
ATOM     24  C   UNL     1      -3.761  -1.799  -0.110  0.00  0.00    +0.234 C 
ATOM     25  O   UNL     1      -4.156  -2.620   0.690  0.00  0.00    -0.274 OA
ATOM     26  N   UNL     1      -4.589  -1.338  -1.068  0.00  0.00    -0.314 N 
ATOM     27  H   UNL     1      -4.272  -0.681  -1.707  0.00  0.00    +0.149 HD
BRANCH  26  28
ATOM     28  C   UNL     1      -5.967  -1.829  -1.143  0.00  0.00    +0.107 C 
BRANCH  28  29
ATOM     29  C   UNL     1      -6.686  -1.151  -2.311  0.00  0.00    +0.006 C 
ATOM     30  C   UNL     1      -7.880  -0.252  -1.979  0.00  0.00    +0.005 C 
ATOM     31  C   UNL     1      -8.108  -1.617  -2.631  0.00  0.00    +0.005 C 
ENDBRANCH  28  29
ENDBRANCH  26  28
ENDBRANCH  23  24
BRANCH  23  32
ATOM     32  C   UNL     1      -2.353   0.221   0.186  0.00  0.00    +0.035 C 
BRANCH  32  34
ATOM     33  C   UNL     1      -0.303   0.544  -1.207  0.00  0.00    +0.007 C 
ATOM     34  C   UNL     1      -0.915   0.746   0.181  0.00  0.00    -0.015 C 
ATOM     35  C   UNL     1      -0.916   2.236   0.526  0.00  0.00    +0.007 C 
ENDBRANCH  32  34
ENDBRANCH  23  32
ENDBRANCH   1  23
BRANCH  11  36
ATOM     36  C   UNL     1       1.698  -4.724   2.071  0.00  0.00    +0.141 C 
BRANCH  36  37
ATOM     37  C   UNL     1       2.908  -3.853   1.855  0.00  0.00    -0.015 C 
ATOM     38  C   UNL     1       4.106  -4.323   2.101  0.00  0.00    +0.005 C 
ENDBRANCH  36  37
ENDBRANCH  11  36
TORSDOF 10
