REMARK  Name = ZINC08136074
REMARK  8 active torsions:
REMARK  status: ('A' for Active; 'I' for Inactive)
REMARK    1  A    between atoms: C_1  and  C_2
REMARK    2  A    between atoms: C_15  and  S_17
REMARK    3  A    between atoms: S_17  and  C_18
REMARK    4  A    between atoms: C_18  and  C_19
REMARK    5  A    between atoms: C_25  and  C_26
REMARK    6  A    between atoms: C_25  and  N_56
REMARK    7  A    between atoms: C_26  and  C_27
REMARK    8  A    between atoms: C_26  and  C_28
REMARK                            x       y       z     vdW  Elec       q    Type
REMARK                         _______ _______ _______ _____ _____    ______ ____
ROOT
ATOM      1  C   UNL     1     -13.536  -1.080  -4.544  0.00  0.00    +0.008 C 
ATOM      2  C   UNL     1     -12.070  -0.785  -4.872  0.00  0.00    -0.009 C 
ATOM      3  C   UNL     1     -11.964   0.548  -5.617  0.00  0.00    +0.008 C 
ATOM      4  C   UNL     1     -10.547   0.728  -6.162  0.00  0.00    +0.037 C 
ATOM      5  C   UNL     1      -9.552   0.529  -5.022  0.00  0.00    -0.023 A 
ATOM      6  C   UNL     1      -9.918  -0.105  -3.890  0.00  0.00    -0.004 A 
ATOM      7  S   UNL     1      -8.469  -0.101  -2.870  0.00  0.00    -0.073 S 
ATOM      8  C   UNL     1      -7.371   0.756  -3.971  0.00  0.00    +0.117 A 
ATOM      9  C   UNL     1      -8.171   1.010  -5.097  0.00  0.00    +0.075 A 
ATOM     10  C   UNL     1      -7.533   1.708  -6.171  0.00  0.00    +0.261 A 
ATOM     11  O   UNL     1      -8.149   1.972  -7.189  0.00  0.00    -0.267 OA
ATOM     12  N   UNL     1      -6.242   2.067  -6.042  0.00  0.00    -0.301 N 
ATOM     13  H   UNL     1      -5.792   2.555  -6.789  0.00  0.00    +0.171 HD
ATOM     14  C   UNL     1      -5.537   1.778  -4.910  0.00  0.00    +0.170 A 
ATOM     15  N   UNL     1      -6.099   1.133  -3.908  0.00  0.00    -0.216 NA
ATOM     16  C   UNL     1     -11.262  -0.687  -3.570  0.00  0.00    +0.046 C 
ENDROOT
BRANCH  14  17
ATOM     17  S   UNL     1      -3.849   2.269  -4.789  0.00  0.00    -0.085 S 
BRANCH  17  18
ATOM     18  C   UNL     1      -3.457   1.641  -3.137  0.00  0.00    +0.107 C 
BRANCH  18  19
ATOM     19  C   UNL     1      -1.998   1.961  -2.803  0.00  0.00    +0.112 C 
ATOM     20  C   UNL     1      -1.630   1.328  -1.458  0.00  0.00    -0.046 C 
ATOM     21  C   UNL     1      -0.113   3.163  -1.031  0.00  0.00    -0.050 C 
ATOM     22  C   UNL     1      -0.496   3.778  -2.380  0.00  0.00    +0.141 C 
ATOM     23  O   UNL     1      -1.827   3.378  -2.719  0.00  0.00    -0.379 OA
ATOM     24  N   UNL     1      -0.237   1.694  -1.127  0.00  0.00    +0.383 N 
ATOM     25  H   UNL     1       0.384   1.354  -1.872  0.00  0.00    -0.082 HD
BRANCH  24  26
ATOM     26  C   UNL     1       0.161   1.067   0.152  0.00  0.00    -0.076 C 
BRANCH  26  27
ATOM     27  C   UNL     1      -0.084  -0.441   0.067  0.00  0.00    -0.034 C 
ATOM     28  C   UNL     1       0.776  -1.034  -1.051  0.00  0.00    +0.005 C 
ATOM     29  C   UNL     1       0.290  -1.094   1.399  0.00  0.00    +0.005 C 
ENDBRANCH  26  27
ENDBRANCH  24  26
ENDBRANCH  18  19
ENDBRANCH  17  18
ENDBRANCH  14  17
TORSDOF 5
