REMARK  Name = ZINC07801579
REMARK  7 active torsions:
REMARK  status: ('A' for Active; 'I' for Inactive)
REMARK    1  A    between atoms: C_1  and  C_2
REMARK    2  A    between atoms: N_10  and  N_14
REMARK    3  A    between atoms: C_15  and  C_17
REMARK    4  A    between atoms: C_17  and  N_48
REMARK    5  A    between atoms: C_18  and  C_20
REMARK    6  A    between atoms: C_18  and  C_21
REMARK    7  A    between atoms: C_18  and  N_48
REMARK                            x       y       z     vdW  Elec       q    Type
REMARK                         _______ _______ _______ _____ _____    ______ ____
ROOT
ATOM      1  N   UNL     1      -0.011   0.966   0.007  0.00  0.00    -0.225 N 
ATOM      2  C   UNL     1      -1.187   1.624   0.017  0.00  0.00    +0.213 C 
ATOM      3  O   UNL     1      -1.204   2.837   0.023  0.00  0.00    -0.276 OA
ATOM      4  H   UNL     1       0.002  -0.004   0.002  0.00  0.00    +0.173 HD
ENDROOT
BRANCH   1  14
ATOM      5  C   UNL     1       6.872   4.883   0.522  0.00  0.00    +0.007 C 
ATOM      6  C   UNL     1       5.707   4.029   1.024  0.00  0.00    -0.014 C 
ATOM      7  C   UNL     1       4.400   4.811   0.874  0.00  0.00    +0.006 C 
ATOM      8  C   UNL     1       3.236   3.960   1.388  0.00  0.00    +0.035 C 
ATOM      9  C   UNL     1       3.164   2.659   0.596  0.00  0.00    +0.114 C 
ATOM     10  C   UNL     1       4.469   1.881   0.716  0.00  0.00    +0.035 C 
ATOM     11  C   UNL     1       5.628   2.740   0.204  0.00  0.00    +0.006 C 
ATOM     12  C   UNL     1       2.002   1.817   1.071  0.00  0.00    +0.263 C 
ATOM     13  O   UNL     1       1.834   1.358   2.180  0.00  0.00    -0.271 OA
ATOM     14  N   UNL     1       1.193   1.683  -0.000  0.00  0.00    -0.137 N 
ATOM     15  C   UNL     1       1.685   2.315  -1.073  0.00  0.00    +0.326 C 
ATOM     16  O   UNL     1       1.137   2.333  -2.157  0.00  0.00    -0.251 OA
ATOM     17  N   UNL     1       2.854   2.931  -0.814  0.00  0.00    -0.284 N 
ATOM     18  H   UNL     1       3.388   3.449  -1.437  0.00  0.00    +0.151 HD
ENDBRANCH   1  14
BRANCH   2  19
ATOM     19  C   UNL     1      -2.482   0.853   0.018  0.00  0.00    +0.017 C 
BRANCH  19  20
ATOM     20  N   UNL     1      -3.610   1.803   0.029  0.00  0.00    +0.391 N 
ATOM     21  H   UNL     1      -3.560   2.397  -0.806  0.00  0.00    -0.084 HD
ATOM     22  H   UNL     1      -3.552   2.388   0.870  0.00  0.00    -0.084 HD
BRANCH  20  23
ATOM     23  C   UNL     1      -4.893   1.074   0.031  0.00  0.00    -0.007 C 
ATOM     24  C   UNL     1      -5.270   0.708   1.468  0.00  0.00    -0.006 C 
BRANCH  23  25
ATOM     25  C   UNL     1      -5.963   1.956  -0.559  0.00  0.00    +0.091 A 
ATOM     26  C   UNL     1      -6.944   1.554  -1.388  0.00  0.00    +0.043 A 
ATOM     27  C   UNL     1      -7.716   2.699  -1.693  0.00  0.00    +0.041 A 
ATOM     28  C   UNL     1      -7.161   3.731  -1.033  0.00  0.00    +0.195 A 
ATOM     29  O   UNL     1      -6.104   3.273  -0.343  0.00  0.00    -0.469 OA
ENDBRANCH  23  25
ENDBRANCH  20  23
ENDBRANCH  19  20
ENDBRANCH   2  19
TORSDOF 5
