REMARK  Name = ZINC40410121
REMARK  9 active torsions:
REMARK  status: ('A' for Active; 'I' for Inactive)
REMARK    1  A    between atoms: C_1  and  C_2
REMARK    2  A    between atoms: C_5  and  C_9
REMARK    3  A    between atoms: C_6  and  C_8
REMARK    4  A    between atoms: C_9  and  N_10
REMARK    5  A    between atoms: C_19  and  C_21
REMARK    6  A    between atoms: C_25  and  O_29
REMARK    7  A    between atoms: C_26  and  O_27
REMARK    8  A    between atoms: O_27  and  C_28
REMARK    9  A    between atoms: O_29  and  C_30
REMARK                            x       y       z     vdW  Elec       q    Type
REMARK                         _______ _______ _______ _____ _____    ______ ____
ROOT
ATOM      1  N   UNL     1      -0.985  -4.745   0.106  0.00  0.00    +0.391 N 
ATOM      2  C   UNL     1      -1.861  -4.445  -1.029  0.00  0.00    -0.075 C 
ATOM      3  C   UNL     1      -3.285  -4.917  -0.762  0.00  0.00    +0.003 C 
ATOM      4  C   UNL     1      -3.607  -4.772   0.729  0.00  0.00    +0.119 C 
ATOM      5  N   UNL     1      -3.199  -5.997   1.425  0.00  0.00    -0.352 N 
ATOM      6  C   UNL     1      -3.932  -6.689   2.341  0.00  0.00    +0.086 A 
ATOM      7  C   UNL     1      -3.200  -7.742   2.759  0.00  0.00    +0.019 A 
ATOM      8  C   UNL     1      -1.971  -7.701   2.071  0.00  0.00    +0.021 A 
ATOM      9  C   UNL     1      -2.000  -6.628   1.257  0.00  0.00    +0.010 A 
ATOM     10  C   UNL     1      -0.905  -6.198   0.310  0.00  0.00    +0.014 C 
ATOM     11  H   UNL     1      -1.356  -4.310   0.937  0.00  0.00    -0.080 HD
ENDROOT
BRANCH  10  12
ATOM     12  C   UNL     1       0.436  -6.550   0.898  0.00  0.00    -0.010 A 
ATOM     13  C   UNL     1       0.843  -5.973   2.087  0.00  0.00    +0.006 A 
ATOM     14  C   UNL     1       2.074  -6.294   2.630  0.00  0.00    +0.004 A 
ATOM     15  C   UNL     1       2.903  -7.194   1.985  0.00  0.00    +0.049 A 
ATOM     16  C   UNL     1       2.501  -7.776   0.794  0.00  0.00    +0.162 A 
ATOM     17  C   UNL     1       1.260  -7.457   0.251  0.00  0.00    +0.163 A 
BRANCH  17  18
ATOM     18  O   UNL     1       0.859  -8.030  -0.915  0.00  0.00    -0.491 OA
ATOM     19  C   UNL     1       1.204  -7.350  -2.124  0.00  0.00    +0.277 C 
ENDBRANCH  17  18
BRANCH  16  20
ATOM     20  O   UNL     1       3.316  -8.661   0.159  0.00  0.00    -0.491 OA
ATOM     21  C   UNL     1       4.572  -8.944   0.778  0.00  0.00    +0.277 C 
ENDBRANCH  16  20
ENDBRANCH  10  12
BRANCH   1  22
ATOM     22  C   UNL     1       0.359  -4.216  -0.164  0.00  0.00    -0.041 C 
BRANCH  22  27
ATOM     23  C   UNL     1       0.082   1.523  -0.772  0.00  0.00    +0.044 C 
ATOM     24  C   UNL     1       0.154   0.027  -0.614  0.00  0.00    -0.050 A 
ATOM     25  C   UNL     1       0.226  -0.784  -1.731  0.00  0.00    +0.003 A 
ATOM     26  C   UNL     1       0.292  -2.157  -1.585  0.00  0.00    +0.002 A 
ATOM     27  C   UNL     1       0.287  -2.720  -0.322  0.00  0.00    -0.061 A 
ATOM     28  C   UNL     1       0.217  -1.909   0.795  0.00  0.00    -0.049 A 
ATOM     29  C   UNL     1       0.154  -0.535   0.649  0.00  0.00    +0.007 A 
ATOM     30  C   UNL     1       0.211  -2.522   2.171  0.00  0.00    +0.044 C 
ENDBRANCH  22  27
ENDBRANCH   1  22
TORSDOF 5
