REMARK  Name = ZINC62412064
REMARK  10 active torsions:
REMARK  status: ('A' for Active; 'I' for Inactive)
REMARK    1  A    between atoms: C_1  and  C_2
REMARK    2  A    between atoms: C_2  and  C_3
REMARK    3  A    between atoms: C_3  and  C_4
REMARK    4  A    between atoms: C_3  and  N_5
REMARK    5  A    between atoms: C_6  and  C_8
REMARK    6  A    between atoms: C_8  and  C_9
REMARK    7  A    between atoms: C_8  and  N_10
REMARK    8  A    between atoms: N_13  and  C_14
REMARK    9  A    between atoms: C_16  and  N_22
REMARK   10  A    between atoms: C_23  and  C_25
REMARK                            x       y       z     vdW  Elec       q    Type
REMARK                         _______ _______ _______ _____ _____    ______ ____
ROOT
ATOM      1  N   UNL     1       4.857   0.535   3.547  0.00  0.00    -0.288 N 
ATOM      2  C   UNL     1       5.920   1.323   3.808  0.00  0.00    +0.305 C 
ATOM      3  O   UNL     1       6.413   1.992   2.920  0.00  0.00    -0.252 OA
ATOM      4  N   UNL     1       6.435   1.370   5.052  0.00  0.00    -0.267 N 
ATOM      5  H   UNL     1       4.464   0.002   4.256  0.00  0.00    +0.151 HD
ATOM      6  H   UNL     1       6.003   0.888   5.775  0.00  0.00    +0.156 HD
ENDROOT
BRANCH   4   7
ATOM      7  C   UNL     1       7.595   2.116   5.303  0.00  0.00    +0.072 A 
ATOM      8  C   UNL     1       7.823   3.298   4.613  0.00  0.00    +0.052 A 
ATOM      9  C   UNL     1       8.972   4.034   4.863  0.00  0.00    +0.071 A 
ATOM     10  C   UNL     1       9.892   3.586   5.804  0.00  0.00    +0.147 A 
ATOM     11  C   UNL     1       9.663   2.407   6.491  0.00  0.00    +0.080 A 
ATOM     12  C   UNL     1       8.515   1.674   6.247  0.00  0.00    +0.147 A 
ATOM     13  F   UNL     1       8.291   0.526   6.923  0.00  0.00    -0.203 F 
ATOM     14  F   UNL     1      11.011   4.303   6.048  0.00  0.00    -0.203 F 
BRANCH   9  15
ATOM     15  N   UNL     1       9.204   5.228   4.167  0.00  0.00    -0.283 N 
ATOM     16  C   UNL     1       8.171   6.024   3.831  0.00  0.00    +0.214 C 
ATOM     17  O   UNL     1       7.033   5.670   4.058  0.00  0.00    -0.276 OA
ATOM     18  C   UNL     1       8.428   7.355   3.173  0.00  0.00    +0.109 C 
ATOM     19  H   UNL     1      10.110   5.481   3.928  0.00  0.00    +0.155 HD
ENDBRANCH   9  15
ENDBRANCH   4   7
BRANCH   1  20
ATOM     20  C   UNL     1       4.297   0.484   2.195  0.00  0.00    +0.157 C 
ATOM     21  C   UNL     1       5.073  -0.536   1.360  0.00  0.00    +0.038 C 
BRANCH  20  23
ATOM     22  N   UNL     1       2.123  -0.037   1.135  0.00  0.00    -0.311 N 
ATOM     23  C   UNL     1       2.848   0.077   2.266  0.00  0.00    +0.233 C 
ATOM     24  O   UNL     1       2.334  -0.148   3.341  0.00  0.00    -0.274 OA
ATOM     25  H   UNL     1       2.535   0.144   0.276  0.00  0.00    +0.149 HD
BRANCH  22  26
ATOM     26  C   UNL     1       0.715  -0.433   1.205  0.00  0.00    +0.070 C 
ATOM     27  C   UNL     1       0.616  -1.959   1.248  0.00  0.00    +0.028 C 
BRANCH  26  29
ATOM     28  C   UNL     1      -0.032   1.622  -0.005  0.00  0.00    +0.005 C 
ATOM     29  C   UNL     1      -0.024   0.092  -0.028  0.00  0.00    +0.018 C 
ENDBRANCH  26  29
ENDBRANCH  22  26
ENDBRANCH  20  23
ENDBRANCH   1  20
TORSDOF 6
