REMARK  Name = ZINC05481796
REMARK  9 active torsions:
REMARK  status: ('A' for Active; 'I' for Inactive)
REMARK    1  A    between atoms: C_1  and  C_2
REMARK    2  A    between atoms: C_2  and  C_4
REMARK    3  A    between atoms: C_2  and  C_14
REMARK    4  A    between atoms: C_7  and  C_10
REMARK    5  A    between atoms: C_10  and  C_11
REMARK    6  A    between atoms: C_11  and  C_12
REMARK    7  A    between atoms: C_11  and  C_13
REMARK    8  A    between atoms: N_16  and  N_17
REMARK    9  A    between atoms: C_18  and  C_19
REMARK                            x       y       z     vdW  Elec       q    Type
REMARK                         _______ _______ _______ _____ _____    ______ ____
ROOT
ATOM      1  C   UNL     1       0.731  -0.503   1.223  0.00  0.00    +0.239 C 
ATOM      2  O   UNL     1       1.726  -1.187   1.098  0.00  0.00    -0.273 OA
ATOM      3  N   UNL     1       0.278  -0.191   2.453  0.00  0.00    -0.206 N 
ATOM      4  H   UNL     1      -0.517   0.356   2.553  0.00  0.00    +0.177 HD
ENDROOT
BRANCH   1   6
ATOM      5  C   UNL     1      -0.019   1.526   0.010  0.00  0.00    +0.022 C 
ATOM      6  C   UNL     1       0.002  -0.004   0.002  0.00  0.00    +0.103 C 
BRANCH   6   7
ATOM      7  C   UNL     1       0.707  -0.490  -1.238  0.00  0.00    -0.036 A 
ATOM      8  C   UNL     1       2.026  -0.142  -1.464  0.00  0.00    +0.004 A 
ATOM      9  C   UNL     1       2.673  -0.587  -2.602  0.00  0.00    +0.004 A 
ATOM     10  C   UNL     1       2.002  -1.382  -3.512  0.00  0.00    -0.047 A 
ATOM     11  C   UNL     1       0.684  -1.731  -3.285  0.00  0.00    +0.004 A 
ATOM     12  C   UNL     1       0.038  -1.289  -2.146  0.00  0.00    +0.004 A 
BRANCH  10  13
ATOM     13  C   UNL     1       2.707  -1.867  -4.753  0.00  0.00    +0.038 C 
BRANCH  13  14
ATOM     14  C   UNL     1       3.380  -3.210  -4.464  0.00  0.00    -0.013 C 
ATOM     15  C   UNL     1       2.311  -4.264  -4.168  0.00  0.00    +0.007 C 
ATOM     16  C   UNL     1       4.199  -3.643  -5.682  0.00  0.00    +0.007 C 
ENDBRANCH  13  14
ENDBRANCH  10  13
ENDBRANCH   6   7
ENDBRANCH   1   6
BRANCH   3  17
ATOM     17  N   UNL     1       0.955  -0.655   3.588  0.00  0.00    -0.188 NA
ATOM     18  C   UNL     1       0.519  -0.354   4.772  0.00  0.00    +0.138 C 
BRANCH  18  19
ATOM     19  C   UNL     1       1.232  -0.842   5.967  0.00  0.00    -0.004 A 
ATOM     20  C   UNL     1       2.381  -1.625   5.827  0.00  0.00    +0.011 A 
ATOM     21  C   UNL     1       3.044  -2.079   6.948  0.00  0.00    +0.022 A 
ATOM     22  C   UNL     1       2.574  -1.761   8.211  0.00  0.00    +0.059 A 
ATOM     23  C   UNL     1       1.434  -0.986   8.357  0.00  0.00    +0.060 A 
ATOM     24  C   UNL     1       0.765  -0.520   7.243  0.00  0.00    +0.031 A 
ATOM     25 CL   UNL     1       0.852  -0.593   9.945  0.00  0.00    -0.082 Cl
ATOM     26 CL   UNL     1       3.414  -2.336   9.617  0.00  0.00    -0.082 Cl
ENDBRANCH  18  19
ENDBRANCH   3  17
TORSDOF 6
