REMARK  Name = ZINC20693643
REMARK  9 active torsions:
REMARK  status: ('A' for Active; 'I' for Inactive)
REMARK    1  A    between atoms: C_1  and  C_2
REMARK    2  A    between atoms: C_2  and  C_3
REMARK    3  A    between atoms: C_3  and  C_5
REMARK    4  A    between atoms: C_3  and  N_6
REMARK    5  A    between atoms: C_7  and  C_9
REMARK    6  A    between atoms: C_22  and  C_25
REMARK    7  A    between atoms: C_28  and  O_33
REMARK    8  A    between atoms: C_29  and  O_31
REMARK    9  A    between atoms: O_31  and  C_32
REMARK                            x       y       z     vdW  Elec       q    Type
REMARK                         _______ _______ _______ _____ _____    ______ ____
ROOT
ATOM      1  C   UNL     1       7.379   4.518  -0.883  0.00  0.00    +0.037 A 
ATOM      2  C   UNL     1       6.867   3.823  -1.984  0.00  0.00    +0.015 A 
ATOM      3  C   UNL     1       5.553   3.417  -1.978  0.00  0.00    +0.024 A 
ATOM      4  C   UNL     1       4.738   3.696  -0.883  0.00  0.00    +0.031 A 
ATOM      5  C   UNL     1       5.236   4.387   0.215  0.00  0.00    -0.019 A 
ATOM      6  C   UNL     1       6.557   4.796   0.210  0.00  0.00    +0.019 A 
ATOM      7  C   UNL     1       4.392   4.709   1.408  0.00  0.00    +0.049 C 
ATOM      8  C   UNL     1       4.003   6.168   1.427  0.00  0.00    -0.023 C 
ATOM      9  C   UNL     1       2.785   6.307   1.891  0.00  0.00    -0.030 C 
ATOM     10  C   UNL     1       2.197   4.956   2.252  0.00  0.00    +0.033 C 
ATOM     11  C   UNL     1       3.047   3.957   1.413  0.00  0.00    +0.029 C 
ATOM     12  C   UNL     1       2.458   3.932  -0.000  0.00  0.00    +0.105 C 
ATOM     13  N   UNL     1       3.410   3.275  -0.901  0.00  0.00    -0.336 N 
ATOM     14  H   UNL     1       3.070   2.470  -1.569  0.00  0.00    +0.147 HD
ENDROOT
BRANCH  12  15
ATOM     15  C   UNL     1       1.160   3.166   0.008  0.00  0.00    -0.023 A 
ATOM     16  C   UNL     1       1.175   1.783   0.000  0.00  0.00    +0.009 A 
ATOM     17  C   UNL     1      -0.013   1.076   0.008  0.00  0.00    +0.049 A 
ATOM     18  C   UNL     1      -1.222   1.752   0.017  0.00  0.00    +0.158 A 
ATOM     19  C   UNL     1      -1.237   3.144   0.030  0.00  0.00    +0.162 A 
ATOM     20  C   UNL     1      -0.043   3.847   0.023  0.00  0.00    +0.054 A 
BRANCH  19  21
ATOM     21  O   UNL     1      -2.421   3.812   0.044  0.00  0.00    -0.491 OA
ATOM     22  C   UNL     1      -2.361   5.240   0.051  0.00  0.00    +0.277 C 
ENDBRANCH  19  21
BRANCH  18  23
ATOM     23  O   UNL     1      -2.391   1.058   0.019  0.00  0.00    -0.503 OA
ATOM     24  H   UNL     1      -3.350   1.596   0.027  0.00  0.00    +0.292 HD
ENDBRANCH  18  23
ENDBRANCH  12  15
BRANCH   1  26
ATOM     25  N   UNL     1       9.580   4.690  -1.934  0.00  0.00    -0.309 N 
ATOM     26  C   UNL     1       8.787   4.958  -0.878  0.00  0.00    +0.244 C 
ATOM     27  O   UNL     1       9.232   5.562   0.079  0.00  0.00    -0.270 OA
ATOM     28  H   UNL     1       9.178   4.144  -2.800  0.00  0.00    +0.149 HD
BRANCH  25  29
ATOM     29  C   UNL     1      10.979   5.127  -1.929  0.00  0.00    +0.070 C 
ATOM     30  C   UNL     1      11.836   4.085  -1.208  0.00  0.00    +0.028 C 
BRANCH  29  32
ATOM     31  C   UNL     1      10.696   6.410  -4.054  0.00  0.00    +0.005 C 
ATOM     32  C   UNL     1      11.470   5.282  -3.370  0.00  0.00    +0.018 C 
ENDBRANCH  29  32
ENDBRANCH  25  29
ENDBRANCH   1  26
TORSDOF 6
