REMARK  Name = ZINC44699232
REMARK  8 active torsions:
REMARK  status: ('A' for Active; 'I' for Inactive)
REMARK    1  A    between atoms: C_3  and  O_13
REMARK    2  A    between atoms: C_4  and  C_8
REMARK    3  A    between atoms: O_13  and  C_14
REMARK    4  A    between atoms: C_16  and  O_29
REMARK    5  A    between atoms: C_18  and  O_28
REMARK    6  A    between atoms: C_20  and  O_27
REMARK    7  A    between atoms: C_22  and  C_25
REMARK    8  A    between atoms: C_25  and  O_26
REMARK                            x       y       z     vdW  Elec       q    Type
REMARK                         _______ _______ _______ _____ _____    ______ ____
ROOT
ATOM      1  C   UNL     1       3.455   3.531  -0.013  0.00  0.00    +0.339 C 
ATOM      2  C   UNL     1       4.858   4.133   0.102  0.00  0.00    +0.214 C 
ATOM      3  C   UNL     1       5.681   3.728  -1.125  0.00  0.00    +0.180 C 
ATOM      4  C   UNL     1       4.952   4.189  -2.390  0.00  0.00    +0.177 C 
ATOM      5  C   UNL     1       3.546   3.585  -2.409  0.00  0.00    +0.179 C 
ATOM      6  O   UNL     1       2.845   3.975  -1.226  0.00  0.00    -0.331 OA
ENDROOT
BRANCH   4   7
ATOM      7  O   UNL     1       5.675   3.755  -3.544  0.00  0.00    -0.386 OA
ATOM      8  H   UNL     1       6.578   4.097  -3.594  0.00  0.00    +0.210 HD
ENDBRANCH   4   7
BRANCH   3   9
ATOM      9  O   UNL     1       6.969   4.345  -1.062  0.00  0.00    -0.386 OA
ATOM     10  H   UNL     1       7.484   4.101  -0.280  0.00  0.00    +0.210 HD
ENDBRANCH   3   9
BRANCH   2  11
ATOM     11  O   UNL     1       4.762   5.558   0.165  0.00  0.00    -0.383 OA
ATOM     12  H   UNL     1       4.250   5.884   0.917  0.00  0.00    +0.210 HD
ENDBRANCH   2  11
BRANCH   1  13
ATOM     13  O   UNL     1       3.549   2.105  -0.021  0.00  0.00    -0.461 OA
BRANCH  13  16
ATOM     14  C   UNL     1      -0.017   1.379   0.010  0.00  0.00    +0.023 A 
ATOM     15  C   UNL     1       1.170   2.087   0.002  0.00  0.00    +0.047 A 
ATOM     16  C   UNL     1       2.380   1.410  -0.013  0.00  0.00    +0.128 A 
ATOM     17  C   UNL     1       2.397   0.023  -0.021  0.00  0.00    -0.001 A 
ATOM     18  C   UNL     1       1.209  -0.681  -0.013  0.00  0.00    +0.027 A 
ATOM     19  C   UNL     1       0.002  -0.004   0.002  0.00  0.00    +0.041 A 
ATOM     20 CL   UNL     1      -1.490  -0.891   0.011  0.00  0.00    -0.084 Cl
BRANCH  17  21
ATOM     21  C   UNL     1       3.711  -0.715  -0.038  0.00  0.00    +0.023 C 
ATOM     22  C   UNL     1       3.774  -1.653  -1.261  0.00  0.00    +0.008 C 
ATOM     23  C   UNL     1       4.515  -2.909  -0.739  0.00  0.00    +0.001 C 
ATOM     24  C   UNL     1       3.960  -3.060   0.699  0.00  0.00    +0.001 C 
ATOM     25  C   UNL     1       3.829  -1.610   1.208  0.00  0.00    +0.008 C 
ENDBRANCH  17  21
ENDBRANCH  13  16
ENDBRANCH   1  13
BRANCH   5  26
ATOM     26  C   UNL     1       2.789   4.089  -3.640  0.00  0.00    +0.190 C 
BRANCH  26  27
ATOM     27  O   UNL     1       1.521   3.435  -3.720  0.00  0.00    -0.392 OA
ATOM     28  H   UNL     1       0.986   3.707  -4.479  0.00  0.00    +0.210 HD
ENDBRANCH  26  27
ENDBRANCH   5  26
TORSDOF 8
