REMARK  Name = ZINC40389524
REMARK  6 active torsions:
REMARK  status: ('A' for Active; 'I' for Inactive)
REMARK    1  A    between atoms: C_1  and  C_2
REMARK    2  A    between atoms: C_2  and  N_3
REMARK    3  A    between atoms: C_6  and  C_11
REMARK    4  A    between atoms: N_20  and  C_22
REMARK    5  A    between atoms: C_22  and  C_23
REMARK    6  A    between atoms: C_23  and  C_24
REMARK                            x       y       z     vdW  Elec       q    Type
REMARK                         _______ _______ _______ _____ _____    ______ ____
ROOT
ATOM      1  N   UNL     1      -1.372  -0.511   0.012  0.00  0.00    -0.257 N 
ATOM      2  C   UNL     1      -1.968  -0.736   1.220  0.00  0.00    +0.042 C 
ATOM      3  C   UNL     1      -3.231  -1.202   1.301  0.00  0.00    +0.058 C 
ATOM      4  C   UNL     1      -3.968  -1.468   0.004  0.00  0.00    +0.142 C 
ATOM      5  N   UNL     1      -3.238  -1.194  -1.246  0.00  0.00    -0.288 N 
ATOM      6  C   UNL     1      -1.978  -0.724  -1.163  0.00  0.00    +0.307 C 
ATOM      7  O   UNL     1      -1.369  -0.491  -2.189  0.00  0.00    -0.252 OA
ATOM      8  C   UNL     1      -3.615  -1.349   2.650  0.00  0.00    +0.247 C 
ATOM      9  O   UNL     1      -4.704  -1.752   3.015  0.00  0.00    -0.270 OA
ATOM     10  N   UNL     1      -2.620  -0.986   3.480  0.00  0.00    -0.292 N 
ATOM     11  C   UNL     1      -1.487  -0.565   2.644  0.00  0.00    +0.159 C 
ATOM     12  H   UNL     1      -3.656  -1.344  -2.108  0.00  0.00    +0.151 HD
ENDROOT
BRANCH   4  13
ATOM     13  C   UNL     1      -5.222  -0.632   0.001  0.00  0.00    -0.022 A 
ATOM     14  C   UNL     1      -5.159   0.708  -0.333  0.00  0.00    +0.007 A 
ATOM     15  C   UNL     1      -6.308   1.475  -0.336  0.00  0.00    +0.020 A 
ATOM     16  C   UNL     1      -7.523   0.902  -0.003  0.00  0.00    +0.041 A 
ATOM     17  C   UNL     1      -7.585  -0.439   0.332  0.00  0.00    +0.020 A 
ATOM     18  C   UNL     1      -6.436  -1.206   0.329  0.00  0.00    +0.007 A 
ATOM     19 CL   UNL     1      -8.967   1.865  -0.005  0.00  0.00    -0.084 Cl
ENDBRANCH   4  13
BRANCH   1  21
ATOM     20  C   UNL     1      -0.019   1.526   0.010  0.00  0.00    +0.025 C 
ATOM     21  C   UNL     1       0.002  -0.004   0.002  0.00  0.00    +0.111 C 
ENDBRANCH   1  21
BRANCH  10  22
ATOM     22  C   UNL     1      -2.660  -1.007   4.944  0.00  0.00    +0.117 C 
BRANCH  22  23
ATOM     23  C   UNL     1      -2.174  -2.367   5.448  0.00  0.00    +0.115 C 
BRANCH  23  24
ATOM     24  C   UNL     1      -2.215  -2.389   6.955  0.00  0.00    +0.217 C 
ATOM     25  O   UNL     1      -2.595  -1.412   7.565  0.00  0.00    -0.276 OA
ATOM     26  N   UNL     1      -1.829  -3.493   7.624  0.00  0.00    -0.301 N 
ATOM     27  C   UNL     1      -1.343  -4.739   7.013  0.00  0.00    +0.108 C 
ATOM     28  C   UNL     1      -1.047  -5.727   8.161  0.00  0.00    +0.020 C 
ATOM     29  C   UNL     1      -1.917  -5.181   9.323  0.00  0.00    +0.020 C 
ATOM     30  C   UNL     1      -1.819  -3.650   9.089  0.00  0.00    +0.108 C 
ENDBRANCH  23  24
ENDBRANCH  22  23
ENDBRANCH  10  22
TORSDOF 5
