REMARK  Name = ZINC00965474
REMARK  13 active torsions:
REMARK  status: ('A' for Active; 'I' for Inactive)
REMARK    1  A    between atoms: C_1  and  C_2
REMARK    2  A    between atoms: C_5  and  C_8
REMARK    3  A    between atoms: C_8  and  N_62
REMARK    4  A    between atoms: C_9  and  C_10
REMARK    5  A    between atoms: C_9  and  N_62
REMARK    6  A    between atoms: C_17  and  C_18
REMARK    7  A    between atoms: C_17  and  N_62
REMARK    8  A    between atoms: C_21  and  C_23
REMARK    9  A    between atoms: N_25  and  C_26
REMARK   10  A    between atoms: C_26  and  C_28
REMARK   11  A    between atoms: C_26  and  C_29
REMARK   12  A    between atoms: C_29  and  C_30
REMARK   13  A    between atoms: C_29  and  C_31
REMARK                            x       y       z     vdW  Elec       q    Type
REMARK                         _______ _______ _______ _____ _____    ______ ____
ROOT
ATOM      1  N   UNL     1       1.851  -1.872   1.482  0.00  0.00    +0.390 N 
ATOM      2  H   UNL     1       2.350  -1.236   2.115  0.00  0.00    -0.080 HD
ENDROOT
BRANCH   1   3
ATOM      3  C   UNL     1       2.679  -3.077   1.262  0.00  0.00    -0.042 C 
BRANCH   3   8
ATOM      4  C   UNL     1       8.150  -1.434   0.388  0.00  0.00    +0.044 C 
ATOM      5  C   UNL     1       6.723  -1.863   0.616  0.00  0.00    -0.050 A 
ATOM      6  C   UNL     1       6.247  -2.022   1.903  0.00  0.00    +0.003 A 
ATOM      7  C   UNL     1       4.938  -2.416   2.113  0.00  0.00    +0.002 A 
ATOM      8  C   UNL     1       4.105  -2.648   1.034  0.00  0.00    -0.064 A 
ATOM      9  C   UNL     1       4.583  -2.493  -0.254  0.00  0.00    +0.002 A 
ATOM     10  C   UNL     1       5.890  -2.096  -0.463  0.00  0.00    +0.003 A 
ENDBRANCH   3   8
ENDBRANCH   1   3
BRANCH   1  11
ATOM     11  C   UNL     1       0.562  -2.250   2.098  0.00  0.00    -0.042 C 
BRANCH  11  12
ATOM     12  C   UNL     1       0.802  -2.607   3.542  0.00  0.00    -0.061 A 
ATOM     13  C   UNL     1       0.952  -3.930   3.911  0.00  0.00    +0.002 A 
ATOM     14  C   UNL     1       1.177  -4.259   5.235  0.00  0.00    +0.003 A 
ATOM     15  C   UNL     1       1.242  -3.264   6.193  0.00  0.00    +0.038 A 
ATOM     16  C   UNL     1       1.086  -1.939   5.825  0.00  0.00    +0.124 A 
ATOM     17  C   UNL     1       0.866  -1.611   4.498  0.00  0.00    +0.040 A 
ATOM     18  F   UNL     1       1.148  -0.966   6.761  0.00  0.00    -0.205 F 
ENDBRANCH  11  12
ENDBRANCH   1  11
BRANCH   1  19
ATOM     19  C   UNL     1       1.614  -1.181   0.197  0.00  0.00    -0.002 C 
BRANCH  19  20
ATOM     20  C   UNL     1       0.962   0.149   0.473  0.00  0.00    +0.090 A 
ATOM     21  C   UNL     1       1.612   1.311   0.704  0.00  0.00    +0.043 A 
ATOM     22  C   UNL     1       0.635   2.297   0.914  0.00  0.00    +0.055 A 
ATOM     23  C   UNL     1      -0.577   1.679   0.798  0.00  0.00    +0.189 A 
ATOM     24  O   UNL     1      -0.357   0.375   0.531  0.00  0.00    -0.457 OA
BRANCH  23  25
ATOM     25  C   UNL     1      -1.888   2.321   0.936  0.00  0.00    +0.280 C 
ATOM     26  O   UNL     1      -1.960   3.511   1.179  0.00  0.00    -0.267 OA
ATOM     27  N   UNL     1      -3.013   1.593   0.792  0.00  0.00    -0.306 N 
ATOM     28  H   UNL     1      -2.956   0.644   0.598  0.00  0.00    +0.149 HD
BRANCH  27  29
ATOM     29  C   UNL     1      -4.323   2.235   0.929  0.00  0.00    +0.073 C 
ATOM     30  C   UNL     1      -4.729   2.856  -0.409  0.00  0.00    +0.028 C 
BRANCH  29  31
ATOM     31  C   UNL     1      -5.362   1.190   1.343  0.00  0.00    +0.003 C 
ATOM     32  C   UNL     1      -6.730   1.860   1.486  0.00  0.00    +0.009 C 
ATOM     33  C   UNL     1      -5.439   0.097   0.276  0.00  0.00    +0.009 C 
ENDBRANCH  29  31
ENDBRANCH  27  29
ENDBRANCH  23  25
ENDBRANCH  19  20
ENDBRANCH   1  19
TORSDOF 9
