REMARK  Name = ZINC01796982
REMARK  9 active torsions:
REMARK  status: ('A' for Active; 'I' for Inactive)
REMARK    1  A    between atoms: C_1  and  C_2
REMARK    2  A    between atoms: C_3  and  C_36
REMARK    3  A    between atoms: C_5  and  N_28
REMARK    4  A    between atoms: C_6  and  C_7
REMARK    5  A    between atoms: C_7  and  C_9
REMARK    6  A    between atoms: C_7  and  N_67
REMARK    7  A    between atoms: C_18  and  C_21
REMARK    8  A    between atoms: C_21  and  C_22
REMARK    9  A    between atoms: C_29  and  C_31
REMARK                            x       y       z     vdW  Elec       q    Type
REMARK                         _______ _______ _______ _____ _____    ______ ____
ROOT
ATOM      1  C   UNL     1       1.288   3.542   0.180  0.00  0.00    -0.004 C 
ENDROOT
BRANCH   1   7
ATOM      2  C   UNL     1       1.917   5.078   2.574  0.00  0.00    +0.045 C 
ATOM      3  C   UNL     1       3.003   4.704   1.599  0.00  0.00    -0.037 A 
ATOM      4  C   UNL     1       4.286   5.078   1.822  0.00  0.00    -0.008 A 
ATOM      5  S   UNL     1       5.126   4.396   0.403  0.00  0.00    -0.078 S 
ATOM      6  C   UNL     1       3.713   3.652  -0.395  0.00  0.00    +0.074 A 
ATOM      7  C   UNL     1       2.704   3.976   0.462  0.00  0.00    -0.025 A 
ATOM      8  C   UNL     1       4.857   5.867   2.973  0.00  0.00    +0.052 C 
BRANCH   6   9
ATOM      9  N   UNL     1       3.656   2.928  -1.587  0.00  0.00    -0.273 N 
ATOM     10  C   UNL     1       4.755   2.809  -2.357  0.00  0.00    +0.284 C 
ATOM     11  O   UNL     1       5.798   3.334  -2.013  0.00  0.00    -0.266 OA
ATOM     12  H   UNL     1       2.824   2.510  -1.861  0.00  0.00    +0.156 HD
BRANCH  10  13
ATOM     13  C   UNL     1       4.695   2.049  -3.609  0.00  0.00    +0.189 A 
ATOM     14  C   UNL     1       5.730   1.852  -4.479  0.00  0.00    +0.054 A 
ATOM     15  C   UNL     1       5.228   1.073  -5.533  0.00  0.00    +0.042 A 
ATOM     16  C   UNL     1       3.926   0.831  -5.264  0.00  0.00    +0.196 A 
ATOM     17  O   UNL     1       3.610   1.416  -4.101  0.00  0.00    -0.458 OA
ENDBRANCH  10  13
ENDBRANCH   6   9
ENDBRANCH   1   7
BRANCH   1  18
ATOM     18  C   UNL     1       0.694   4.429  -0.884  0.00  0.00    -0.057 A 
ATOM     19  C   UNL     1       0.873   4.120  -2.220  0.00  0.00    +0.004 A 
ATOM     20  C   UNL     1       0.323   4.930  -3.195  0.00  0.00    +0.020 A 
ATOM     21  C   UNL     1      -0.397   6.056  -2.835  0.00  0.00    +0.041 A 
ATOM     22  C   UNL     1      -0.570   6.367  -1.498  0.00  0.00    +0.020 A 
ATOM     23  C   UNL     1      -0.025   5.553  -0.523  0.00  0.00    +0.004 A 
ATOM     24 CL   UNL     1      -1.081   7.078  -4.061  0.00  0.00    -0.084 Cl
ENDBRANCH   1  18
BRANCH   1  30
ATOM     25  C   UNL     1       1.965   1.271   0.675  0.00  0.00    -0.077 C 
ATOM     26  C   UNL     1       2.073  -0.140   0.092  0.00  0.00    -0.015 C 
ATOM     27  C   UNL     1       0.669  -0.671  -0.211  0.00  0.00    -0.010 C 
ATOM     28  C   UNL     1      -0.033   0.287  -1.177  0.00  0.00    -0.015 C 
ATOM     29  C   UNL     1      -0.080   1.686  -0.557  0.00  0.00    -0.077 C 
ATOM     30  N   UNL     1       1.303   2.149  -0.313  0.00  0.00    +0.387 N 
ATOM     31  H   UNL     1       1.827   2.112  -1.195  0.00  0.00    -0.080 HD
BRANCH  27  32
ATOM     32  C   UNL     1       0.773  -2.057  -0.849  0.00  0.00    +0.038 C 
BRANCH  32  33
ATOM     33  C   UNL     1      -0.609  -2.630  -1.034  0.00  0.00    -0.047 A 
ATOM     34  C   UNL     1      -1.180  -3.394  -0.033  0.00  0.00    +0.003 A 
ATOM     35  C   UNL     1      -2.449  -3.916  -0.201  0.00  0.00    +0.000 A 
ATOM     36  C   UNL     1      -3.143  -3.682  -1.373  0.00  0.00    +0.000 A 
ATOM     37  C   UNL     1      -2.570  -2.922  -2.376  0.00  0.00    +0.000 A 
ATOM     38  C   UNL     1      -1.302  -2.397  -2.206  0.00  0.00    +0.003 A 
ENDBRANCH  32  33
ENDBRANCH  27  32
ENDBRANCH   1  30
TORSDOF 7
