REMARK  Name = ZINC38649500
REMARK  12 active torsions:
REMARK  status: ('A' for Active; 'I' for Inactive)
REMARK    1  A    between atoms: C_1  and  C_2
REMARK    2  A    between atoms: C_2  and  C_3
REMARK    3  A    between atoms: C_2  and  C_4
REMARK    4  A    between atoms: C_7  and  C_10
REMARK    5  A    between atoms: C_15  and  O_24
REMARK    6  A    between atoms: C_19  and  N_23
REMARK    7  A    between atoms: C_20  and  C_21
REMARK    8  A    between atoms: O_24  and  C_25
REMARK    9  A    between atoms: C_25  and  C_27
REMARK   10  A    between atoms: C_27  and  O_28
REMARK   11  A    between atoms: O_28  and  C_29
REMARK   12  A    between atoms: C_32  and  N_35
REMARK                            x       y       z     vdW  Elec       q    Type
REMARK                         _______ _______ _______ _____ _____    ______ ____
ROOT
ATOM      1  C   UNL     1       2.725  -1.914  -4.711  0.00  0.00    +0.098 C 
ATOM      2  C   UNL     1       4.132  -1.378  -4.731  0.00  0.00    +0.008 A 
ATOM      3  C   UNL     1       4.361  -0.084  -5.164  0.00  0.00    +0.012 A 
ATOM      4  C   UNL     1       5.644   0.425  -5.189  0.00  0.00    +0.047 A 
ATOM      5  C   UNL     1       6.710  -0.363  -4.778  0.00  0.00    +0.135 A 
ATOM      6  C   UNL     1       6.485  -1.658  -4.343  0.00  0.00    +0.093 A 
ATOM      7  C   UNL     1       5.193  -2.168  -4.318  0.00  0.00    +0.138 A 
ATOM      8  O   UNL     1       4.989  -3.439  -3.890  0.00  0.00    -0.441 OA
ATOM      9  C   UNL     1       3.852  -4.079  -4.211  0.00  0.00    +0.199 C 
ATOM     10  C   UNL     1       2.745  -3.413  -4.606  0.00  0.00    +0.098 C 
ENDROOT
BRANCH   1  14
ATOM     11  C   UNL     1       0.636  -0.291  -1.357  0.00  0.00    -0.045 A 
ATOM     12  C   UNL     1       0.175  -0.055  -2.639  0.00  0.00    +0.004 A 
ATOM     13  C   UNL     1       0.851  -0.580  -3.724  0.00  0.00    +0.005 A 
ATOM     14  C   UNL     1       1.988  -1.341  -3.528  0.00  0.00    -0.035 A 
ATOM     15  C   UNL     1       2.450  -1.577  -2.246  0.00  0.00    +0.005 A 
ATOM     16  C   UNL     1       1.776  -1.048  -1.161  0.00  0.00    +0.004 A 
BRANCH  11  18
ATOM     17  C   UNL     1      -0.136   1.807  -0.284  0.00  0.00    +0.012 C 
ATOM     18  C   UNL     1      -0.101   0.281  -0.174  0.00  0.00    +0.013 C 
ATOM     19  C   UNL     1      -1.532  -0.261  -0.153  0.00  0.00    +0.012 C 
ENDBRANCH  11  18
ENDBRANCH   1  14
BRANCH   9  20
ATOM     20  N   UNL     1       3.816  -5.449  -4.134  0.00  0.00    -0.328 N 
ATOM     21  H   UNL     1       4.603  -5.941  -3.852  0.00  0.00    +0.145 HD
ATOM     22  H   UNL     1       3.002  -5.926  -4.363  0.00  0.00    +0.145 HD
ENDBRANCH   9  20
BRANCH  10  23
ATOM     23  C   UNL     1       1.565  -4.156  -4.932  0.00  0.00    +0.101 C 
ATOM     24  N   UNL     1       0.629  -4.745  -5.191  0.00  0.00    -0.191 NA
ENDBRANCH  10  23
BRANCH   5  25
ATOM     25  O   UNL     1       7.974   0.137  -4.802  0.00  0.00    -0.423 OA
BRANCH  25  26
ATOM     26  C   UNL     1       8.834  -0.367  -5.702  0.00  0.00    +0.350 C 
ATOM     27  O   UNL     1       8.449  -1.162  -6.526  0.00  0.00    -0.247 OA
BRANCH  26  28
ATOM     28  C   UNL     1      10.279   0.059  -5.684  0.00  0.00    +0.349 C 
BRANCH  28  29
ATOM     29  O   UNL     1      10.986  -0.610  -6.730  0.00  0.00    -0.481 OA
BRANCH  29  30
ATOM     30  C   UNL     1      12.312  -0.335  -6.853  0.00  0.00    +0.121 A 
ATOM     31  C   UNL     1      12.920   0.555  -5.981  0.00  0.00    +0.048 A 
ATOM     32  C   UNL     1      14.268   0.832  -6.108  0.00  0.00    +0.036 A 
ATOM     33  C   UNL     1      15.009   0.223  -7.103  0.00  0.00    +0.126 A 
ATOM     34  C   UNL     1      14.405  -0.665  -7.974  0.00  0.00    +0.036 A 
ATOM     35  C   UNL     1      13.059  -0.949  -7.848  0.00  0.00    +0.048 A 
BRANCH  33  36
ATOM     36  N   UNL     1      16.453   0.521  -7.236  0.00  0.00    +0.056 N 
ATOM     37  O   UNL     1      16.983   1.298  -6.476  0.00  0.00    -0.126 OA
ATOM     38  O   UNL     1      17.102  -0.011  -8.106  0.00  0.00    -0.126 OA
ENDBRANCH  33  36
ENDBRANCH  29  30
ENDBRANCH  28  29
ENDBRANCH  26  28
ENDBRANCH  25  26
ENDBRANCH   5  25
TORSDOF 10
