REMARK  Name = ZINC04531205
REMARK  10 active torsions:
REMARK  status: ('A' for Active; 'I' for Inactive)
REMARK    1  A    between atoms: C_1  and  C_2
REMARK    2  A    between atoms: C_2  and  N_3
REMARK    3  A    between atoms: N_3  and  C_4
REMARK    4  A    between atoms: N_3  and  C_6
REMARK    5  A    between atoms: C_4  and  C_5
REMARK    6  A    between atoms: C_9  and  C_12
REMARK    7  A    between atoms: N_13  and  N_14
REMARK    8  A    between atoms: C_19  and  C_20
REMARK    9  A    between atoms: C_19  and  C_26
REMARK   10  A    between atoms: C_19  and  N_66
REMARK                            x       y       z     vdW  Elec       q    Type
REMARK                         _______ _______ _______ _____ _____    ______ ____
ROOT
ATOM      1  N   UNL     1      -2.851  -2.396  -0.893  0.00  0.00    -0.259 N 
ATOM      2  C   UNL     1      -1.475  -2.915  -0.932  0.00  0.00    +0.107 C 
ATOM      3  C   UNL     1      -0.659  -2.212   0.157  0.00  0.00    -0.057 C 
ATOM      4  C   UNL     1      -2.167  -0.313   0.172  0.00  0.00    -0.057 C 
ATOM      5  C   UNL     1      -3.046  -0.938  -0.916  0.00  0.00    +0.107 C 
ATOM      6  N   UNL     1      -0.770  -0.749  -0.036  0.00  0.00    +0.389 N 
ATOM      7  H   UNL     1      -0.488  -0.518  -0.996  0.00  0.00    -0.080 HD
ENDROOT
BRANCH   1   9
ATOM      8  C   UNL     1      -3.761  -4.549  -0.912  0.00  0.00    +0.138 C 
ATOM      9  N   UNL     1      -3.947  -3.267  -0.836  0.00  0.00    -0.192 NA
BRANCH   8  13
ATOM     10  C   UNL     1      -7.030  -7.204  -0.364  0.00  0.00    +0.030 A 
ATOM     11  C   UNL     1      -5.761  -7.710  -0.625  0.00  0.00    +0.024 A 
ATOM     12  C   UNL     1      -4.698  -6.852  -0.803  0.00  0.00    +0.011 A 
ATOM     13  C   UNL     1      -4.896  -5.471  -0.721  0.00  0.00    -0.005 A 
ATOM     14  C   UNL     1      -6.171  -4.966  -0.453  0.00  0.00    +0.011 A 
ATOM     15  C   UNL     1      -7.231  -5.830  -0.282  0.00  0.00    +0.024 A 
BRANCH  10  16
ATOM     16  N   UNL     1      -8.104  -8.076  -0.183  0.00  0.00    -0.330 N 
BRANCH  16  18
ATOM     17  C   UNL     1     -10.181  -7.316  -1.228  0.00  0.00    +0.024 C 
ATOM     18  C   UNL     1      -9.441  -7.545   0.092  0.00  0.00    +0.102 C 
ENDBRANCH  16  18
BRANCH  16  19
ATOM     19  C   UNL     1      -7.895  -9.524  -0.268  0.00  0.00    +0.102 C 
ATOM     20  C   UNL     1      -7.548 -10.072   1.117  0.00  0.00    +0.024 C 
ENDBRANCH  16  19
ENDBRANCH  10  16
ENDBRANCH   8  13
ENDBRANCH   1   9
BRANCH   6  21
ATOM     21  C   UNL     1       0.124  -0.047   0.908  0.00  0.00    -0.007 C 
BRANCH  21  22
ATOM     22  C   UNL     1       1.548  -0.454   0.626  0.00  0.00    -0.057 A 
ATOM     23  C   UNL     1       2.011  -0.492  -0.676  0.00  0.00    +0.002 A 
ATOM     24  C   UNL     1       3.318  -0.861  -0.933  0.00  0.00    +0.000 A 
ATOM     25  C   UNL     1       4.158  -1.202   0.110  0.00  0.00    +0.000 A 
ATOM     26  C   UNL     1       3.693  -1.171   1.411  0.00  0.00    +0.000 A 
ATOM     27  C   UNL     1       2.388  -0.796   1.669  0.00  0.00    +0.002 A 
ENDBRANCH  21  22
BRANCH  21  28
ATOM     28  C   UNL     1      -0.022   1.439   0.706  0.00  0.00    -0.057 A 
ATOM     29  C   UNL     1      -0.098   1.959  -0.573  0.00  0.00    +0.002 A 
ATOM     30  C   UNL     1      -0.237   3.322  -0.759  0.00  0.00    +0.000 A 
ATOM     31  C   UNL     1      -0.290   4.166   0.335  0.00  0.00    +0.000 A 
ATOM     32  C   UNL     1      -0.209   3.647   1.613  0.00  0.00    +0.000 A 
ATOM     33  C   UNL     1      -0.075   2.284   1.799  0.00  0.00    +0.002 A 
ENDBRANCH  21  28
ENDBRANCH   6  21
TORSDOF 8
