REMARK  Name = ZINC09151123
REMARK  9 active torsions:
REMARK  status: ('A' for Active; 'I' for Inactive)
REMARK    1  A    between atoms: C_1  and  C_2
REMARK    2  A    between atoms: C_2  and  N_57
REMARK    3  A    between atoms: C_8  and  N_26
REMARK    4  A    between atoms: C_9  and  C_10
REMARK    5  A    between atoms: C_10  and  N_11
REMARK    6  A    between atoms: N_14  and  C_15
REMARK    7  A    between atoms: C_20  and  C_21
REMARK    8  A    between atoms: C_21  and  O_23
REMARK    9  A    between atoms: O_23  and  C_24
REMARK                            x       y       z     vdW  Elec       q    Type
REMARK                         _______ _______ _______ _____ _____    ______ ____
ROOT
ATOM      1  C   UNL     1      -1.481  -2.350   0.712  0.00  0.00    +0.144 C 
ENDROOT
BRANCH   1   8
ATOM      2  C   UNL     1      -4.141  -3.346  -2.723  0.00  0.00    -0.074 C 
ATOM      3  C   UNL     1      -3.125  -2.708  -1.772  0.00  0.00    +0.018 C 
ATOM      4  C   UNL     1      -3.722  -2.709  -0.367  0.00  0.00    -0.034 A 
ATOM      5  C   UNL     1      -5.064  -2.879  -0.210  0.00  0.00    -0.021 A 
ATOM      6  S   UNL     1      -5.298  -2.819   1.544  0.00  0.00    -0.077 S 
ATOM      7  C   UNL     1      -3.590  -2.571   2.007  0.00  0.00    +0.089 A 
ATOM      8  C   UNL     1      -2.972  -2.547   0.796  0.00  0.00    +0.004 A 
ATOM      9  C   UNL     1      -6.076  -3.069  -1.293  0.00  0.00    -0.035 C 
ATOM     10  N   UNL     1      -5.446  -2.671  -2.576  0.00  0.00    +0.383 N 
ATOM     11  H   UNL     1      -5.299  -1.655  -2.575  0.00  0.00    -0.081 HD
BRANCH   7  12
ATOM     12  N   UNL     1      -3.033  -2.435   3.284  0.00  0.00    -0.317 N 
ATOM     13  C   UNL     1      -3.292  -3.241   4.355  0.00  0.00    +0.092 A 
ATOM     14  C   UNL     1      -2.567  -2.797   5.402  0.00  0.00    +0.019 A 
ATOM     15  C   UNL     1      -1.841  -1.670   4.966  0.00  0.00    +0.019 A 
ATOM     16  C   UNL     1      -2.145  -1.472   3.667  0.00  0.00    +0.092 A 
ENDBRANCH   7  12
BRANCH  10  18
ATOM     17  C   UNL     1      -7.582  -2.148  -3.652  0.00  0.00    -0.017 C 
ATOM     18  C   UNL     1      -6.331  -3.027  -3.706  0.00  0.00    -0.082 C 
ENDBRANCH  10  18
ENDBRANCH   1   8
BRANCH   1  19
ATOM     19  N   UNL     1      -1.179  -0.918   0.661  0.00  0.00    -0.295 N 
ATOM     20  C   UNL     1       0.101  -0.501   0.583  0.00  0.00    +0.304 C 
ATOM     21  O   UNL     1       1.004  -1.314   0.555  0.00  0.00    -0.252 OA
ATOM     22  N   UNL     1       0.379   0.817   0.537  0.00  0.00    -0.269 N 
ATOM     23  H   UNL     1      -1.899  -0.269   0.684  0.00  0.00    +0.151 HD
ATOM     24  H   UNL     1      -0.343   1.463   0.482  0.00  0.00    +0.156 HD
BRANCH  22  25
ATOM     25  C   UNL     1       1.701   1.251   0.563  0.00  0.00    +0.050 A 
ATOM     26  C   UNL     1       2.686   0.526  -0.094  0.00  0.00    +0.044 A 
ATOM     27  C   UNL     1       3.997   0.961  -0.072  0.00  0.00    +0.043 A 
ATOM     28  C   UNL     1       4.341   2.117   0.614  0.00  0.00    +0.021 A 
ATOM     29  C   UNL     1       3.378   2.846   1.275  0.00  0.00    +0.018 A 
ATOM     30  C   UNL     1       2.047   2.421   1.257  0.00  0.00    +0.080 A 
ATOM     31 CL   UNL     1       5.222   0.053  -0.902  0.00  0.00    -0.083 Cl
BRANCH  30  32
ATOM     32  C   UNL     1       1.012   3.196   1.963  0.00  0.00    +0.341 C 
ATOM     33  O   UNL     1      -0.126   2.774   2.027  0.00  0.00    -0.245 OA
BRANCH  32  34
ATOM     34  O   UNL     1       1.327   4.374   2.537  0.00  0.00    -0.464 OA
ATOM     35  C   UNL     1       0.256   5.084   3.215  0.00  0.00    +0.280 C 
ENDBRANCH  32  34
ENDBRANCH  30  32
ENDBRANCH  22  25
ENDBRANCH   1  19
TORSDOF 7
