REMARK  Name = ZINC19581659
REMARK  6 active torsions:
REMARK  status: ('A' for Active; 'I' for Inactive)
REMARK    1  A    between atoms: C_1  and  C_2
REMARK    2  A    between atoms: C_3  and  C_12
REMARK    3  A    between atoms: C_12  and  C_14
REMARK    4  A    between atoms: C_12  and  O_36
REMARK    5  A    between atoms: C_14  and  N_15
REMARK    6  A    between atoms: C_22  and  O_35
REMARK                            x       y       z     vdW  Elec       q    Type
REMARK                         _______ _______ _______ _____ _____    ______ ____
ROOT
ATOM      1  N   UNL     1      -5.993   1.917   2.241  0.00  0.00    +0.382 N 
ATOM      2  C   UNL     1      -4.888   2.723   2.775  0.00  0.00    -0.075 C 
ATOM      3  C   UNL     1      -4.858   4.082   2.072  0.00  0.00    +0.029 C 
ATOM      4  C   UNL     1      -4.682   3.868   0.567  0.00  0.00    +0.110 C 
ATOM      5  C   UNL     1      -5.815   2.984   0.042  0.00  0.00    +0.029 C 
ATOM      6  C   UNL     1      -5.816   1.657   0.807  0.00  0.00    -0.075 C 
ATOM      7  C   UNL     1      -4.715   5.221  -0.151  0.00  0.00    +0.084 C 
ATOM      8  C   UNL     1      -3.627   6.112   0.452  0.00  0.00    +0.152 C 
ATOM      9  C   UNL     1      -2.328   5.350   0.535  0.00  0.00    +0.023 A 
ATOM     10  C   UNL     1      -1.144   6.078   0.685  0.00  0.00    +0.010 A 
ATOM     11  C   UNL     1       0.063   5.461   0.776  0.00  0.00    +0.009 A 
ATOM     12  C   UNL     1       0.133   4.059   0.726  0.00  0.00    -0.014 A 
ATOM     13  C   UNL     1       1.362   3.384   0.823  0.00  0.00    +0.008 A 
ATOM     14  C   UNL     1       1.386   2.023   0.776  0.00  0.00    +0.001 A 
ATOM     15  C   UNL     1       0.211   1.289   0.630  0.00  0.00    +0.001 A 
ATOM     16  C   UNL     1      -0.995   1.911   0.524  0.00  0.00    +0.012 A 
ATOM     17  C   UNL     1      -1.060   3.313   0.574  0.00  0.00    +0.024 A 
ATOM     18  C   UNL     1      -2.299   3.988   0.471  0.00  0.00    +0.135 A 
ATOM     19  O   UNL     1      -3.425   3.248   0.309  0.00  0.00    -0.485 OA
ATOM     20  H   UNL     1      -6.920   2.497   2.365  0.00  0.00    -0.082 HD
ENDROOT
BRANCH   8  21
ATOM     21  O   UNL     1      -3.449   7.267  -0.371  0.00  0.00    -0.387 OA
ATOM     22  H   UNL     1      -2.704   8.028  -0.096  0.00  0.00    +0.210 HD
ENDBRANCH   8  21
BRANCH   1  23
ATOM     23  C   UNL     1      -6.140   0.662   2.990  0.00  0.00    -0.042 C 
BRANCH  23  24
ATOM     24  C   UNL     1      -5.030  -0.308   2.579  0.00  0.00    +0.130 C 
BRANCH  24  27
ATOM     25  C   UNL     1      -6.076  -2.868   1.169  0.00  0.00    +0.063 C 
ATOM     26  C   UNL     1      -5.719  -2.759   2.629  0.00  0.00    +0.019 A 
ATOM     27  C   UNL     1      -5.268  -1.647   3.230  0.00  0.00    +0.007 A 
ATOM     28  C   UNL     1      -5.043  -1.983   4.638  0.00  0.00    +0.005 A 
ATOM     29  C   UNL     1      -4.596  -1.263   5.749  0.00  0.00    +0.010 A 
ATOM     30  C   UNL     1      -4.502  -1.881   6.964  0.00  0.00    +0.001 A 
ATOM     31  C   UNL     1      -4.852  -3.216   7.105  0.00  0.00    +0.002 A 
ATOM     32  C   UNL     1      -5.301  -3.943   6.025  0.00  0.00    +0.026 A 
ATOM     33  C   UNL     1      -5.405  -3.335   4.778  0.00  0.00    +0.047 A 
ATOM     34  N   UNL     1      -5.808  -3.777   3.538  0.00  0.00    -0.358 N 
ATOM     35  H   UNL     1      -6.162  -4.769   3.220  0.00  0.00    +0.166 HD
ENDBRANCH  24  27
BRANCH  24  36
ATOM     36  O   UNL     1      -3.766   0.208   2.999  0.00  0.00    -0.389 OA
ATOM     37  H   UNL     1      -3.418   1.182   2.626  0.00  0.00    +0.210 HD
ENDBRANCH  24  36
ENDBRANCH  23  24
ENDBRANCH   1  23
TORSDOF 5
