REMARK  Name = ZINC33959183
REMARK  14 active torsions:
REMARK  status: ('A' for Active; 'I' for Inactive)
REMARK    1  A    between atoms: C_1  and  C_2
REMARK    2  A    between atoms: C_2  and  O_3
REMARK    3  A    between atoms: O_3  and  C_4
REMARK    4  A    between atoms: C_6  and  C_19
REMARK    5  A    between atoms: C_9  and  O_10
REMARK    6  A    between atoms: O_10  and  C_11
REMARK    7  A    between atoms: C_11  and  C_13
REMARK    8  A    between atoms: N_20  and  N_21
REMARK    9  A    between atoms: C_22  and  C_24
REMARK   10  A    between atoms: C_24  and  C_25
REMARK   11  A    between atoms: C_25  and  C_26
REMARK   12  A    between atoms: C_26  and  N_27
REMARK   13  A    between atoms: C_28  and  C_30
REMARK   14  A    between atoms: C_33  and  N_36
REMARK                            x       y       z     vdW  Elec       q    Type
REMARK                         _______ _______ _______ _____ _____    ______ ____
ROOT
ATOM      1  C   UNL     1      -0.227  -4.936   0.463  0.00  0.00    +0.138 C 
ATOM      2  N   UNL     1      -0.104  -6.221   0.324  0.00  0.00    -0.188 NA
ENDROOT
BRANCH   1   5
ATOM      3  C   UNL     1       0.748  -1.796  -1.351  0.00  0.00    +0.163 A 
ATOM      4  C   UNL     1       0.211  -2.644  -0.400  0.00  0.00    +0.059 A 
ATOM      5  C   UNL     1       0.343  -4.027  -0.548  0.00  0.00    -0.002 A 
ATOM      6  C   UNL     1       1.016  -4.547  -1.657  0.00  0.00    +0.013 A 
ATOM      7  C   UNL     1       1.549  -3.695  -2.601  0.00  0.00    +0.051 A 
ATOM      8  C   UNL     1       1.413  -2.322  -2.457  0.00  0.00    +0.173 A 
BRANCH   3   9
ATOM      9  O   UNL     1       0.622  -0.450  -1.209  0.00  0.00    -0.489 OA
BRANCH   9  11
ATOM     10  C   UNL     1      -0.113   1.548  -0.066  0.00  0.00    +0.048 C 
ATOM     11  C   UNL     1      -0.072   0.019  -0.051  0.00  0.00    +0.226 C 
ENDBRANCH   9  11
ENDBRANCH   3   9
BRANCH   8  12
ATOM     12  O   UNL     1       1.935  -1.487  -3.393  0.00  0.00    -0.419 OA
BRANCH  12  13
ATOM     13  C   UNL     1       3.129  -0.918  -3.138  0.00  0.00    +0.345 C 
ATOM     14  O   UNL     1       3.752  -1.232  -2.143  0.00  0.00    -0.245 OA
BRANCH  13  15
ATOM     15  C   UNL     1       3.682   0.088  -4.068  0.00  0.00    +0.059 A 
ATOM     16  C   UNL     1       2.967   0.455  -5.210  0.00  0.00    +0.015 A 
ATOM     17  C   UNL     1       3.489   1.395  -6.074  0.00  0.00    +0.001 A 
ATOM     18  C   UNL     1       4.719   1.973  -5.812  0.00  0.00    +0.000 A 
ATOM     19  C   UNL     1       5.433   1.613  -4.683  0.00  0.00    +0.001 A 
ATOM     20  C   UNL     1       4.920   0.679  -3.807  0.00  0.00    +0.015 A 
ENDBRANCH  13  15
ENDBRANCH  12  13
ENDBRANCH   8  12
ENDBRANCH   1   5
BRANCH   2  21
ATOM     21  N   UNL     1      -0.646  -7.085   1.285  0.00  0.00    -0.207 N 
ATOM     22  C   UNL     1      -0.518  -8.419   1.140  0.00  0.00    +0.232 C 
ATOM     23  O   UNL     1       0.066  -8.871   0.178  0.00  0.00    -0.274 OA
ATOM     24  H   UNL     1      -1.113  -6.723   2.054  0.00  0.00    +0.177 HD
BRANCH  22  25
ATOM     25  C   UNL     1      -1.100  -9.348   2.174  0.00  0.00    +0.099 C 
BRANCH  25  26
ATOM     26  C   UNL     1      -0.818 -10.797   1.774  0.00  0.00    +0.028 C 
BRANCH  26  27
ATOM     27  C   UNL     1      -1.409 -11.741   2.823  0.00  0.00    +0.105 C 
BRANCH  27  28
ATOM     28  N   UNL     1      -1.139 -13.129   2.440  0.00  0.00    -0.311 N 
ATOM     29  C   UNL     1      -1.569 -14.139   3.220  0.00  0.00    +0.244 C 
ATOM     30  O   UNL     1      -2.182 -13.899   4.243  0.00  0.00    -0.270 OA
ATOM     31  H   UNL     1      -0.650 -13.320   1.624  0.00  0.00    +0.149 HD
BRANCH  29  32
ATOM     32  C   UNL     1      -1.296 -15.540   2.834  0.00  0.00    +0.037 A 
ATOM     33  C   UNL     1      -0.588 -15.819   1.664  0.00  0.00    +0.015 A 
ATOM     34  C   UNL     1      -0.336 -17.128   1.309  0.00  0.00    +0.033 A 
ATOM     35  C   UNL     1      -0.784 -18.163   2.110  0.00  0.00    +0.126 A 
ATOM     36  C   UNL     1      -1.487 -17.894   3.271  0.00  0.00    +0.033 A 
ATOM     37  C   UNL     1      -1.740 -16.589   3.640  0.00  0.00    +0.015 A 
BRANCH  35  38
ATOM     38  N   UNL     1      -0.511 -19.566   1.722  0.00  0.00    +0.056 N 
ATOM     39  O   UNL     1       0.103 -19.804   0.708  0.00  0.00    -0.126 OA
ATOM     40  O   UNL     1      -0.901 -20.472   2.420  0.00  0.00    -0.126 OA
ENDBRANCH  35  38
ENDBRANCH  29  32
ENDBRANCH  27  28
ENDBRANCH  26  27
ENDBRANCH  25  26
ENDBRANCH  22  25
ENDBRANCH   2  21
TORSDOF 13
