REMARK  Name = ZINC43218677
REMARK  6 active torsions:
REMARK  status: ('A' for Active; 'I' for Inactive)
REMARK    1  A    between atoms: C_1  and  C_2
REMARK    2  A    between atoms: C_2  and  C_3
REMARK    3  A    between atoms: C_6  and  N_9
REMARK    4  A    between atoms: C_14  and  C_26
REMARK    5  A    between atoms: C_17  and  C_22
REMARK    6  A    between atoms: C_17  and  C_23
REMARK                            x       y       z     vdW  Elec       q    Type
REMARK                         _______ _______ _______ _____ _____    ______ ____
ROOT
ATOM      1  N   UNL     1       3.252  -1.582  -4.234  0.00  0.00    -0.210 N 
ATOM      2  C   UNL     1       2.391  -1.713  -5.295  0.00  0.00    +0.229 C 
ATOM      3  O   UNL     1       1.280  -1.243  -5.410  0.00  0.00    -0.275 OA
ATOM      4  C   UNL     1       3.105  -2.535  -6.244  0.00  0.00    +0.078 C 
ATOM      5  C   UNL     1       3.084  -2.888  -7.671  0.00  0.00    -0.020 C 
ATOM      6  N   UNL     1       4.451  -3.447  -7.934  0.00  0.00    +0.396 N 
ATOM      7  C   UNL     1       5.255  -3.283  -6.680  0.00  0.00    +0.045 C 
ATOM      8  C   UNL     1       4.594  -2.047  -6.033  0.00  0.00    +0.086 C 
ATOM      9  C   UNL     1       4.523  -1.983  -4.532  0.00  0.00    +0.229 C 
ATOM     10  O   UNL     1       5.412  -2.237  -3.748  0.00  0.00    -0.275 OA
ATOM     11  C   UNL     1       5.133  -4.522  -5.791  0.00  0.00    +0.002 C 
ATOM     12  H   UNL     1       4.381  -4.426  -8.171  0.00  0.00    -0.083 HD
ATOM     13  H   UNL     1       4.888  -2.941  -8.690  0.00  0.00    -0.083 HD
ENDROOT
BRANCH   1  17
ATOM     14  C   UNL     1       2.112  -0.104  -0.506  0.00  0.00    -0.048 A 
ATOM     15  C   UNL     1       1.179  -0.209  -1.522  0.00  0.00    +0.005 A 
ATOM     16  C   UNL     1       1.554  -0.698  -2.758  0.00  0.00    +0.024 A 
ATOM     17  C   UNL     1       2.869  -1.085  -2.980  0.00  0.00    +0.044 A 
ATOM     18  C   UNL     1       3.803  -0.978  -1.959  0.00  0.00    +0.024 A 
ATOM     19  C   UNL     1       3.423  -0.484  -0.726  0.00  0.00    +0.005 A 
BRANCH  14  21
ATOM     20  C   UNL     1       1.875   1.950   0.863  0.00  0.00    +0.009 C 
ATOM     21  C   UNL     1       1.699   0.430   0.841  0.00  0.00    +0.032 C 
ENDBRANCH  14  21
ENDBRANCH   1  17
BRANCH   5  22
ATOM     22  C   UNL     1       2.842  -1.662  -8.513  0.00  0.00    -0.022 A 
ATOM     23  C   UNL     1       1.690  -1.232  -9.082  0.00  0.00    +0.011 A 
ATOM     24  C   UNL     1       1.702  -0.064  -9.822  0.00  0.00    +0.028 A 
ATOM     25  C   UNL     1       2.868   0.616  -9.957  0.00  0.00    +0.078 A 
ATOM     26  S   UNL     1       3.997  -0.397  -9.015  0.00  0.00    -0.083 S 
ATOM     27 CL   UNL     1       3.180   2.091 -10.818  0.00  0.00    -0.076 Cl
ENDBRANCH   5  22
BRANCH   7  28
ATOM     28  C   UNL     1       6.699  -2.997  -7.005  0.00  0.00    +0.346 C 
ATOM     29  O   UNL     1       7.066  -2.956  -8.166  0.00  0.00    -0.248 OA
ATOM     30  O   UNL     1       7.500  -2.807  -6.105  0.00  0.00    -0.248 OA
ENDBRANCH   7  28
TORSDOF 4
