REMARK  Name = ZINC41004820
REMARK  9 active torsions:
REMARK  status: ('A' for Active; 'I' for Inactive)
REMARK    1  A    between atoms: C_1  and  C_2
REMARK    2  A    between atoms: C_2  and  O_3
REMARK    3  A    between atoms: O_3  and  C_4
REMARK    4  A    between atoms: C_9  and  C_10
REMARK    5  A    between atoms: C_12  and  C_24
REMARK    6  A    between atoms: C_13  and  C_23
REMARK    7  A    between atoms: C_18  and  S_20
REMARK    8  A    between atoms: S_20  and  C_21
REMARK    9  A    between atoms: C_21  and  C_22
REMARK                            x       y       z     vdW  Elec       q    Type
REMARK                         _______ _______ _______ _____ _____    ______ ____
ROOT
ATOM      1  C   UNL     1       2.063  -1.515   3.395  0.00  0.00    +0.181 C 
ATOM      2  C   UNL     1       1.371  -1.887   4.679  0.00  0.00    +0.060 C 
ATOM      3  C   UNL     1       2.012  -2.427   5.726  0.00  0.00    +0.018 C 
ATOM      4  N   UNL     1       3.363  -2.673   5.709  0.00  0.00    -0.287 N 
ATOM      5  C   UNL     1       4.103  -2.108   4.679  0.00  0.00    +0.219 A 
ATOM      6  N   UNL     1       3.510  -1.558   3.591  0.00  0.00    -0.220 N 
ATOM      7  N   UNL     1       4.535  -1.084   2.773  0.00  0.00    -0.141 NA
ATOM      8  C   UNL     1       5.666  -1.366   3.383  0.00  0.00    +0.210 A 
ATOM      9  N   UNL     1       5.395  -1.989   4.540  0.00  0.00    -0.187 NA
ATOM     10  C   UNL     1       1.224  -2.776   6.962  0.00  0.00    +0.061 C 
ATOM     11  H   UNL     1       3.784  -3.220   6.390  0.00  0.00    +0.155 HD
ENDROOT
BRANCH   1  17
ATOM     12  C   UNL     1       1.038  -2.038   1.167  0.00  0.00    +0.126 A 
ATOM     13  C   UNL     1       0.686  -2.938   0.171  0.00  0.00    +0.047 A 
ATOM     14  C   UNL     1       0.965  -4.282   0.325  0.00  0.00    +0.019 A 
ATOM     15  C   UNL     1       1.595  -4.731   1.472  0.00  0.00    +0.018 A 
ATOM     16  C   UNL     1       1.946  -3.837   2.467  0.00  0.00    +0.025 A 
ATOM     17  C   UNL     1       1.674  -2.490   2.314  0.00  0.00    +0.024 A 
ATOM     18 BR   UNL     1       1.976  -6.572   1.680  0.00  0.00    -0.050 Br
BRANCH  12  19
ATOM     19  O   UNL     1       0.764  -0.716   1.018  0.00  0.00    -0.492 OA
BRANCH  19  21
ATOM     20  C   UNL     1      -0.116   1.192  -0.177  0.00  0.00    +0.048 C 
ATOM     21  C   UNL     1       0.107  -0.322  -0.189  0.00  0.00    +0.225 C 
ENDBRANCH  19  21
ENDBRANCH  12  19
ENDBRANCH   1  17
BRANCH   2  22
ATOM     22  C   UNL     1      -0.021  -1.656   4.787  0.00  0.00    +0.241 C 
ATOM     23  O   UNL     1      -0.440  -0.523   4.934  0.00  0.00    -0.271 OA
ATOM     24  N   UNL     1      -0.882  -2.691   4.726  0.00  0.00    -0.325 N 
ATOM     25  H   UNL     1      -0.548  -3.594   4.608  0.00  0.00    +0.145 HD
ATOM     26  H   UNL     1      -1.836  -2.533   4.800  0.00  0.00    +0.145 HD
ENDBRANCH   2  22
BRANCH   8  27
ATOM     27  S   UNL     1       7.277  -0.986   2.778  0.00  0.00    -0.085 S 
BRANCH  27  28
ATOM     28  C   UNL     1       8.389  -1.626   4.060  0.00  0.00    +0.074 C 
ATOM     29  C   UNL     1       9.840  -1.358   3.656  0.00  0.00    +0.016 C 
ENDBRANCH  27  28
ENDBRANCH   8  27
TORSDOF 6
