REMARK  Name = ZINC04962611
REMARK  7 active torsions:
REMARK  status: ('A' for Active; 'I' for Inactive)
REMARK    1  A    between atoms: C_1  and  C_2
REMARK    2  A    between atoms: C_2  and  C_16
REMARK    3  A    between atoms: N_3  and  N_4
REMARK    4  A    between atoms: C_5  and  C_7
REMARK    5  A    between atoms: C_7  and  O_8
REMARK    6  A    between atoms: O_8  and  C_9
REMARK    7  A    between atoms: C_25  and  O_26
REMARK                            x       y       z     vdW  Elec       q    Type
REMARK                         _______ _______ _______ _____ _____    ______ ____
ROOT
ATOM      1  C   UNL     1      -0.018   1.503   0.010  0.00  0.00    +0.068 C 
ATOM      2  C   UNL     1       0.002  -0.004   0.002  0.00  0.00    +0.067 C 
ATOM      3  N   UNL     1       0.022  -0.659   1.123  0.00  0.00    -0.184 NA
ENDROOT
BRANCH   2   4
ATOM      4  C   UNL     1      -0.000  -0.734  -1.277  0.00  0.00    +0.039 A 
ATOM      5  C   UNL     1      -0.015  -0.019  -2.489  0.00  0.00    +0.014 A 
ATOM      6  C   UNL     1      -0.018  -0.669  -3.681  0.00  0.00    +0.009 A 
ATOM      7  C   UNL     1      -0.005  -2.076  -3.720  0.00  0.00    -0.014 A 
ATOM      8  C   UNL     1      -0.007  -2.766  -4.944  0.00  0.00    +0.008 A 
ATOM      9  C   UNL     1       0.006  -4.127  -4.951  0.00  0.00    +0.001 A 
ATOM     10  C   UNL     1       0.020  -4.851  -3.761  0.00  0.00    +0.001 A 
ATOM     11  C   UNL     1       0.022  -4.217  -2.556  0.00  0.00    +0.012 A 
ATOM     12  C   UNL     1       0.010  -2.812  -2.510  0.00  0.00    +0.024 A 
ATOM     13  C   UNL     1       0.019  -2.125  -1.280  0.00  0.00    +0.133 A 
BRANCH  13  14
ATOM     14  O   UNL     1       0.039  -2.813  -0.111  0.00  0.00    -0.506 OA
ATOM     15  H   UNL     1      -0.838  -3.024   0.236  0.00  0.00    +0.292 HD
ENDBRANCH  13  14
ENDBRANCH   2   4
BRANCH   3  16
ATOM     16  N   UNL     1       0.024   0.035   2.340  0.00  0.00    -0.204 N 
ATOM     17  C   UNL     1       0.044  -0.645   3.503  0.00  0.00    +0.270 C 
ATOM     18  O   UNL     1       0.060  -1.859   3.497  0.00  0.00    -0.270 OA
ATOM     19  H   UNL     1       0.011   1.004   2.345  0.00  0.00    +0.177 HD
BRANCH  17  20
ATOM     20  C   UNL     1       0.046   0.101   4.813  0.00  0.00    +0.326 C 
BRANCH  20  21
ATOM     21  O   UNL     1       0.069  -0.833   5.894  0.00  0.00    -0.483 OA
BRANCH  21  22
ATOM     22  C   UNL     1       0.074  -0.321   7.152  0.00  0.00    +0.122 A 
ATOM     23  C   UNL     1       0.051   1.054   7.343  0.00  0.00    +0.046 A 
ATOM     24  C   UNL     1       0.057   1.573   8.623  0.00  0.00    +0.005 A 
ATOM     25  C   UNL     1       0.084   0.724   9.714  0.00  0.00    +0.015 A 
ATOM     26  C   UNL     1       0.107  -0.646   9.527  0.00  0.00    +0.021 A 
ATOM     27  C   UNL     1       0.096  -1.171   8.248  0.00  0.00    +0.061 A 
ATOM     28 BR   UNL     1       0.146  -1.803  11.023  0.00  0.00    -0.050 Br
ENDBRANCH  21  22
ENDBRANCH  20  21
ENDBRANCH  17  20
ENDBRANCH   3  16
TORSDOF 6
