REMARK  Name = ZINC53815215
REMARK  7 active torsions:
REMARK  status: ('A' for Active; 'I' for Inactive)
REMARK    1  A    between atoms: C_1  and  N_2
REMARK    2  A    between atoms: N_7  and  C_10
REMARK    3  A    between atoms: N_11  and  C_14
REMARK    4  A    between atoms: C_14  and  C_15
REMARK    5  A    between atoms: C_15  and  N_16
REMARK    6  A    between atoms: C_19  and  C_22
REMARK    7  A    between atoms: C_25  and  O_28
REMARK                            x       y       z     vdW  Elec       q    Type
REMARK                         _______ _______ _______ _____ _____    ______ ____
ROOT
ATOM      1  C   UNL     1      -2.952  -4.452   1.428  0.00  0.00    -0.056 C 
ENDROOT
BRANCH   1   2
ATOM      2  N   UNL     1      -3.416  -5.846   1.422  0.00  0.00    +0.383 N 
ATOM      3  C   UNL     1      -3.553  -6.325   2.806  0.00  0.00    -0.074 C 
ATOM      4  C   UNL     1      -4.277  -7.674   2.787  0.00  0.00    +0.017 C 
ATOM      5  C   UNL     1      -3.618  -8.585   1.786  0.00  0.00    -0.048 C 
ATOM      6  C   UNL     1      -2.797  -8.137   0.861  0.00  0.00    -0.041 C 
ATOM      7  C   UNL     1      -2.438  -6.686   0.721  0.00  0.00    -0.051 C 
ATOM      8  H   UNL     1      -4.308  -5.903   0.953  0.00  0.00    -0.081 HD
BRANCH   5   9
ATOM      9  C   UNL     1      -3.904 -10.033   1.845  0.00  0.00    -0.022 A 
ATOM     10  C   UNL     1      -5.192 -10.504   1.585  0.00  0.00    +0.012 A 
ATOM     11  C   UNL     1      -5.454 -11.856   1.641  0.00  0.00    +0.046 A 
ATOM     12  C   UNL     1      -4.439 -12.749   1.956  0.00  0.00    +0.117 A 
ATOM     13  C   UNL     1      -3.156 -12.285   2.217  0.00  0.00    +0.046 A 
ATOM     14  C   UNL     1      -2.885 -10.935   2.157  0.00  0.00    +0.012 A 
BRANCH  12  15
ATOM     15  O   UNL     1      -4.701 -14.082   2.011  0.00  0.00    -0.507 OA
ATOM     16  H   UNL     1      -4.576 -14.542   1.169  0.00  0.00    +0.292 HD
ENDBRANCH  12  15
ENDBRANCH   5   9
ENDBRANCH   1   2
BRANCH   1  17
ATOM     17  C   UNL     1      -2.918  -3.920  -0.006  0.00  0.00    +0.105 C 
BRANCH  17  28
ATOM     18  C   UNL     1      -0.018   1.461   0.010  0.00  0.00    +0.155 C 
ATOM     19  N   UNL     1       0.002  -0.004   0.002  0.00  0.00    -0.280 N 
ATOM     20  C   UNL     1      -1.189  -0.712   0.004  0.00  0.00    +0.168 A 
ATOM     21  C   UNL     1      -1.144  -2.100  -0.004  0.00  0.00    +0.151 A 
ATOM     22  C   UNL     1       0.111  -2.748  -0.013  0.00  0.00    +0.282 A 
ATOM     23  O   UNL     1       0.176  -3.964  -0.021  0.00  0.00    -0.265 OA
ATOM     24  N   UNL     1       1.236  -2.003  -0.015  0.00  0.00    -0.262 N 
ATOM     25  C   UNL     1       1.178  -0.660  -0.013  0.00  0.00    +0.333 A 
ATOM     26  O   UNL     1       2.213  -0.022  -0.020  0.00  0.00    -0.246 OA
ATOM     27  C   UNL     1       2.541  -2.668  -0.025  0.00  0.00    +0.157 C 
ATOM     28  N   UNL     1      -2.456  -2.530   0.000  0.00  0.00    -0.326 N 
ATOM     29  C   UNL     1      -3.231  -1.427   0.010  0.00  0.00    +0.202 A 
ATOM     30  N   UNL     1      -2.477  -0.358   0.012  0.00  0.00    -0.218 NA
ENDBRANCH  17  28
ENDBRANCH   1  17
TORSDOF 5
