REMARK  Name = ZINC32957290
REMARK  11 active torsions:
REMARK  status: ('A' for Active; 'I' for Inactive)
REMARK    1  A    between atoms: C_1  and  C_2
REMARK    2  A    between atoms: C_2  and  C_3
REMARK    3  A    between atoms: C_6  and  C_9
REMARK    4  A    between atoms: C_9  and  C_11
REMARK    5  A    between atoms: C_9  and  N_12
REMARK    6  A    between atoms: C_13  and  C_15
REMARK    7  A    between atoms: C_15  and  S_16
REMARK    8  A    between atoms: S_16  and  C_17
REMARK    9  A    between atoms: C_20  and  C_23
REMARK   10  A    between atoms: N_21  and  N_22
REMARK   11  A    between atoms: C_23  and  C_24
REMARK                            x       y       z     vdW  Elec       q    Type
REMARK                         _______ _______ _______ _____ _____    ______ ____
ROOT
ATOM      1  S   UNL     1      -0.888   1.685  -1.458  0.00  0.00    -0.075 S 
ENDROOT
BRANCH   1   2
ATOM      2  C   UNL     1       0.122   0.990  -2.724  0.00  0.00    +0.209 A 
ATOM      3  N   UNL     1       1.194   0.253  -2.549  0.00  0.00    -0.121 NA
ATOM      4  N   UNL     1       1.683  -0.084  -3.689  0.00  0.00    -0.132 NA
ATOM      5  C   UNL     1       0.958   0.414  -4.651  0.00  0.00    +0.155 A 
ATOM      6  N   UNL     1      -0.066   1.111  -4.071  0.00  0.00    -0.228 N 
BRANCH   6   7
ATOM      7  N   UNL     1      -1.066   1.789  -4.706  0.00  0.00    -0.295 N 
ATOM      8  H   UNL     1      -1.105   1.810  -5.805  0.00  0.00    +0.163 HD
ATOM      9  H   UNL     1      -1.833   2.316  -4.119  0.00  0.00    +0.163 HD
ENDBRANCH   6   7
BRANCH   5  10
ATOM     10  C   UNL     1       1.199   0.247  -6.129  0.00  0.00    +0.113 C 
BRANCH  10  11
ATOM     11  C   UNL     1       0.475  -0.980  -6.621  0.00  0.00    -0.040 A 
ATOM     12  C   UNL     1       1.113  -2.206  -6.619  0.00  0.00    +0.005 A 
ATOM     13  C   UNL     1       0.448  -3.333  -7.065  0.00  0.00    +0.015 A 
ATOM     14  C   UNL     1      -0.853  -3.231  -7.524  0.00  0.00    +0.018 A 
ATOM     15  C   UNL     1      -1.489  -2.003  -7.531  0.00  0.00    +0.015 A 
ATOM     16  C   UNL     1      -0.825  -0.878  -7.079  0.00  0.00    +0.005 A 
ATOM     17 BR   UNL     1      -1.761  -4.770  -8.141  0.00  0.00    -0.050 Br
ENDBRANCH  10  11
ENDBRANCH   5  10
ENDBRANCH   1   2
BRANCH   1  18
ATOM     18  C   UNL     1      -0.013   1.086   0.008  0.00  0.00    +0.173 C 
BRANCH  18  20
ATOM     19  N   UNL     1      -0.242   1.246   2.466  0.00  0.00    -0.308 N 
ATOM     20  C   UNL     1      -0.718   1.572   1.248  0.00  0.00    +0.224 C 
ATOM     21  O   UNL     1      -1.714   2.256   1.150  0.00  0.00    -0.275 OA
ATOM     22  H   UNL     1       0.662   0.625   2.555  0.00  0.00    +0.149 HD
BRANCH  19  23
ATOM     23  C   UNL     1      -0.927   1.718   3.671  0.00  0.00    +0.100 C 
ATOM     24  C   UNL     1      -2.065   0.757   4.021  0.00  0.00    +0.033 C 
BRANCH  23  28
ATOM     25  C   UNL     1       1.846   1.881   6.916  0.00  0.00    -0.048 A 
ATOM     26  C   UNL     1       0.906   2.883   6.759  0.00  0.00    +0.004 A 
ATOM     27  C   UNL     1       0.008   2.830   5.709  0.00  0.00    +0.006 A 
ATOM     28  C   UNL     1       0.051   1.776   4.816  0.00  0.00    -0.027 A 
ATOM     29  C   UNL     1       0.988   0.772   4.976  0.00  0.00    +0.006 A 
ATOM     30  C   UNL     1       1.889   0.828   6.023  0.00  0.00    +0.004 A 
BRANCH  25  32
ATOM     31  C   UNL     1       2.231   1.220   9.275  0.00  0.00    +0.009 C 
ATOM     32  C   UNL     1       2.824   1.939   8.061  0.00  0.00    +0.032 C 
ENDBRANCH  25  32
ENDBRANCH  23  28
ENDBRANCH  19  23
ENDBRANCH  18  20
ENDBRANCH   1  18
TORSDOF 9
