REMARK  Name = ZINC63271318
REMARK  5 active torsions:
REMARK  status: ('A' for Active; 'I' for Inactive)
REMARK    1  A    between atoms: C_7  and  C_10
REMARK    2  A    between atoms: C_10  and  C_11
REMARK    3  A    between atoms: C_11  and  N_12
REMARK    4  A    between atoms: C_13  and  C_15
REMARK    5  A    between atoms: C_15  and  N_16
REMARK                            x       y       z     vdW  Elec       q    Type
REMARK                         _______ _______ _______ _____ _____    ______ ____
ROOT
ATOM      1  N   UNL     1      -1.981  -7.001  -3.998  0.00  0.00    -0.291 N 
ATOM      2  C   UNL     1      -2.789  -8.052  -4.242  0.00  0.00    +0.303 C 
ATOM      3  O   UNL     1      -3.259  -8.685  -3.317  0.00  0.00    -0.253 OA
ATOM      4  N   UNL     1      -3.075  -8.401  -5.512  0.00  0.00    -0.284 N 
ATOM      5  C   UNL     1      -4.046  -9.461  -5.768  0.00  0.00    +0.110 C 
ATOM      6  C   UNL     1      -3.405 -10.536  -6.625  0.00  0.00    +0.025 C 
ATOM      7  C   UNL     1      -2.513 -10.049  -7.701  0.00  0.00    +0.029 C 
ATOM      8  C   UNL     1      -2.021  -8.622  -7.757  0.00  0.00    +0.127 C 
ATOM      9  C   UNL     1      -2.420  -7.717  -6.607  0.00  0.00    +0.136 C 
ATOM     10  N   UNL     1      -2.585  -8.063  -9.009  0.00  0.00    -0.282 NA
ATOM     11  C   UNL     1      -3.171  -8.950  -9.727  0.00  0.00    +0.043 C 
ATOM     12  C   UNL     1      -2.978 -10.319  -9.124  0.00  0.00    +0.066 C 
ATOM     13  C   UNL     1      -4.276 -11.056  -9.225  0.00  0.00    +0.003 C 
ATOM     14  C   UNL     1      -5.159 -10.727 -10.170  0.00  0.00    +0.038 C 
ATOM     15  C   UNL     1      -4.912  -9.654 -11.132  0.00  0.00    +0.021 C 
ATOM     16  C   UNL     1      -3.917  -8.786 -10.931  0.00  0.00    +0.025 C 
ATOM     17 CL   UNL     1      -6.654 -11.606 -10.261  0.00  0.00    -0.084 Cl
ATOM     18  H   UNL     1      -1.549  -6.540  -4.734  0.00  0.00    +0.151 HD
ENDROOT
BRANCH   1  19
ATOM     19  C   UNL     1      -1.756  -6.554  -2.621  0.00  0.00    +0.201 C 
BRANCH  19  21
ATOM     20  N   UNL     1      -0.470  -4.790  -1.459  0.00  0.00    -0.314 N 
ATOM     21  C   UNL     1      -0.822  -5.372  -2.623  0.00  0.00    +0.230 C 
ATOM     22  O   UNL     1      -0.387  -4.944  -3.671  0.00  0.00    -0.274 OA
ATOM     23  H   UNL     1      -0.818  -5.132  -0.621  0.00  0.00    +0.149 HD
BRANCH  20  24
ATOM     24  C   UNL     1       0.438  -3.640  -1.461  0.00  0.00    +0.108 C 
BRANCH  24  25
ATOM     25  C   UNL     1       0.672  -3.174  -0.023  0.00  0.00    +0.052 C 
BRANCH  25  32
ATOM     26  C   UNL     1      -0.061   1.356   0.021  0.00  0.00    +0.001 A 
ATOM     27  C   UNL     1       1.117   2.116   0.013  0.00  0.00    +0.002 A 
ATOM     28  C   UNL     1       2.345   1.557  -0.006  0.00  0.00    +0.026 A 
ATOM     29  C   UNL     1       2.491   0.142  -0.019  0.00  0.00    +0.043 A 
ATOM     30  N   UNL     1       3.554  -0.625  -0.038  0.00  0.00    -0.380 N 
ATOM     31  C   UNL     1       3.118  -2.026  -0.043  0.00  0.00    +0.144 C 
ATOM     32  C   UNL     1       1.607  -1.991  -0.024  0.00  0.00    -0.040 C 
ATOM     33  C   UNL     1       1.263  -0.683  -0.010  0.00  0.00    -0.001 A 
ATOM     34  C   UNL     1      -0.035   0.004   0.011  0.00  0.00    +0.010 A 
ATOM     35  H   UNL     1       4.474  -0.319  -0.047  0.00  0.00    +0.160 HD
ENDBRANCH  25  32
ENDBRANCH  24  25
ENDBRANCH  20  24
ENDBRANCH  19  21
ENDBRANCH   1  19
TORSDOF 5
