REMARK  Name = ZINC64044992
REMARK  7 active torsions:
REMARK  status: ('A' for Active; 'I' for Inactive)
REMARK    1  A    between atoms: C_1  and  O_2
REMARK    2  A    between atoms: O_2  and  C_3
REMARK    3  A    between atoms: C_7  and  C_11
REMARK    4  A    between atoms: C_8  and  O_9
REMARK    5  A    between atoms: O_9  and  C_10
REMARK    6  A    between atoms: N_25  and  C_26
REMARK    7  A    between atoms: C_26  and  C_27
REMARK                            x       y       z     vdW  Elec       q    Type
REMARK                         _______ _______ _______ _____ _____    ______ ____
ROOT
ATOM      1  C   UNL     1      -2.859  -4.122  -0.297  0.00  0.00    +0.117 C 
ATOM      2  C   UNL     1      -2.833  -4.801   1.074  0.00  0.00    +0.128 C 
ATOM      3  C   UNL     1      -4.048  -4.278   1.831  0.00  0.00    -0.035 C 
ATOM      4  C   UNL     1      -3.595  -3.795   2.980  0.00  0.00    -0.001 A 
ATOM      5  C   UNL     1      -4.289  -3.240   4.153  0.00  0.00    +0.010 A 
ATOM      6  C   UNL     1      -3.497  -2.816   5.173  0.00  0.00    +0.001 A 
ATOM      7  C   UNL     1      -2.100  -2.888   5.144  0.00  0.00    +0.002 A 
ATOM      8  C   UNL     1      -1.380  -3.389   4.109  0.00  0.00    +0.026 A 
ATOM      9  C   UNL     1      -2.102  -3.872   2.979  0.00  0.00    +0.043 A 
ATOM     10  N   UNL     1      -1.663  -4.426   1.866  0.00  0.00    -0.376 N 
ATOM     11  C   UNL     1      -5.427  -4.284   1.217  0.00  0.00    +0.049 C 
ATOM     12  C   UNL     1      -5.271  -3.689  -0.194  0.00  0.00    +0.090 C 
ATOM     13  N   UNL     1      -4.177  -4.357  -0.907  0.00  0.00    -0.288 NA
ATOM     14  H   UNL     1      -0.737  -4.560   1.609  0.00  0.00    +0.160 HD
ENDROOT
BRANCH   1  19
ATOM     15  C   UNL     1      -1.422  -0.643  -0.700  0.00  0.00    +0.162 A 
ATOM     16  C   UNL     1      -2.219   0.083   0.171  0.00  0.00    +0.049 A 
ATOM     17  C   UNL     1      -3.219  -0.553   0.884  0.00  0.00    +0.004 A 
ATOM     18  C   UNL     1      -3.424  -1.911   0.732  0.00  0.00    +0.009 A 
ATOM     19  C   UNL     1      -2.632  -2.641  -0.134  0.00  0.00    +0.017 A 
ATOM     20  C   UNL     1      -1.633  -2.009  -0.858  0.00  0.00    +0.166 A 
BRANCH  15  22
ATOM     21  C   UNL     1      -0.280   1.385  -1.191  0.00  0.00    +0.277 C 
ATOM     22  O   UNL     1      -0.439  -0.019  -1.403  0.00  0.00    -0.491 OA
ENDBRANCH  15  22
BRANCH  20  23
ATOM     23  O   UNL     1      -0.856  -2.724  -1.715  0.00  0.00    -0.491 OA
ATOM     24  C   UNL     1       0.393  -3.203  -1.213  0.00  0.00    +0.277 C 
ENDBRANCH  20  23
ENDBRANCH   1  19
BRANCH  13  25
ATOM     25  C   UNL     1      -4.173  -3.991  -2.329  0.00  0.00    +0.127 C 
BRANCH  25  26
ATOM     26  C   UNL     1      -5.447  -4.470  -2.975  0.00  0.00    +0.004 A 
ATOM     27  C   UNL     1      -6.630  -3.822  -3.112  0.00  0.00    +0.012 A 
ATOM     28  C   UNL     1      -7.676  -4.464  -3.748  0.00  0.00    +0.008 A 
ATOM     29  C   UNL     1      -7.488  -5.722  -4.217  0.00  0.00    +0.045 A 
ATOM     30  S   UNL     1      -5.789  -6.034  -3.766  0.00  0.00    -0.100 S 
ENDBRANCH  25  26
ENDBRANCH  13  25
TORSDOF 5
