REMARK  Name = ZINC67184117
REMARK  9 active torsions:
REMARK  status: ('A' for Active; 'I' for Inactive)
REMARK    1  A    between atoms: C_1  and  C_2
REMARK    2  A    between atoms: C_4  and  C_11
REMARK    3  A    between atoms: C_6  and  C_10
REMARK    4  A    between atoms: C_7  and  O_8
REMARK    5  A    between atoms: O_8  and  C_9
REMARK    6  A    between atoms: C_11  and  N_12
REMARK    7  A    between atoms: N_12  and  C_13
REMARK    8  A    between atoms: C_13  and  C_15
REMARK    9  A    between atoms: C_13  and  C_16
REMARK                            x       y       z     vdW  Elec       q    Type
REMARK                         _______ _______ _______ _____ _____    ______ ____
ROOT
ATOM      1  N   UNL     1       1.414  -3.039  -2.949  0.00  0.00    +0.386 N 
ATOM      2  H   UNL     1       1.877  -2.150  -3.066  0.00  0.00    -0.085 HD
ATOM      3  H   UNL     1       1.900  -3.583  -2.252  0.00  0.00    -0.085 HD
ENDROOT
BRANCH   1   4
ATOM      4  C   UNL     1       1.417  -3.764  -4.226  0.00  0.00    -0.043 C 
ATOM      5  C   UNL     1       0.828  -5.161  -4.021  0.00  0.00    -0.009 C 
BRANCH   4   6
ATOM      6  C   UNL     1       2.832  -3.886  -4.731  0.00  0.00    -0.058 A 
ATOM      7  C   UNL     1       3.859  -4.158  -3.847  0.00  0.00    +0.006 A 
ATOM      8  C   UNL     1       5.158  -4.269  -4.307  0.00  0.00    +0.049 A 
ATOM      9  C   UNL     1       5.434  -4.107  -5.656  0.00  0.00    +0.162 A 
ATOM     10  C   UNL     1       4.401  -3.836  -6.545  0.00  0.00    +0.162 A 
ATOM     11  C   UNL     1       3.099  -3.730  -6.078  0.00  0.00    +0.051 A 
ATOM     12  O   UNL     1       4.649  -3.681  -7.875  0.00  0.00    -0.485 OA
ATOM     13  C   UNL     1       6.007  -3.430  -8.251  0.00  0.00    +0.270 C 
ATOM     14  C   UNL     1       6.905  -4.420  -7.498  0.00  0.00    +0.270 C 
ATOM     15  O   UNL     1       6.719  -4.215  -6.093  0.00  0.00    -0.485 OA
ENDBRANCH   4   6
ENDBRANCH   1   4
BRANCH   1  16
ATOM     16  C   UNL     1       0.028  -2.816  -2.516  0.00  0.00    -0.046 C 
BRANCH  16  20
ATOM     17  C   UNL     1      -0.018   1.503   0.010  0.00  0.00    +0.047 C 
ATOM     18  C   UNL     1       0.002  -0.004   0.002  0.00  0.00    -0.008 A 
ATOM     19  C   UNL     1       0.006  -0.689  -1.198  0.00  0.00    +0.008 A 
ATOM     20  C   UNL     1       0.024  -2.071  -1.206  0.00  0.00    -0.064 A 
ATOM     21  C   UNL     1       0.040  -2.772  -0.014  0.00  0.00    +0.008 A 
ATOM     22  C   UNL     1       0.036  -2.092   1.188  0.00  0.00    -0.008 A 
ATOM     23  C   UNL     1       0.023  -0.705   1.199  0.00  0.00    +0.126 A 
ATOM     24  C   UNL     1       0.052  -2.856   2.487  0.00  0.00    +0.047 C 
BRANCH  23  25
ATOM     25  O   UNL     1       0.025  -0.033   2.381  0.00  0.00    -0.495 OA
ATOM     26  C   UNL     1      -1.246   0.270   2.957  0.00  0.00    +0.277 C 
ENDBRANCH  23  25
ENDBRANCH  16  20
ENDBRANCH   1  16
TORSDOF 5
