REMARK  Name = ZINC64058506
REMARK  6 active torsions:
REMARK  status: ('A' for Active; 'I' for Inactive)
REMARK    1  A    between atoms: C_5  and  C_12
REMARK    2  A    between atoms: C_12  and  N_13
REMARK    3  A    between atoms: C_14  and  C_16
REMARK    4  A    between atoms: C_16  and  C_17
REMARK    5  A    between atoms: N_24  and  C_25
REMARK    6  A    between atoms: C_25  and  C_26
REMARK                            x       y       z     vdW  Elec       q    Type
REMARK                         _______ _______ _______ _____ _____    ______ ____
ROOT
ATOM      1  C   UNL     1       9.138   4.770   5.047  0.00  0.00    +0.089 C 
ENDROOT
BRANCH   1   2
ATOM      2  C   UNL     1       8.150   4.370   6.145  0.00  0.00    +0.028 C 
ATOM      3  C   UNL     1       7.745   5.593   6.919  0.00  0.00    +0.200 C 
ATOM      4  O   UNL     1       8.595   6.409   7.205  0.00  0.00    -0.278 OA
ATOM      5  N   UNL     1       6.484   5.818   7.305  0.00  0.00    -0.318 N 
ATOM      6  C   UNL     1       5.388   4.907   6.983  0.00  0.00    +0.085 C 
ATOM      7  C   UNL     1       5.947   3.544   6.572  0.00  0.00    -0.059 C 
ATOM      8  N   UNL     1       6.969   3.747   5.535  0.00  0.00    +0.389 N 
ATOM      9  H   UNL     1       6.289   6.617   7.819  0.00  0.00    +0.149 HD
ATOM     10  H   UNL     1       6.604   4.350   4.813  0.00  0.00    -0.081 HD
BRANCH   8  11
ATOM     11  C   UNL     1       7.342   2.450   4.955  0.00  0.00    -0.074 C 
BRANCH  11  12
ATOM     12  C   UNL     1       6.417   2.133   3.778  0.00  0.00    -0.028 C 
ATOM     13  C   UNL     1       5.109   2.911   3.933  0.00  0.00    +0.002 C 
ATOM     14  C   UNL     1       4.184   2.594   2.757  0.00  0.00    +0.000 C 
ATOM     15  C   UNL     1       3.885   1.094   2.734  0.00  0.00    +0.000 C 
ATOM     16  C   UNL     1       5.192   0.315   2.578  0.00  0.00    +0.000 C 
ATOM     17  C   UNL     1       6.118   0.632   3.755  0.00  0.00    +0.002 C 
ENDBRANCH  11  12
ENDBRANCH   8  11
ENDBRANCH   1   2
BRANCH   1  19
ATOM     18  N   UNL     1       9.350   6.552   3.345  0.00  0.00    -0.313 N 
ATOM     19  C   UNL     1       8.605   5.967   4.303  0.00  0.00    +0.212 C 
ATOM     20  O   UNL     1       7.505   6.405   4.568  0.00  0.00    -0.276 OA
ATOM     21  H   UNL     1      10.230   6.201   3.133  0.00  0.00    +0.149 HD
BRANCH  18  22
ATOM     22  C   UNL     1       8.832   7.716   2.622  0.00  0.00    +0.132 C 
BRANCH  22  27
ATOM     23  C   UNL     1      12.685  11.770   2.195  0.00  0.00    +0.040 A 
ATOM     24  C   UNL     1      12.591  10.461   2.508  0.00  0.00    +0.029 A 
ATOM     25  C   UNL     1      11.468   9.698   2.083  0.00  0.00    +0.043 A 
ATOM     26  N   UNL     1      11.153   8.438   2.256  0.00  0.00    -0.376 N 
ATOM     27  C   UNL     1       9.868   8.181   1.596  0.00  0.00    +0.120 C 
ATOM     28  C   UNL     1       9.444   9.499   0.987  0.00  0.00    +0.009 C 
ATOM     29  C   UNL     1      10.419  10.385   1.294  0.00  0.00    -0.001 A 
ATOM     30  C   UNL     1      10.596  11.811   0.996  0.00  0.00    +0.048 A 
ATOM     31  C   UNL     1      11.705  12.444   1.449  0.00  0.00    +0.124 A 
ATOM     32  F   UNL     1      11.871  13.756   1.176  0.00  0.00    -0.205 F 
ATOM     33  H   UNL     1      11.682   7.784   2.739  0.00  0.00    +0.160 HD
ENDBRANCH  22  27
ENDBRANCH  18  22
ENDBRANCH   1  19
TORSDOF 6
