REMARK  Name = ZINC36819201
REMARK  12 active torsions:
REMARK  status: ('A' for Active; 'I' for Inactive)
REMARK    1  A    between atoms: C_1  and  C_2
REMARK    2  A    between atoms: C_5  and  C_34
REMARK    3  A    between atoms: C_10  and  C_12
REMARK    4  A    between atoms: C_12  and  C_14
REMARK    5  A    between atoms: C_12  and  S_15
REMARK    6  A    between atoms: S_15  and  C_16
REMARK    7  A    between atoms: C_19  and  C_28
REMARK    8  A    between atoms: N_20  and  C_21
REMARK    9  A    between atoms: C_28  and  C_30
REMARK   10  A    between atoms: C_28  and  N_31
REMARK   11  A    between atoms: N_31  and  C_32
REMARK   12  A    between atoms: N_31  and  C_33
REMARK                            x       y       z     vdW  Elec       q    Type
REMARK                         _______ _______ _______ _____ _____    ______ ____
ROOT
ATOM      1  C   UNL     1       1.486   3.014   5.287  0.00  0.00    +0.197 A 
ATOM      2  N   UNL     1       0.393   2.372   5.629  0.00  0.00    -0.122 NA
ATOM      3  N   UNL     1      -0.197   2.993   6.587  0.00  0.00    -0.135 NA
ATOM      4  C   UNL     1       0.477   4.060   6.913  0.00  0.00    +0.125 A 
ATOM      5  N   UNL     1       1.579   4.109   6.101  0.00  0.00    -0.275 N 
ENDROOT
BRANCH   5   6
ATOM      6  C   UNL     1       2.589   5.082   6.101  0.00  0.00    +0.050 A 
ATOM      7  C   UNL     1       3.423   5.218   7.202  0.00  0.00    +0.028 A 
ATOM      8  C   UNL     1       4.418   6.177   7.199  0.00  0.00    +0.022 A 
ATOM      9  C   UNL     1       4.582   7.002   6.101  0.00  0.00    +0.041 A 
ATOM     10  C   UNL     1       3.752   6.868   5.002  0.00  0.00    +0.022 A 
ATOM     11  C   UNL     1       2.760   5.907   4.997  0.00  0.00    +0.028 A 
ATOM     12 CL   UNL     1       5.832   8.206   6.101  0.00  0.00    -0.084 Cl
ENDBRANCH   5   6
BRANCH   4  13
ATOM     13  C   UNL     1       0.115   5.051   7.989  0.00  0.00    -0.003 C 
ATOM     14  C   UNL     1      -1.039   5.931   7.504  0.00  0.00    -0.005 C 
BRANCH  13  15
ATOM     15  N   UNL     1      -0.294   4.330   9.202  0.00  0.00    +0.382 N 
ATOM     16  C   UNL     1       0.815   3.486   9.667  0.00  0.00    -0.096 C 
ATOM     17  C   UNL     1      -0.647   5.297  10.250  0.00  0.00    -0.096 C 
ATOM     18  H   UNL     1      -1.094   3.751   8.995  0.00  0.00    -0.082 HD
ENDBRANCH  13  15
ENDBRANCH   4  13
BRANCH   1  19
ATOM     19  S   UNL     1       2.623   2.547   4.024  0.00  0.00    -0.073 S 
BRANCH  19  20
ATOM     20  C   UNL     1       1.919   1.022   3.341  0.00  0.00    +0.137 C 
ATOM     21  C   UNL     1       1.933  -0.071   4.411  0.00  0.00    +0.029 C 
BRANCH  20  29
ATOM     22  C   UNL     1       3.648  -2.712   0.948  0.00  0.00    +0.009 C 
ATOM     23  C   UNL     1       2.893  -2.045  -0.203  0.00  0.00    +0.004 C 
ATOM     24  C   UNL     1       1.439  -2.524  -0.205  0.00  0.00    +0.009 C 
ATOM     25  C   UNL     1       0.786  -2.183   1.137  0.00  0.00    +0.004 C 
ATOM     26  C   UNL     1       0.794  -0.664   1.333  0.00  0.00    +0.111 C 
ATOM     27  N   UNL     1       2.173  -0.176   1.192  0.00  0.00    -0.300 N 
ATOM     28  C   UNL     1       2.926  -0.524  -0.022  0.00  0.00    +0.111 C 
ATOM     29  C   UNL     1       2.738   0.577   2.157  0.00  0.00    +0.229 C 
ATOM     30  O   UNL     1       3.905   0.895   2.072  0.00  0.00    -0.274 OA
ATOM     31  C   UNL     1      -0.657  -2.692   1.146  0.00  0.00    +0.009 C 
ENDBRANCH  20  29
ENDBRANCH  19  20
ENDBRANCH   1  19
TORSDOF 6
