REMARK  Name = ZINC46690440
REMARK  8 active torsions:
REMARK  status: ('A' for Active; 'I' for Inactive)
REMARK    1  A    between atoms: C_1  and  C_2
REMARK    2  A    between atoms: C_2  and  C_32
REMARK    3  A    between atoms: N_5  and  C_9
REMARK    4  A    between atoms: C_9  and  C_10
REMARK    5  A    between atoms: C_10  and  C_11
REMARK    6  A    between atoms: C_11  and  S_12
REMARK    7  A    between atoms: S_12  and  C_13
REMARK    8  A    between atoms: N_23  and  C_24
REMARK                            x       y       z     vdW  Elec       q    Type
REMARK                         _______ _______ _______ _____ _____    ______ ____
ROOT
ATOM      1  C   UNL     1      -5.774  -6.528   1.268  0.00  0.00    +0.177 A 
ATOM      2  N   UNL     1      -6.554  -5.793   2.021  0.00  0.00    -0.223 NA
ATOM      3  C   UNL     1      -7.228  -6.321   3.070  0.00  0.00    +0.080 A 
ATOM      4  C   UNL     1      -8.060  -5.537   3.873  0.00  0.00    +0.048 A 
ATOM      5  C   UNL     1      -8.727  -6.118   4.930  0.00  0.00    +0.043 A 
ATOM      6  C   UNL     1      -8.580  -7.473   5.206  0.00  0.00    +0.021 A 
ATOM      7  C   UNL     1      -7.771  -8.259   4.434  0.00  0.00    +0.017 A 
ATOM      8  C   UNL     1      -7.086  -7.697   3.357  0.00  0.00    +0.065 A 
ATOM      9  C   UNL     1      -6.205  -8.498   2.497  0.00  0.00    +0.267 A 
ATOM     10  O   UNL     1      -6.043  -9.689   2.695  0.00  0.00    -0.267 OA
ATOM     11  N   UNL     1      -5.586  -7.867   1.474  0.00  0.00    -0.255 N 
ATOM     12 CL   UNL     1      -9.762  -5.147   5.930  0.00  0.00    -0.083 Cl
ENDROOT
BRANCH  11  13
ATOM     13  C   UNL     1      -4.740  -8.589   0.621  0.00  0.00    +0.052 A 
ATOM     14  C   UNL     1      -5.252  -9.188  -0.522  0.00  0.00    +0.028 A 
ATOM     15  C   UNL     1      -4.416  -9.899  -1.361  0.00  0.00    +0.022 A 
ATOM     16  C   UNL     1      -3.070 -10.015  -1.063  0.00  0.00    +0.041 A 
ATOM     17  C   UNL     1      -2.557  -9.419   0.076  0.00  0.00    +0.022 A 
ATOM     18  C   UNL     1      -3.388  -8.702   0.915  0.00  0.00    +0.028 A 
ATOM     19 CL   UNL     1      -2.022 -10.909  -2.119  0.00  0.00    -0.084 Cl
ENDBRANCH  11  13
BRANCH   1  20
ATOM     20  S   UNL     1      -4.935  -5.758  -0.077  0.00  0.00    -0.087 S 
BRANCH  20  21
ATOM     21  C   UNL     1      -5.457  -4.023   0.015  0.00  0.00    +0.079 C 
BRANCH  21  22
ATOM     22  C   UNL     1      -4.792  -3.230  -1.111  0.00  0.00    +0.031 C 
BRANCH  22  23
ATOM     23  C   UNL     1      -5.232  -1.767  -1.033  0.00  0.00    +0.119 C 
BRANCH  23  28
ATOM     24  C   UNL     1      -4.766   1.330  -4.534  0.00  0.00    +0.041 C 
ATOM     25  C   UNL     1      -4.134   0.004  -4.108  0.00  0.00    +0.107 C 
ATOM     26  C   UNL     1      -5.131  -0.839  -3.338  0.00  0.00    +0.246 C 
ATOM     27  O   UNL     1      -6.189  -1.272  -3.740  0.00  0.00    -0.273 OA
ATOM     28  N   UNL     1      -4.596  -1.007  -2.112  0.00  0.00    -0.224 N 
ATOM     29  C   UNL     1      -3.412  -0.394  -2.003  0.00  0.00    +0.309 C 
ATOM     30  O   UNL     1      -2.737  -0.404  -0.992  0.00  0.00    -0.252 OA
ATOM     31  N   UNL     1      -3.051   0.234  -3.136  0.00  0.00    -0.285 N 
ATOM     32  C   UNL     1      -3.610  -0.757  -5.328  0.00  0.00    +0.041 C 
ATOM     33  H   UNL     1      -2.237   0.741  -3.285  0.00  0.00    +0.151 HD
ENDBRANCH  23  28
ENDBRANCH  22  23
ENDBRANCH  21  22
ENDBRANCH  20  21
ENDBRANCH   1  20
TORSDOF 6
