REMARK  Name = ZINC36606166
REMARK  21 active torsions:
REMARK  status: ('A' for Active; 'I' for Inactive)
REMARK    1  A    between atoms: C_1  and  C_2
REMARK    2  A    between atoms: C_2  and  C_3
REMARK    3  A    between atoms: C_3  and  C_4
REMARK    4  A    between atoms: C_4  and  C_5
REMARK    5  A    between atoms: C_5  and  C_6
REMARK    6  A    between atoms: C_7  and  C_8
REMARK    7  A    between atoms: N_10  and  C_11
REMARK    8  A    between atoms: N_10  and  C_17
REMARK    9  A    between atoms: C_17  and  C_19
REMARK   10  A    between atoms: C_17  and  C_28
REMARK   11  A    between atoms: C_20  and  O_27
REMARK   12  A    between atoms: C_22  and  O_26
REMARK   13  A    between atoms: C_24  and  O_25
REMARK   14  A    between atoms: N_30  and  C_31
REMARK   15  A    between atoms: C_31  and  C_32
REMARK   16  A    between atoms: C_31  and  C_33
REMARK   17  A    between atoms: C_31  and  C_34
REMARK   18  A    between atoms: C_34  and  C_35
REMARK   19  A    between atoms: C_35  and  C_36
REMARK   20  A    between atoms: C_35  and  C_37
REMARK   21  A    between atoms: C_35  and  C_38
REMARK                            x       y       z     vdW  Elec       q    Type
REMARK                         _______ _______ _______ _____ _____    ______ ____
ROOT
ATOM      1  C   UNL     1      -5.872  -5.544   5.636  0.00  0.00    +0.204 C 
ENDROOT
BRANCH   1   2
ATOM      2  C   UNL     1      -7.337  -5.586   5.284  0.00  0.00    +0.065 A 
ATOM      3  C   UNL     1      -8.126  -6.639   5.723  0.00  0.00    +0.129 A 
ATOM      4  C   UNL     1      -9.473  -6.677   5.399  0.00  0.00    +0.091 A 
ATOM      5  C   UNL     1     -10.033  -5.662   4.637  0.00  0.00    +0.124 A 
ATOM      6  C   UNL     1      -9.244  -4.609   4.200  0.00  0.00    +0.091 A 
ATOM      7  C   UNL     1      -7.897  -4.569   4.527  0.00  0.00    +0.129 A 
BRANCH   7   8
ATOM      8  O   UNL     1      -7.125  -3.534   4.102  0.00  0.00    -0.506 OA
ATOM      9  H   UNL     1      -6.712  -3.679   3.240  0.00  0.00    +0.292 HD
ENDBRANCH   7   8
BRANCH   5  10
ATOM     10  O   UNL     1     -11.353  -5.700   4.319  0.00  0.00    -0.507 OA
ATOM     11  H   UNL     1     -11.926  -5.263   4.964  0.00  0.00    +0.292 HD
ENDBRANCH   5  10
BRANCH   3  12
ATOM     12  O   UNL     1      -7.578  -7.634   6.469  0.00  0.00    -0.506 OA
ATOM     13  H   UNL     1      -7.677  -7.510   7.423  0.00  0.00    +0.292 HD
ENDBRANCH   3  12
ENDBRANCH   1   2
BRANCH   1  14
ATOM     14  C   UNL     1      -5.718  -5.441   7.132  0.00  0.00    +0.239 C 
ATOM     15  O   UNL     1      -5.122  -6.304   7.741  0.00  0.00    -0.273 OA
ATOM     16  N   UNL     1      -6.241  -4.389   7.792  0.00  0.00    -0.308 N 
ATOM     17  H   UNL     1      -6.718  -3.699   7.305  0.00  0.00    +0.149 HD
BRANCH  16  18
ATOM     18  C   UNL     1      -6.091  -4.289   9.246  0.00  0.00    +0.030 C 
ATOM     19  C   UNL     1      -7.016  -5.300   9.926  0.00  0.00    +0.031 C 
ATOM     20  C   UNL     1      -4.640  -4.585   9.630  0.00  0.00    +0.031 C 
BRANCH  18  21
ATOM     21  C   UNL     1      -6.460  -2.875   9.700  0.00  0.00    +0.031 C 
BRANCH  21  22
ATOM     22  C   UNL     1      -5.821  -1.853   8.758  0.00  0.00    -0.036 C 
ATOM     23  C   UNL     1      -6.642  -1.764   7.470  0.00  0.00    +0.010 C 
ATOM     24  C   UNL     1      -5.787  -0.483   9.438  0.00  0.00    +0.010 C 
ATOM     25  C   UNL     1      -4.393  -2.291   8.423  0.00  0.00    +0.010 C 
ENDBRANCH  21  22
ENDBRANCH  18  21
ENDBRANCH  16  18
ENDBRANCH   1  14
BRANCH   1  28
ATOM     26  C   UNL     1      -3.899  -6.946   5.354  0.00  0.00    +0.244 C 
ATOM     27  O   UNL     1      -3.229  -6.053   5.839  0.00  0.00    -0.270 OA
ATOM     28  N   UNL     1      -5.221  -6.768   5.162  0.00  0.00    -0.252 N 
BRANCH  28  29
ATOM     29  C   UNL     1      -5.971  -7.751   4.509  0.00  0.00    +0.038 A 
ATOM     30  C   UNL     1      -6.087  -9.020   5.063  0.00  0.00    +0.023 A 
ATOM     31  C   UNL     1      -6.829  -9.989   4.415  0.00  0.00    +0.002 A 
ATOM     32  C   UNL     1      -7.455  -9.697   3.218  0.00  0.00    +0.000 A 
ATOM     33  C   UNL     1      -7.341  -8.435   2.663  0.00  0.00    +0.002 A 
ATOM     34  C   UNL     1      -6.606  -7.460   3.309  0.00  0.00    +0.023 A 
ENDBRANCH  28  29
BRANCH  26  36
ATOM     35  C   UNL     1      -1.987  -8.438   5.271  0.00  0.00    -0.022 C 
ATOM     36  C   UNL     1      -3.265  -8.218   4.977  0.00  0.00    +0.063 C 
BRANCH  35  37
ATOM     37  C   UNL     1      -1.283  -7.559   6.272  0.00  0.00    +0.027 C 
BRANCH  37  38
ATOM     38  C   UNL     1      -0.606  -8.433   7.331  0.00  0.00    +0.004 C 
BRANCH  38  39
ATOM     39  C   UNL     1       0.109  -7.541   8.348  0.00  0.00    +0.000 C 
BRANCH  39  41
ATOM     40  C   UNL     1       1.500  -7.524  10.423  0.00  0.00    +0.004 C 
ATOM     41  C   UNL     1       0.785  -8.415   9.406  0.00  0.00    -0.003 C 
ENDBRANCH  39  41
ENDBRANCH  38  39
ENDBRANCH  37  38
ENDBRANCH  35  37
ENDBRANCH  26  36
ENDBRANCH   1  28
TORSDOF 15
