REMARK  Name = ZINC65305994
REMARK  10 active torsions:
REMARK  status: ('A' for Active; 'I' for Inactive)
REMARK    1  A    between atoms: C_1  and  C_2
REMARK    2  A    between atoms: C_2  and  C_3
REMARK    3  A    between atoms: C_3  and  C_5
REMARK    4  A    between atoms: C_3  and  C_6
REMARK    5  A    between atoms: C_6  and  C_8
REMARK    6  A    between atoms: C_6  and  N_20
REMARK    7  A    between atoms: N_10  and  C_11
REMARK    8  A    between atoms: C_21  and  C_23
REMARK    9  A    between atoms: C_25  and  C_30
REMARK   10  A    between atoms: C_27  and  C_29
REMARK                            x       y       z     vdW  Elec       q    Type
REMARK                         _______ _______ _______ _____ _____    ______ ____
ROOT
ATOM      1  C   UNL     1       2.034   0.040  -1.232  0.00  0.00    +0.162 C 
ENDROOT
BRANCH   1   2
ATOM      2  C   UNL     1       2.021   1.527  -0.993  0.00  0.00    +0.236 C 
ATOM      3  O   UNL     1       2.554   2.274  -1.786  0.00  0.00    -0.274 OA
ATOM      4  N   UNL     1       1.417   2.028   0.103  0.00  0.00    -0.277 N 
ATOM      5  H   UNL     1       1.055   1.428   0.774  0.00  0.00    +0.152 HD
BRANCH   4   6
ATOM      6  C   UNL     1       1.307   3.478   0.281  0.00  0.00    +0.269 C 
ATOM      7  N   UNL     1       2.589   4.028   0.742  0.00  0.00    -0.348 N 
ATOM      8  C   UNL     1       2.382   4.581   1.902  0.00  0.00    +0.061 A 
ATOM      9  C   UNL     1       3.263   5.284   2.845  0.00  0.00    +0.027 A 
ATOM     10  C   UNL     1       2.756   5.761   3.999  0.00  0.00    +0.002 A 
ATOM     11  C   UNL     1       1.401   5.615   4.350  0.00  0.00    +0.002 A 
ATOM     12  C   UNL     1       0.509   4.987   3.558  0.00  0.00    +0.027 A 
ATOM     13  C   UNL     1       0.949   4.427   2.273  0.00  0.00    +0.061 A 
ATOM     14  N   UNL     1       0.325   3.785   1.328  0.00  0.00    -0.348 N 
ATOM     15  H   UNL     1       3.434   3.986   0.268  0.00  0.00    +0.163 HD
ATOM     16  H   UNL     1      -0.617   3.551   1.317  0.00  0.00    +0.163 HD
ENDBRANCH   4   6
ENDBRANCH   1   2
BRANCH   1  17
ATOM     17  N   UNL     1       3.128  -0.299  -2.145  0.00  0.00    -0.300 N 
ATOM     18  C   UNL     1       3.665  -1.535  -2.126  0.00  0.00    +0.245 C 
ATOM     19  O   UNL     1       3.240  -2.369  -1.351  0.00  0.00    -0.270 OA
ATOM     20  H   UNL     1       3.467   0.367  -2.764  0.00  0.00    +0.150 HD
BRANCH  18  21
ATOM     21  C   UNL     1       4.769  -1.876  -3.047  0.00  0.00    +0.037 A 
ATOM     22  C   UNL     1       5.263  -0.919  -3.934  0.00  0.00    +0.016 A 
ATOM     23  C   UNL     1       6.295  -1.244  -4.791  0.00  0.00    -0.049 A 
ATOM     24  C   UNL     1       6.839  -2.515  -4.772  0.00  0.00    +0.006 A 
ATOM     25  C   UNL     1       6.354  -3.470  -3.896  0.00  0.00    -0.049 A 
ATOM     26  C   UNL     1       5.327  -3.156  -3.029  0.00  0.00    +0.016 A 
ATOM     27  C   UNL     1       6.952  -4.853  -3.883  0.00  0.00    +0.044 C 
ATOM     28  C   UNL     1       6.830  -0.211  -5.750  0.00  0.00    +0.044 C 
ENDBRANCH  18  21
ENDBRANCH   1  17
BRANCH   1  29
ATOM     29  C   UNL     1       0.702  -0.388  -1.853  0.00  0.00    +0.015 C 
ATOM     30  C   UNL     1       0.570   0.223  -3.249  0.00  0.00    +0.010 C 
BRANCH  29  32
ATOM     31  C   UNL     1       0.615  -2.520  -0.552  0.00  0.00    +0.004 C 
ATOM     32  C   UNL     1       0.655  -1.914  -1.957  0.00  0.00    +0.002 C 
ENDBRANCH  29  32
ENDBRANCH   1  29
TORSDOF 6
