REMARK  Name = ZINC21968814
REMARK  10 active torsions:
REMARK  status: ('A' for Active; 'I' for Inactive)
REMARK    1  A    between atoms: C_3  and  S_6
REMARK    2  A    between atoms: S_6  and  N_9
REMARK    3  A    between atoms: N_9  and  C_10
REMARK    4  A    between atoms: C_10  and  C_11
REMARK    5  A    between atoms: C_11  and  C_12
REMARK    6  A    between atoms: C_12  and  O_14
REMARK    7  A    between atoms: O_14  and  C_15
REMARK    8  A    between atoms: C_15  and  C_16
REMARK    9  A    between atoms: N_18  and  C_19
REMARK   10  A    between atoms: C_22  and  N_26
REMARK                            x       y       z     vdW  Elec       q    Type
REMARK                         _______ _______ _______ _____ _____    ______ ____
ROOT
ATOM      1  O   UNL     1       2.396   1.050   0.007  0.00  0.00    -0.455 OA
ENDROOT
BRANCH   1   2
ATOM      2  C   UNL     1       3.630   1.579   0.009  0.00  0.00    +0.309 C 
ATOM      3  O   UNL     1       3.772   2.779   0.019  0.00  0.00    -0.251 OA
BRANCH   2   4
ATOM      4  C   UNL     1       4.837   0.677  -0.002  0.00  0.00    +0.137 C 
BRANCH   4   5
ATOM      5  C   UNL     1       6.109   1.527   0.002  0.00  0.00    +0.117 C 
BRANCH   5   6
ATOM      6  N   UNL     1       7.283   0.650  -0.009  0.00  0.00    -0.189 NA
ATOM      7  H   UNL     1       7.207  -0.374   0.385  0.00  0.00    +0.148 HD
BRANCH   6   8
ATOM      8  S   UNL     1       8.774   1.268  -0.379  0.00  0.00    +0.065 S 
ATOM      9  O   UNL     1       9.695   0.190  -0.279  0.00  0.00    -0.153 OA
ATOM     10  O   UNL     1       8.616   2.027  -1.569  0.00  0.00    -0.153 OA
BRANCH   8  13
ATOM     11  C   UNL     1      10.077   3.247   2.917  0.00  0.00    +0.010 A 
ATOM     12  C   UNL     1       9.851   2.186   2.060  0.00  0.00    +0.036 A 
ATOM     13  C   UNL     1       9.195   2.410   0.895  0.00  0.00    +0.142 A 
ATOM     14  S   UNL     1       8.863   4.161   0.990  0.00  0.00    -0.077 S 
ATOM     15  C   UNL     1       9.626   4.478   2.572  0.00  0.00    +0.047 A 
ENDBRANCH   8  13
ENDBRANCH   6   8
ENDBRANCH   5   6
ENDBRANCH   4   5
ENDBRANCH   2   4
ENDBRANCH   1   2
BRANCH   1  16
ATOM     16  C   UNL     1       1.280   1.979   0.018  0.00  0.00    +0.328 C 
BRANCH  16  17
ATOM     17  C   UNL     1      -0.015   1.208   0.015  0.00  0.00    +0.255 C 
ATOM     18  O   UNL     1       0.001  -0.004   0.004  0.00  0.00    -0.272 OA
ATOM     19  N   UNL     1      -1.191   1.867   0.018  0.00  0.00    -0.282 N 
ATOM     20  H   UNL     1      -1.207   2.963   0.102  0.00  0.00    +0.155 HD
BRANCH  19  21
ATOM     21  C   UNL     1      -2.391   1.155  -0.086  0.00  0.00    +0.048 A 
ATOM     22  C   UNL     1      -2.510  -0.099   0.499  0.00  0.00    +0.026 A 
ATOM     23  C   UNL     1      -3.696  -0.798   0.395  0.00  0.00    +0.034 A 
ATOM     24  C   UNL     1      -4.766  -0.252  -0.291  0.00  0.00    +0.127 A 
ATOM     25  C   UNL     1      -4.651   0.996  -0.875  0.00  0.00    +0.049 A 
ATOM     26  C   UNL     1      -3.469   1.704  -0.770  0.00  0.00    +0.041 A 
ATOM     27 BR   UNL     1      -3.316   3.414  -1.561  0.00  0.00    -0.048 Br
BRANCH  24  28
ATOM     28  N   UNL     1      -6.035  -1.005  -0.400  0.00  0.00    +0.056 N 
ATOM     29  O   UNL     1      -6.138  -2.104   0.115  0.00  0.00    -0.126 OA
ATOM     30  O   UNL     1      -6.978  -0.525  -1.003  0.00  0.00    -0.126 OA
ENDBRANCH  24  28
ENDBRANCH  19  21
ENDBRANCH  16  17
ENDBRANCH   1  16
TORSDOF 10
