REMARK  Name = ZINC12406255
REMARK  7 active torsions:
REMARK  status: ('A' for Active; 'I' for Inactive)
REMARK    1  A    between atoms: C_10  and  O_11
REMARK    2  A    between atoms: O_11  and  C_12
REMARK    3  A    between atoms: C_14  and  O_27
REMARK    4  A    between atoms: C_16  and  O_26
REMARK    5  A    between atoms: C_18  and  O_25
REMARK    6  A    between atoms: C_20  and  C_23
REMARK    7  A    between atoms: C_23  and  O_24
REMARK                            x       y       z     vdW  Elec       q    Type
REMARK                         _______ _______ _______ _____ _____    ______ ____
ROOT
ATOM      1  C   UNL     1       1.248   2.020   0.001  0.00  0.00    +0.339 C 
ATOM      2  C   UNL     1       1.028   3.531  -0.114  0.00  0.00    +0.214 C 
ATOM      3  C   UNL     1       0.253   4.021   1.113  0.00  0.00    +0.180 C 
ATOM      4  C   UNL     1       1.028   3.640   2.378  0.00  0.00    +0.177 C 
ATOM      5  C   UNL     1       1.248   2.125   2.397  0.00  0.00    +0.179 C 
ATOM      6  O   UNL     1       1.946   1.732   1.214  0.00  0.00    -0.331 OA
ENDROOT
BRANCH   4   7
ATOM      7  O   UNL     1       2.292   4.306   2.382  0.00  0.00    -0.386 OA
ATOM      8  H   UNL     1       2.229   5.271   2.371  0.00  0.00    +0.210 HD
ENDBRANCH   4   7
BRANCH   3   9
ATOM      9  O   UNL     1      -1.037   3.407   1.140  0.00  0.00    -0.386 OA
ATOM     10  H   UNL     1      -1.583   3.605   0.367  0.00  0.00    +0.210 HD
ENDBRANCH   3   9
BRANCH   2  11
ATOM     11  O   UNL     1       0.280   3.816  -1.297  0.00  0.00    -0.383 OA
ATOM     12  H   UNL     1       0.710   3.527  -2.114  0.00  0.00    +0.210 HD
ENDBRANCH   2  11
BRANCH   1  13
ATOM     13  O   UNL     1      -0.016   1.354   0.009  0.00  0.00    -0.460 OA
BRANCH  13  23
ATOM     14  C   UNL     1      -3.555  -2.205   0.041  0.00  0.00    +0.001 A 
ATOM     15  C   UNL     1      -3.595  -0.812   0.049  0.00  0.00    +0.001 A 
ATOM     16  C   UNL     1      -2.449  -0.077   0.037  0.00  0.00    +0.012 A 
ATOM     17  C   UNL     1      -1.206  -0.730   0.015  0.00  0.00    +0.024 A 
ATOM     18  C   UNL     1      -1.164  -2.147   0.001  0.00  0.00    -0.014 A 
ATOM     19  C   UNL     1      -2.369  -2.871   0.009  0.00  0.00    +0.008 A 
ATOM     20  C   UNL     1       0.080  -2.800  -0.014  0.00  0.00    +0.009 A 
ATOM     21  C   UNL     1       1.228  -2.067  -0.020  0.00  0.00    +0.004 A 
ATOM     22  C   UNL     1       1.192  -0.676  -0.013  0.00  0.00    +0.046 A 
ATOM     23  C   UNL     1       0.002  -0.004   0.002  0.00  0.00    +0.132 A 
ENDBRANCH  13  23
ENDBRANCH   1  13
BRANCH   5  24
ATOM     24  C   UNL     1       2.073   1.744   3.628  0.00  0.00    +0.190 C 
BRANCH  24  25
ATOM     25  O   UNL     1       2.180   0.322   3.707  0.00  0.00    -0.392 OA
ATOM     26  H   UNL     1       2.692   0.008   4.465  0.00  0.00    +0.210 HD
ENDBRANCH  24  25
ENDBRANCH   5  24
TORSDOF 7
