REMARK  Name = ZINC40824456
REMARK  8 active torsions:
REMARK  status: ('A' for Active; 'I' for Inactive)
REMARK    1  A    between atoms: C_1  and  C_2
REMARK    2  A    between atoms: C_6  and  N_9
REMARK    3  A    between atoms: C_7  and  C_8
REMARK    4  A    between atoms: C_10  and  C_12
REMARK    5  A    between atoms: C_13  and  C_26
REMARK    6  A    between atoms: N_21  and  N_22
REMARK    7  A    between atoms: N_22  and  C_23
REMARK    8  A    between atoms: C_23  and  N_25
REMARK                            x       y       z     vdW  Elec       q    Type
REMARK                         _______ _______ _______ _____ _____    ______ ____
ROOT
ATOM      1  C   UNL     1      -0.127  -4.878   3.650  0.00  0.00    +0.193 A 
ATOM      2  C   UNL     1      -0.212  -6.237   3.779  0.00  0.00    +0.009 A 
ATOM      3  C   UNL     1      -0.282  -6.495   5.154  0.00  0.00    +0.042 A 
ATOM      4  C   UNL     1      -0.240  -5.285   5.804  0.00  0.00    +0.115 A 
ATOM      5  O   UNL     1      -0.140  -4.327   4.885  0.00  0.00    -0.454 OA
ATOM      6  C   UNL     1      -0.299  -5.158   7.305  0.00  0.00    +0.075 C 
ATOM      7  C   UNL     1      -0.911  -6.429   7.899  0.00  0.00    +0.014 C 
ATOM      8  C   UNL     1      -0.171  -7.672   7.394  0.00  0.00    +0.058 C 
ATOM      9  C   UNL     1      -0.384  -7.775   5.891  0.00  0.00    +0.070 C 
ATOM     10  N   UNL     1      -0.635  -8.901   5.299  0.00  0.00    -0.185 NA
ATOM     11  C   UNL     1      -0.226  -7.252   2.666  0.00  0.00    +0.048 C 
ENDROOT
BRANCH   1  13
ATOM     12  N   UNL     1       0.051  -2.797   2.392  0.00  0.00    -0.279 N 
ATOM     13  C   UNL     1      -0.033  -4.142   2.384  0.00  0.00    +0.284 C 
ATOM     14  O   UNL     1      -0.030  -4.746   1.328  0.00  0.00    -0.266 OA
ATOM     15  H   UNL     1       0.130  -2.321   3.233  0.00  0.00    +0.155 HD
BRANCH  12  21
ATOM     16  C   UNL     1       1.207   1.235  -0.172  0.00  0.00    +0.044 C 
ATOM     17  C   UNL     1       0.578  -0.132  -0.085  0.00  0.00    -0.046 A 
ATOM     18  C   UNL     1      -0.027  -0.686  -1.198  0.00  0.00    +0.004 A 
ATOM     19  C   UNL     1      -0.606  -1.940  -1.122  0.00  0.00    +0.002 A 
ATOM     20  C   UNL     1      -0.582  -2.642   0.067  0.00  0.00    +0.023 A 
ATOM     21  C   UNL     1       0.025  -2.088   1.187  0.00  0.00    +0.037 A 
ATOM     22  C   UNL     1       0.610  -0.831   1.105  0.00  0.00    -0.026 A 
ATOM     23  C   UNL     1       1.275  -0.229   2.317  0.00  0.00    +0.046 C 
ENDBRANCH  12  21
ENDBRANCH   1  13
BRANCH  10  24
ATOM     24  N   UNL     1      -0.720 -10.082   6.047  0.00  0.00    -0.218 N 
ATOM     25  H   UNL     1      -0.590 -10.058   7.008  0.00  0.00    +0.176 HD
BRANCH  24  26
ATOM     26  C   UNL     1      -0.980 -11.253   5.432  0.00  0.00    +0.147 C 
ATOM     27  S   UNL     1      -1.084 -12.696   6.346  0.00  0.00    -0.017 S 
BRANCH  26  28
ATOM     28  N   UNL     1      -1.160 -11.287   4.096  0.00  0.00    -0.339 N 
ATOM     29  H   UNL     1      -1.101 -10.469   3.578  0.00  0.00    +0.144 HD
ATOM     30  H   UNL     1      -1.348 -12.129   3.654  0.00  0.00    +0.144 HD
ENDBRANCH  26  28
ENDBRANCH  24  26
ENDBRANCH  10  24
TORSDOF 5
