REMARK  Name = ZINC67423674
REMARK  6 active torsions:
REMARK  status: ('A' for Active; 'I' for Inactive)
REMARK    1  A    between atoms: C_1  and  C_2
REMARK    2  A    between atoms: N_4  and  C_5
REMARK    3  A    between atoms: C_5  and  C_6
REMARK    4  A    between atoms: N_15  and  C_16
REMARK    5  A    between atoms: C_16  and  C_17
REMARK    6  A    between atoms: C_17  and  C_24
REMARK                            x       y       z     vdW  Elec       q    Type
REMARK                         _______ _______ _______ _____ _____    ______ ____
ROOT
ATOM      1  C   UNL     1      -2.393  -2.981  -3.121  0.00  0.00    +0.024 C 
ATOM      2  C   UNL     1      -2.527  -4.322  -3.848  0.00  0.00    +0.008 C 
ATOM      3  C   UNL     1      -3.880  -4.952  -3.513  0.00  0.00    +0.019 C 
ATOM      4  C   UNL     1      -5.003  -4.028  -3.994  0.00  0.00    +0.109 C 
ATOM      5  N   UNL     1      -4.799  -2.694  -3.413  0.00  0.00    -0.285 N 
ATOM      6  C   UNL     1      -3.499  -2.034  -3.597  0.00  0.00    +0.114 C 
ATOM      7  C   UNL     1      -5.785  -2.087  -2.723  0.00  0.00    +0.302 C 
ATOM      8  O   UNL     1      -5.575  -1.026  -2.168  0.00  0.00    -0.253 OA
ATOM      9  N   UNL     1      -7.005  -2.657  -2.649  0.00  0.00    -0.298 N 
ATOM     10  H   UNL     1      -7.153  -3.536  -3.030  0.00  0.00    +0.150 HD
ENDROOT
BRANCH   1  11
ATOM     11  C   UNL     1      -1.027  -2.366  -3.430  0.00  0.00    +0.109 C 
BRANCH  11  15
ATOM     12  C   UNL     1       0.464   0.831  -1.944  0.00  0.00    +0.109 C 
ATOM     13  C   UNL     1       0.285  -0.428  -2.753  0.00  0.00    +0.210 C 
ATOM     14  O   UNL     1       1.163  -0.797  -3.503  0.00  0.00    -0.276 OA
ATOM     15  N   UNL     1      -0.852  -1.143  -2.643  0.00  0.00    -0.315 N 
ATOM     16  H   UNL     1      -1.555  -0.848  -2.043  0.00  0.00    +0.149 HD
ENDBRANCH  11  15
ENDBRANCH   1  11
BRANCH   9  17
ATOM     17  C   UNL     1      -8.106  -1.947  -1.993  0.00  0.00    +0.117 C 
BRANCH  17  18
ATOM     18  C   UNL     1      -9.336  -2.854  -1.939  0.00  0.00    +0.011 C 
ATOM     19  C   UNL     1     -10.582  -2.028  -2.116  0.00  0.00    +0.013 C 
ATOM     20  C   UNL     1     -10.384  -0.564  -1.679  0.00  0.00    +0.001 C 
ATOM     21  C   UNL     1      -9.576  -0.433  -0.374  0.00  0.00    +0.000 C 
ATOM     22  C   UNL     1      -9.972  -1.458   0.654  0.00  0.00    +0.000 C 
ATOM     23  C   UNL     1      -9.028  -2.670   0.527  0.00  0.00    +0.001 C 
ATOM     24  C   UNL     1      -9.404  -3.555  -0.566  0.00  0.00    +0.013 C 
BRANCH  18  25
ATOM     25  C   UNL     1      -9.251  -3.889  -3.031  0.00  0.00    -0.040 A 
ATOM     26  C   UNL     1      -9.367  -5.231  -2.723  0.00  0.00    +0.004 A 
ATOM     27  C   UNL     1      -9.289  -6.180  -3.725  0.00  0.00    +0.000 A 
ATOM     28  C   UNL     1      -9.095  -5.787  -5.036  0.00  0.00    +0.000 A 
ATOM     29  C   UNL     1      -8.980  -4.444  -5.345  0.00  0.00    +0.000 A 
ATOM     30  C   UNL     1      -9.063  -3.495  -4.343  0.00  0.00    +0.004 A 
ENDBRANCH  18  25
ENDBRANCH  17  18
ENDBRANCH   9  17
TORSDOF 5
