REMARK  Name = ZINC35172537
REMARK  6 active torsions:
REMARK  status: ('A' for Active; 'I' for Inactive)
REMARK    1  A    between atoms: C_4  and  C_7
REMARK    2  A    between atoms: C_7  and  N_8
REMARK    3  A    between atoms: C_9  and  C_11
REMARK    4  A    between atoms: C_11  and  N_12
REMARK    5  A    between atoms: C_21  and  C_23
REMARK    6  A    between atoms: C_27  and  N_29
REMARK                            x       y       z     vdW  Elec       q    Type
REMARK                         _______ _______ _______ _____ _____    ______ ____
ROOT
ATOM      1  N   UNL     1       7.049  -2.724   2.947  0.00  0.00    +0.394 N 
ATOM      2  C   UNL     1       8.001  -1.921   2.175  0.00  0.00    -0.075 C 
ATOM      3  C   UNL     1       9.377  -2.575   2.152  0.00  0.00    +0.003 C 
ATOM      4  C   UNL     1       9.226  -4.098   2.150  0.00  0.00    +0.119 C 
ATOM      5  N   UNL     1       9.158  -4.573   3.537  0.00  0.00    -0.352 N 
ATOM      6  C   UNL     1       9.841  -5.626   4.065  0.00  0.00    +0.086 A 
ATOM      7  C   UNL     1       9.490  -5.747   5.362  0.00  0.00    +0.019 A 
ATOM      8  C   UNL     1       8.560  -4.727   5.645  0.00  0.00    +0.021 A 
ATOM      9  C   UNL     1       8.380  -4.019   4.513  0.00  0.00    +0.009 A 
ATOM     10  C   UNL     1       7.486  -2.815   4.347  0.00  0.00    +0.011 C 
ATOM     11  H   UNL     1       6.998  -3.651   2.552  0.00  0.00    -0.080 HD
ENDROOT
BRANCH  10  12
ATOM     12  C   UNL     1       6.281  -2.955   5.242  0.00  0.00    -0.053 A 
ATOM     13  C   UNL     1       5.415  -4.019   5.072  0.00  0.00    +0.002 A 
ATOM     14  C   UNL     1       4.310  -4.148   5.893  0.00  0.00    +0.002 A 
ATOM     15  C   UNL     1       4.072  -3.213   6.883  0.00  0.00    +0.033 A 
ATOM     16  C   UNL     1       4.938  -2.150   7.053  0.00  0.00    +0.126 A 
ATOM     17  C   UNL     1       6.046  -2.024   6.235  0.00  0.00    +0.035 A 
BRANCH  16  18
ATOM     18  N   UNL     1       4.683  -1.149   8.113  0.00  0.00    +0.056 N 
ATOM     19  O   UNL     1       3.716  -1.262   8.830  0.00  0.00    -0.126 OA
ATOM     20  O   UNL     1       5.441  -0.219   8.262  0.00  0.00    -0.126 OA
ENDBRANCH  16  18
ENDBRANCH  10  12
BRANCH   1  21
ATOM     21  C   UNL     1       5.723  -2.096   2.890  0.00  0.00    +0.020 C 
BRANCH  21  23
ATOM     22  N   UNL     1       3.995  -1.626   1.183  0.00  0.00    -0.313 N 
ATOM     23  C   UNL     1       5.203  -2.147   1.476  0.00  0.00    +0.197 C 
ATOM     24  O   UNL     1       5.872  -2.656   0.602  0.00  0.00    -0.278 OA
ATOM     25  H   UNL     1       3.460  -1.218   1.882  0.00  0.00    +0.149 HD
BRANCH  22  26
ATOM     26  C   UNL     1       3.490  -1.675  -0.191  0.00  0.00    +0.139 C 
BRANCH  26  30
ATOM     27  C   UNL     1      -0.367   0.151  -0.360  0.00  0.00    +0.000 A 
ATOM     28  C   UNL     1       0.768   0.915  -0.557  0.00  0.00    +0.000 A 
ATOM     29  C   UNL     1       2.016   0.324  -0.502  0.00  0.00    +0.005 A 
ATOM     30  C   UNL     1       2.129  -1.030  -0.250  0.00  0.00    -0.030 A 
ATOM     31  C   UNL     1       0.994  -1.794  -0.051  0.00  0.00    +0.005 A 
ATOM     32  C   UNL     1      -0.254  -1.203  -0.108  0.00  0.00    +0.000 A 
ENDBRANCH  26  30
ENDBRANCH  22  26
ENDBRANCH  21  23
ENDBRANCH   1  21
TORSDOF 6
