REMARK  Name = ZINC10002362
REMARK  12 active torsions:
REMARK  status: ('A' for Active; 'I' for Inactive)
REMARK    1  A    between atoms: C_1  and  C_2
REMARK    2  A    between atoms: C_2  and  O_3
REMARK    3  A    between atoms: O_3  and  C_4
REMARK    4  A    between atoms: C_6  and  C_12
REMARK    5  A    between atoms: C_9  and  O_10
REMARK    6  A    between atoms: N_13  and  N_14
REMARK    7  A    between atoms: C_15  and  C_17
REMARK    8  A    between atoms: C_17  and  C_19
REMARK    9  A    between atoms: C_17  and  N_22
REMARK   10  A    between atoms: C_19  and  C_20
REMARK   11  A    between atoms: C_19  and  C_21
REMARK   12  A    between atoms: C_23  and  C_25
REMARK                            x       y       z     vdW  Elec       q    Type
REMARK                         _______ _______ _______ _____ _____    ______ ____
ROOT
ATOM      1  N   UNL     1      -1.180   2.618   0.324  0.00  0.00    -0.205 N 
ATOM      2  C   UNL     1      -0.233   1.665   0.214  0.00  0.00    +0.253 C 
ATOM      3  O   UNL     1      -0.552   0.495   0.179  0.00  0.00    -0.272 OA
ATOM      4  H   UNL     1      -0.932   3.554   0.278  0.00  0.00    +0.177 HD
ENDROOT
BRANCH   1   6
ATOM      5  C   UNL     1      -3.433   3.173   0.611  0.00  0.00    +0.138 C 
ATOM      6  N   UNL     1      -2.521   2.255   0.505  0.00  0.00    -0.188 NA
BRANCH   5   9
ATOM      7  C   UNL     1      -7.149   3.416   1.095  0.00  0.00    +0.163 A 
ATOM      8  C   UNL     1      -5.826   3.778   0.922  0.00  0.00    +0.059 A 
ATOM      9  C   UNL     1      -4.844   2.792   0.802  0.00  0.00    -0.001 A 
ATOM     10  C   UNL     1      -5.202   1.443   0.868  0.00  0.00    +0.028 A 
ATOM     11  C   UNL     1      -6.523   1.088   1.047  0.00  0.00    +0.063 A 
ATOM     12  C   UNL     1      -7.499   2.069   1.161  0.00  0.00    +0.173 A 
ATOM     13 BR   UNL     1      -7.006  -0.738   1.136  0.00  0.00    -0.046 Br
BRANCH  12  14
ATOM     14  O   UNL     1      -8.800   1.715   1.336  0.00  0.00    -0.503 OA
ATOM     15  H   UNL     1      -9.061   1.625   2.263  0.00  0.00    +0.292 HD
ENDBRANCH  12  14
BRANCH   7  16
ATOM     16  O   UNL     1      -8.107   4.374   1.207  0.00  0.00    -0.489 OA
BRANCH  16  18
ATOM     17  C   UNL     1      -8.886   6.661   1.276  0.00  0.00    +0.048 C 
ATOM     18  C   UNL     1      -7.677   5.734   1.130  0.00  0.00    +0.226 C 
ENDBRANCH  16  18
ENDBRANCH   7  16
ENDBRANCH   5   9
ENDBRANCH   1   6
BRANCH   2  19
ATOM     19  C   UNL     1       1.220   2.053   0.127  0.00  0.00    +0.163 C 
BRANCH  19  20
ATOM     20  N   UNL     1       2.055   0.892   0.445  0.00  0.00    -0.300 N 
ATOM     21  C   UNL     1       3.303   1.070   0.922  0.00  0.00    +0.245 C 
ATOM     22  O   UNL     1       3.736   2.195   1.089  0.00  0.00    -0.270 OA
ATOM     23  H   UNL     1       1.710  -0.005   0.313  0.00  0.00    +0.150 HD
BRANCH  21  24
ATOM     24  C   UNL     1       4.145  -0.099   1.243  0.00  0.00    +0.040 A 
ATOM     25  C   UNL     1       3.648  -1.391   1.058  0.00  0.00    +0.017 A 
ATOM     26  C   UNL     1       4.437  -2.482   1.353  0.00  0.00    +0.050 A 
ATOM     27  C   UNL     1       5.722  -2.301   1.845  0.00  0.00    +0.166 A 
ATOM     28  C   UNL     1       6.223  -1.013   2.037  0.00  0.00    +0.167 A 
ATOM     29  C   UNL     1       5.439   0.084   1.738  0.00  0.00    +0.062 A 
ATOM     30  O   UNL     1       7.495  -1.109   2.525  0.00  0.00    -0.453 OA
ATOM     31  C   UNL     1       7.618  -2.457   3.014  0.00  0.00    +0.466 C 
ATOM     32  O   UNL     1       6.681  -3.200   2.212  0.00  0.00    -0.453 OA
ENDBRANCH  21  24
ENDBRANCH  19  20
BRANCH  19  33
ATOM     33  C   UNL     1       1.536   2.535  -1.290  0.00  0.00    +0.012 C 
ATOM     34  C   UNL     1       2.978   3.043  -1.347  0.00  0.00    +0.009 C 
ATOM     35  C   UNL     1       1.365   1.375  -2.273  0.00  0.00    +0.009 C 
ENDBRANCH  19  33
ENDBRANCH   2  19
TORSDOF 9
