REMARK  Name = ZINC63491443
REMARK  5 active torsions:
REMARK  status: ('A' for Active; 'I' for Inactive)
REMARK    1  A    between atoms: C_1  and  C_2
REMARK    2  A    between atoms: C_7  and  O_28
REMARK    3  A    between atoms: C_13  and  C_15
REMARK    4  A    between atoms: C_15  and  C_16
REMARK    5  A    between atoms: N_18  and  C_19
REMARK                            x       y       z     vdW  Elec       q    Type
REMARK                         _______ _______ _______ _____ _____    ______ ____
ROOT
ATOM      1  C   UNL     1       0.290   0.270   2.476  0.00  0.00    +0.111 C 
ENDROOT
BRANCH   1  13
ATOM      2  C   UNL     1      -0.019   1.526   0.010  0.00  0.00    +0.013 C 
ATOM      3  C   UNL     1       0.002  -0.004   0.002  0.00  0.00    +0.034 C 
ATOM      4  C   UNL     1      -1.413  -0.524   0.009  0.00  0.00    +0.000 A 
ATOM      5  C   UNL     1      -2.362   0.134  -0.759  0.00  0.00    +0.031 A 
ATOM      6  C   UNL     1      -3.668  -0.311  -0.790  0.00  0.00    +0.083 A 
ATOM      7  C   UNL     1      -4.039  -1.425  -0.048  0.00  0.00    +0.139 A 
ATOM      8  C   UNL     1      -3.095  -2.083   0.722  0.00  0.00    +0.093 A 
ATOM      9  C   UNL     1      -1.781  -1.631   0.754  0.00  0.00    +0.139 A 
ATOM     10  O   UNL     1      -0.889  -2.295   1.540  0.00  0.00    -0.425 OA
ATOM     11  C   UNL     1       0.414  -1.979   1.408  0.00  0.00    +0.316 C 
ATOM     12  O   UNL     1       1.276  -2.826   1.423  0.00  0.00    -0.250 OA
ATOM     13  C   UNL     1       0.747  -0.510   1.241  0.00  0.00    +0.114 C 
ATOM     14 CL   UNL     1      -4.847   0.523  -1.754  0.00  0.00    -0.080 Cl
BRANCH   7  15
ATOM     15  O   UNL     1      -5.324  -1.867  -0.078  0.00  0.00    -0.505 OA
ATOM     16  H   UNL     1      -5.500  -2.517  -0.773  0.00  0.00    +0.292 HD
ENDBRANCH   7  15
ENDBRANCH   1  13
BRANCH   1  17
ATOM     17  C   UNL     1       1.113  -0.147   3.667  0.00  0.00    +0.217 C 
ATOM     18  O   UNL     1       1.980  -0.986   3.541  0.00  0.00    -0.276 OA
ATOM     19  N   UNL     1       0.886   0.412   4.872  0.00  0.00    -0.278 N 
ATOM     20  H   UNL     1       0.193   1.083   4.973  0.00  0.00    +0.152 HD
BRANCH  19  21
ATOM     21  C   UNL     1       1.686   0.006   6.030  0.00  0.00    +0.269 C 
ATOM     22  N   UNL     1       1.210  -1.285   6.544  0.00  0.00    -0.348 N 
ATOM     23  C   UNL     1       0.819  -1.096   7.771  0.00  0.00    +0.061 A 
ATOM     24  C   UNL     1       0.254  -1.993   8.789  0.00  0.00    +0.027 A 
ATOM     25  C   UNL     1      -0.065  -1.503  10.004  0.00  0.00    +0.002 A 
ATOM     26  C   UNL     1       0.120  -0.152  10.349  0.00  0.00    +0.002 A 
ATOM     27  C   UNL     1       0.630   0.754   9.491  0.00  0.00    +0.027 A 
ATOM     28  C   UNL     1       1.015   0.334   8.137  0.00  0.00    +0.061 A 
ATOM     29  N   UNL     1       1.520   0.973   7.122  0.00  0.00    -0.348 N 
ATOM     30  H   UNL     1       1.191  -2.124   6.059  0.00  0.00    +0.163 HD
ATOM     31  H   UNL     1       1.745   1.916   7.093  0.00  0.00    +0.163 HD
ENDBRANCH  19  21
ENDBRANCH   1  17
TORSDOF 4
