REMARK  Name = ZINC00847700
REMARK  13 active torsions:
REMARK  status: ('A' for Active; 'I' for Inactive)
REMARK    1  A    between atoms: C_1  and  C_2
REMARK    2  A    between atoms: C_3  and  C_32
REMARK    3  A    between atoms: C_4  and  C_23
REMARK    4  A    between atoms: C_10  and  C_15
REMARK    5  A    between atoms: C_18  and  O_21
REMARK    6  A    between atoms: O_21  and  C_22
REMARK    7  A    between atoms: C_26  and  O_31
REMARK    8  A    between atoms: C_27  and  O_29
REMARK    9  A    between atoms: O_29  and  C_30
REMARK   10  A    between atoms: C_32  and  O_34
REMARK   11  A    between atoms: O_34  and  C_35
REMARK   12  A    between atoms: C_35  and  C_36
REMARK   13  A    between atoms: C_35  and  C_37
REMARK                            x       y       z     vdW  Elec       q    Type
REMARK                         _______ _______ _______ _____ _____    ______ ____
ROOT
ATOM      1  C   UNL     1      -0.027   1.035   0.023  0.00  0.00    +0.061 C 
ATOM      2  C   UNL     1      -0.727   1.545   1.256  0.00  0.00    +0.031 C 
ATOM      3  C   UNL     1      -0.041   1.683   2.404  0.00  0.00    +0.154 C 
ATOM      4  C   UNL     1      -0.704   2.181   3.652  0.00  0.00    +0.073 C 
ATOM      5  C   UNL     1      -2.013   2.861   3.339  0.00  0.00    +0.025 C 
ATOM      6  C   UNL     1      -2.620   2.674   2.146  0.00  0.00    +0.049 C 
ATOM      7  N   UNL     1      -2.055   1.863   1.201  0.00  0.00    -0.260 NA
ATOM      8  C   UNL     1      -3.937   3.336   1.833  0.00  0.00    +0.064 C 
ATOM      9  C   UNL     1      -4.025   4.675   2.567  0.00  0.00    +0.032 C 
ATOM     10  C   UNL     1      -3.876   4.418   4.070  0.00  0.00    +0.088 C 
ATOM     11  C   UNL     1      -2.579   3.696   4.317  0.00  0.00    +0.162 C 
ATOM     12  O   UNL     1      -2.010   3.839   5.381  0.00  0.00    -0.292 OA
ENDROOT
BRANCH   9  13
ATOM     13  C   UNL     1      -5.360   5.317   2.293  0.00  0.00    -0.043 A 
ATOM     14  C   UNL     1      -6.526   4.654   2.629  0.00  0.00    +0.007 A 
ATOM     15  C   UNL     1      -7.752   5.242   2.384  0.00  0.00    +0.046 A 
ATOM     16  C   UNL     1      -7.812   6.495   1.790  0.00  0.00    +0.120 A 
ATOM     17  C   UNL     1      -6.641   7.155   1.449  0.00  0.00    +0.046 A 
ATOM     18  C   UNL     1      -5.418   6.565   1.701  0.00  0.00    +0.007 A 
BRANCH  16  19
ATOM     19  O   UNL     1      -9.017   7.073   1.542  0.00  0.00    -0.495 OA
ATOM     20  C   UNL     1     -10.181   6.335   1.919  0.00  0.00    +0.277 C 
ENDBRANCH  16  19
ENDBRANCH   9  13
BRANCH   4  21
ATOM     21  C   UNL     1      -0.961   1.006   4.561  0.00  0.00    -0.035 A 
ATOM     22  C   UNL     1      -1.765  -0.034   4.133  0.00  0.00    +0.008 A 
ATOM     23  C   UNL     1      -2.000  -1.116   4.961  0.00  0.00    +0.049 A 
ATOM     24  C   UNL     1      -1.438  -1.154   6.227  0.00  0.00    +0.158 A 
ATOM     25  C   UNL     1      -0.633  -0.104   6.660  0.00  0.00    +0.162 A 
ATOM     26  C   UNL     1      -0.398   0.974   5.823  0.00  0.00    +0.053 A 
BRANCH  25  27
ATOM     27  O   UNL     1      -0.080  -0.137   7.902  0.00  0.00    -0.491 OA
ATOM     28  C   UNL     1       0.734   0.975   8.279  0.00  0.00    +0.277 C 
ENDBRANCH  25  27
BRANCH  24  29
ATOM     29  O   UNL     1      -1.673  -2.215   7.045  0.00  0.00    -0.503 OA
ATOM     30  H   UNL     1      -2.451  -2.112   7.609  0.00  0.00    +0.292 HD
ENDBRANCH  24  29
ENDBRANCH   4  21
BRANCH   3  31
ATOM     31  C   UNL     1       1.336   1.360   2.433  0.00  0.00    +0.317 C 
ATOM     32  O   UNL     1       1.913   1.061   1.404  0.00  0.00    -0.250 OA
BRANCH  31  33
ATOM     33  O   UNL     1       2.010   1.383   3.602  0.00  0.00    -0.461 OA
BRANCH  33  34
ATOM     34  C   UNL     1       3.398   1.045   3.557  0.00  0.00    +0.170 C 
ATOM     35  C   UNL     1       4.141   1.792   4.666  0.00  0.00    +0.052 C 
ATOM     36  C   UNL     1       3.563  -0.463   3.758  0.00  0.00    +0.052 C 
ENDBRANCH  33  34
ENDBRANCH  31  33
ENDBRANCH   3  31
TORSDOF 8
