REMARK  Name = ZINC01729533
REMARK  12 active torsions:
REMARK  status: ('A' for Active; 'I' for Inactive)
REMARK    1  A    between atoms: C_1  and  C_2
REMARK    2  A    between atoms: C_2  and  N_65
REMARK    3  A    between atoms: C_3  and  C_4
REMARK    4  A    between atoms: C_3  and  N_65
REMARK    5  A    between atoms: C_5  and  C_6
REMARK    6  A    between atoms: C_5  and  N_65
REMARK    7  A    between atoms: C_8  and  C_19
REMARK    8  A    between atoms: C_10  and  C_13
REMARK    9  A    between atoms: C_11  and  O_12
REMARK   10  A    between atoms: C_22  and  C_29
REMARK   11  A    between atoms: C_25  and  C_27
REMARK   12  A    between atoms: C_25  and  C_28
REMARK                            x       y       z     vdW  Elec       q    Type
REMARK                         _______ _______ _______ _____ _____    ______ ____
ROOT
ATOM      1  C   UNL     1      -1.981   3.458  -2.567  0.00  0.00    -0.022 A 
ATOM      2  C   UNL     1      -1.188   3.048  -1.512  0.00  0.00    +0.009 A 
ATOM      3  C   UNL     1       0.088   2.569  -1.743  0.00  0.00    -0.043 A 
ATOM      4  C   UNL     1       0.583   2.500  -3.030  0.00  0.00    +0.016 A 
ATOM      5  C   UNL     1      -0.209   2.905  -4.101  0.00  0.00    +0.024 A 
ATOM      6  C   UNL     1      -1.500   3.390  -3.865  0.00  0.00    +0.126 A 
ENDROOT
BRANCH   3   7
ATOM      7  C   UNL     1       0.945   2.125  -0.585  0.00  0.00    +0.020 C 
ATOM      8  C   UNL     1       1.307   0.652  -0.766  0.00  0.00    +0.011 C 
ATOM      9  C   UNL     1       2.175   0.165   0.384  0.00  0.00    -0.013 C 
ATOM     10  C   UNL     1       3.380   1.048   0.638  0.00  0.00    +0.009 C 
ATOM     11  C   UNL     1       3.119   2.544   0.602  0.00  0.00    -0.034 C 
ATOM     12  C   UNL     1       2.229   2.951  -0.568  0.00  0.00    +0.014 C 
ATOM     13  C   UNL     1       2.506   3.026   1.920  0.00  0.00    +0.011 C 
ATOM     14  C   UNL     1       4.475   3.262   0.433  0.00  0.00    +0.011 C 
ATOM     15  C   UNL     1       1.338  -0.026   1.648  0.00  0.00    +0.007 C 
ENDBRANCH   3   7
BRANCH   5  16
ATOM     16  C   UNL     1       0.315   2.828  -5.487  0.00  0.00    -0.014 A 
ATOM     17  C   UNL     1       1.563   3.366  -5.793  0.00  0.00    +0.008 A 
ATOM     18  C   UNL     1       2.049   3.287  -7.083  0.00  0.00    +0.001 A 
ATOM     19  C   UNL     1       1.293   2.685  -8.073  0.00  0.00    +0.000 A 
ATOM     20  C   UNL     1       0.051   2.154  -7.776  0.00  0.00    +0.001 A 
ATOM     21  C   UNL     1      -0.442   2.223  -6.488  0.00  0.00    +0.008 A 
ENDBRANCH   5  16
BRANCH   6  22
ATOM     22  O   UNL     1      -2.278   3.792  -4.903  0.00  0.00    -0.506 OA
ATOM     23  H   UNL     1      -2.182   4.728  -5.127  0.00  0.00    +0.292 HD
ENDBRANCH   6  22
BRANCH   1  24
ATOM     24  C   UNL     1      -3.371   3.980  -2.307  0.00  0.00    -0.039 C 
BRANCH  24  25
ATOM     25  N   UNL     1      -3.370   5.448  -2.484  0.00  0.00    +0.382 N 
ATOM     26  H   UNL     1      -2.954   5.673  -3.396  0.00  0.00    -0.081 HD
BRANCH  25  28
ATOM     27  C   UNL     1      -5.423   5.669  -3.792  0.00  0.00    -0.017 C 
ATOM     28  C   UNL     1      -4.755   5.962  -2.447  0.00  0.00    -0.082 C 
ENDBRANCH  25  28
BRANCH  25  29
ATOM     29  C   UNL     1      -2.566   6.085  -1.419  0.00  0.00    -0.082 C 
ATOM     30  C   UNL     1      -2.269   7.530  -1.825  0.00  0.00    -0.017 C 
ENDBRANCH  25  29
ENDBRANCH  24  25
ENDBRANCH   1  24
TORSDOF 7
