REMARK  Name = ZINC01216284
REMARK  7 active torsions:
REMARK  status: ('A' for Active; 'I' for Inactive)
REMARK    1  A    between atoms: C_1  and  C_2
REMARK    2  A    between atoms: C_5  and  N_8
REMARK    3  A    between atoms: C_9  and  C_10
REMARK    4  A    between atoms: C_15  and  N_16
REMARK    5  A    between atoms: N_16  and  S_17
REMARK    6  A    between atoms: S_17  and  C_20
REMARK    7  A    between atoms: C_23  and  C_26
REMARK                            x       y       z     vdW  Elec       q    Type
REMARK                         _______ _______ _______ _____ _____    ______ ____
ROOT
ATOM      1  C   UNL     1      -1.411   1.685  -0.246  0.00  0.00    +0.015 A 
ATOM      2  C   UNL     1      -0.256   0.917  -0.421  0.00  0.00    +0.011 A 
ATOM      3  C   UNL     1       0.974   1.534  -0.493  0.00  0.00    +0.001 A 
ATOM      4  C   UNL     1       1.074   2.912  -0.388  0.00  0.00    +0.002 A 
ATOM      5  C   UNL     1      -0.056   3.684  -0.209  0.00  0.00    +0.025 A 
ATOM      6  C   UNL     1      -1.305   3.082  -0.134  0.00  0.00    +0.057 A 
ENDROOT
BRANCH   1   8
ATOM      7  N   UNL     1      -3.803   1.756  -0.012  0.00  0.00    -0.255 NA
ATOM      8  C   UNL     1      -2.728   1.036  -0.175  0.00  0.00    +0.121 C 
BRANCH   7  13
ATOM      9  C   UNL     1      -8.859  -0.738   0.260  0.00  0.00    +0.044 C 
ATOM     10  C   UNL     1      -7.509  -0.072   0.188  0.00  0.00    -0.050 A 
ATOM     11  C   UNL     1      -7.181   0.919   1.095  0.00  0.00    +0.005 A 
ATOM     12  C   UNL     1      -5.947   1.533   1.035  0.00  0.00    +0.028 A 
ATOM     13  C   UNL     1      -5.028   1.151   0.054  0.00  0.00    +0.064 A 
ATOM     14  C   UNL     1      -5.369   0.153  -0.862  0.00  0.00    +0.028 A 
ATOM     15  C   UNL     1      -6.604  -0.455  -0.787  0.00  0.00    +0.005 A 
ENDBRANCH   7  13
ENDBRANCH   1   8
BRANCH   6  16
ATOM     16  N   UNL     1      -2.445   3.858   0.046  0.00  0.00    -0.216 N 
ATOM     17  H   UNL     1      -3.178   3.524   0.586  0.00  0.00    +0.174 HD
BRANCH  16  18
ATOM     18  S   UNL     1      -2.551   5.351  -0.663  0.00  0.00    +0.072 S 
ATOM     19  O   UNL     1      -3.863   5.831  -0.405  0.00  0.00    -0.150 OA
ATOM     20  O   UNL     1      -1.387   6.068  -0.275  0.00  0.00    -0.150 OA
BRANCH  18  21
ATOM     21  C   UNL     1      -2.436   5.110  -2.405  0.00  0.00    +0.109 A 
ATOM     22  C   UNL     1      -1.202   5.135  -3.026  0.00  0.00    +0.029 A 
ATOM     23  C   UNL     1      -1.112   4.942  -4.392  0.00  0.00    +0.005 A 
ATOM     24  C   UNL     1      -2.257   4.733  -5.138  0.00  0.00    -0.050 A 
ATOM     25  C   UNL     1      -3.492   4.713  -4.517  0.00  0.00    +0.005 A 
ATOM     26  C   UNL     1      -3.582   4.902  -3.150  0.00  0.00    +0.029 A 
ATOM     27  C   UNL     1      -2.159   4.527  -6.627  0.00  0.00    +0.044 C 
ENDBRANCH  18  21
ENDBRANCH  16  18
ENDBRANCH   6  16
TORSDOF 5
