REMARK  Name = ZINC15523034
REMARK  13 active torsions:
REMARK  status: ('A' for Active; 'I' for Inactive)
REMARK    1  A    between atoms: C_1  and  C_2
REMARK    2  A    between atoms: C_5  and  C_7
REMARK    3  A    between atoms: C_7  and  N_61
REMARK    4  A    between atoms: C_8  and  C_9
REMARK    5  A    between atoms: C_8  and  N_61
REMARK    6  A    between atoms: C_9  and  C_10
REMARK    7  A    between atoms: C_16  and  C_17
REMARK    8  A    between atoms: C_16  and  N_61
REMARK    9  A    between atoms: N_19  and  C_20
REMARK   10  A    between atoms: C_22  and  S_28
REMARK   11  A    between atoms: C_24  and  C_27
REMARK   12  A    between atoms: C_25  and  C_26
REMARK   13  A    between atoms: S_28  and  N_31
REMARK                            x       y       z     vdW  Elec       q    Type
REMARK                         _______ _______ _______ _____ _____    ______ ____
ROOT
ATOM      1  C   UNL     1      -0.401   1.131  -2.354  0.00  0.00    +0.019 C 
ENDROOT
BRANCH   1   2
ATOM      2  C   UNL     1      -1.309   1.587  -3.467  0.00  0.00    +0.201 C 
ATOM      3  O   UNL     1      -0.863   1.762  -4.581  0.00  0.00    -0.278 OA
ATOM      4  N   UNL     1      -2.618   1.800  -3.224  0.00  0.00    -0.287 N 
ATOM      5  H   UNL     1      -2.958   1.744  -2.318  0.00  0.00    +0.155 HD
BRANCH   4   6
ATOM      6  C   UNL     1      -3.485   2.103  -4.280  0.00  0.00    +0.038 A 
ATOM      7  C   UNL     1      -3.091   1.873  -5.592  0.00  0.00    +0.052 A 
ATOM      8  C   UNL     1      -3.949   2.173  -6.631  0.00  0.00    +0.107 A 
ATOM      9  C   UNL     1      -5.199   2.702  -6.367  0.00  0.00    +0.032 A 
ATOM     10  C   UNL     1      -5.594   2.933  -5.062  0.00  0.00    -0.044 A 
ATOM     11  C   UNL     1      -4.743   2.629  -4.018  0.00  0.00    -0.026 A 
ATOM     12  C   UNL     1      -5.177   2.874  -2.595  0.00  0.00    +0.046 C 
ATOM     13  C   UNL     1      -6.957   3.510  -4.779  0.00  0.00    +0.044 C 
BRANCH   8  14
ATOM     14  S   UNL     1      -3.451   1.881  -8.296  0.00  0.00    +0.056 S 
ATOM     15  O   UNL     1      -4.135   2.835  -9.098  0.00  0.00    -0.153 OA
ATOM     16  O   UNL     1      -2.034   1.774  -8.283  0.00  0.00    -0.153 OA
BRANCH  14  17
ATOM     17  N   UNL     1      -4.035   0.393  -8.728  0.00  0.00    -0.204 NA
ATOM     18  H   UNL     1      -4.606  -0.099  -8.118  0.00  0.00    +0.144 HD
ATOM     19  H   UNL     1      -3.805   0.014  -9.591  0.00  0.00    +0.144 HD
ENDBRANCH  14  17
ENDBRANCH   8  14
ENDBRANCH   4   6
ENDBRANCH   1   2
BRANCH   1  20
ATOM     20  N   UNL     1      -1.066   1.403  -1.063  0.00  0.00    +0.389 N 
ATOM     21  H   UNL     1      -2.082   1.325  -1.187  0.00  0.00    -0.081 HD
BRANCH  20  22
ATOM     22  C   UNL     1      -0.742   2.772  -0.607  0.00  0.00    -0.035 C 
BRANCH  22  27
ATOM     23  C   UNL     1      -1.835   6.390  -4.826  0.00  0.00    +0.051 C 
ATOM     24  C   UNL     1      -1.789   5.483  -3.624  0.00  0.00    -0.013 A 
ATOM     25  C   UNL     1      -2.748   5.246  -2.696  0.00  0.00    +0.011 A 
ATOM     26  C   UNL     1      -2.482   4.362  -1.667  0.00  0.00    +0.009 A 
ATOM     27  C   UNL     1      -1.269   3.760  -1.615  0.00  0.00    -0.026 A 
ATOM     28  S   UNL     1      -0.455   4.446  -3.048  0.00  0.00    -0.100 S 
ENDBRANCH  22  27
ENDBRANCH  20  22
BRANCH  20  29
ATOM     29  C   UNL     1      -0.629   0.417  -0.052  0.00  0.00    -0.073 C 
BRANCH  29  30
ATOM     30  C   UNL     1      -1.491   0.580   1.201  0.00  0.00    +0.016 C 
BRANCH  30  31
ATOM     31  C   UNL     1      -1.072  -0.434   2.235  0.00  0.00    -0.049 A 
ATOM     32  C   UNL     1      -1.675  -1.677   2.268  0.00  0.00    +0.003 A 
ATOM     33  C   UNL     1      -1.288  -2.609   3.213  0.00  0.00    +0.000 A 
ATOM     34  C   UNL     1      -0.303  -2.293   4.130  0.00  0.00    +0.000 A 
ATOM     35  C   UNL     1       0.297  -1.048   4.101  0.00  0.00    +0.000 A 
ATOM     36  C   UNL     1      -0.087  -0.119   3.153  0.00  0.00    +0.003 A 
ENDBRANCH  30  31
ENDBRANCH  29  30
ENDBRANCH  20  29
ENDBRANCH   1  20
TORSDOF 10
