REMARK  Name = ZINC06301122
REMARK  7 active torsions:
REMARK  status: ('A' for Active; 'I' for Inactive)
REMARK    1  A    between atoms: C_1  and  C_2
REMARK    2  A    between atoms: C_4  and  C_38
REMARK    3  A    between atoms: C_9  and  C_14
REMARK    4  A    between atoms: C_14  and  C_16
REMARK    5  A    between atoms: C_14  and  N_74
REMARK    6  A    between atoms: N_20  and  C_21
REMARK    7  A    between atoms: C_21  and  C_22
REMARK                            x       y       z     vdW  Elec       q    Type
REMARK                         _______ _______ _______ _____ _____    ______ ____
ROOT
ATOM      1  C   UNL     1      -1.194  -0.920   0.009  0.00  0.00    +0.039 C 
ENDROOT
BRANCH   1  10
ATOM      2  C   UNL     1      -2.535  -4.509   6.408  0.00  0.00    +0.044 C 
ATOM      3  C   UNL     1      -2.615  -3.270   5.554  0.00  0.00    -0.050 A 
ATOM      4  C   UNL     1      -3.210  -2.123   6.062  0.00  0.00    +0.008 A 
ATOM      5  C   UNL     1      -3.295  -0.978   5.299  0.00  0.00    -0.026 A 
ATOM      6  C   UNL     1      -2.780  -0.970   4.006  0.00  0.00    +0.052 A 
ATOM      7  C   UNL     1      -2.178  -2.135   3.496  0.00  0.00    -0.001 A 
ATOM      8  C   UNL     1      -2.103  -3.285   4.288  0.00  0.00    +0.013 A 
ATOM      9  C   UNL     1      -1.639  -2.117   2.135  0.00  0.00    +0.017 A 
ATOM     10  C   UNL     1      -1.739  -0.973   1.413  0.00  0.00    +0.011 A 
ATOM     11  C   UNL     1      -2.348   0.170   1.975  0.00  0.00    +0.251 A 
ATOM     12  O   UNL     1      -2.424   1.190   1.311  0.00  0.00    -0.268 OA
ATOM     13  N   UNL     1      -2.851   0.161   3.222  0.00  0.00    -0.322 N 
ATOM     14  H   UNL     1      -3.266   0.963   3.575  0.00  0.00    +0.169 HD
ATOM     15  C   UNL     1      -3.943   0.260   5.863  0.00  0.00    +0.046 C 
ENDBRANCH   1  10
BRANCH   1  26
ATOM     16  C   UNL     1      -3.380  -1.392  -0.918  0.00  0.00    -0.077 C 
ATOM     17  C   UNL     1      -4.513  -0.811  -1.767  0.00  0.00    -0.018 C 
ATOM     18  C   UNL     1      -4.007  -0.578  -3.193  0.00  0.00    +0.003 C 
ATOM     19  C   UNL     1      -2.796   0.358  -3.149  0.00  0.00    -0.044 C 
ATOM     20  C   UNL     1      -1.713  -0.256  -2.260  0.00  0.00    -0.071 C 
ATOM     21  C   UNL     1      -3.220   1.712  -2.576  0.00  0.00    +0.005 C 
ATOM     22  C   UNL     1      -4.306   2.324  -3.463  0.00  0.00    +0.000 C 
ATOM     23  C   UNL     1      -3.759   2.517  -4.878  0.00  0.00    +0.000 C 
ATOM     24  C   UNL     1      -3.335   1.164  -5.452  0.00  0.00    +0.000 C 
ATOM     25  C   UNL     1      -2.249   0.552  -4.564  0.00  0.00    +0.005 C 
ATOM     26  N   UNL     1      -2.255  -0.433  -0.896  0.00  0.00    +0.390 N 
ATOM     27  H   UNL     1      -2.596   0.473  -0.554  0.00  0.00    -0.080 HD
ENDBRANCH   1  26
BRANCH   1  28
ATOM     28  C   UNL     1      -0.030   0.035  -0.042  0.00  0.00    +0.143 A 
ATOM     29  N   UNL     1      -0.092   1.342  -0.113  0.00  0.00    -0.115 NA
ATOM     30  N   UNL     1       1.113   1.797  -0.136  0.00  0.00    -0.023 NA
ATOM     31  N   UNL     1       1.942   0.814  -0.082  0.00  0.00    -0.044 NA
ATOM     32  N   UNL     1       1.276  -0.289  -0.023  0.00  0.00    -0.228 N 
BRANCH  32  33
ATOM     33  C   UNL     1       1.837  -1.641   0.051  0.00  0.00    +0.178 C 
BRANCH  33  34
ATOM     34  C   UNL     1       2.033  -2.190  -1.364  0.00  0.00    +0.140 C 
ATOM     35  C   UNL     1       2.676  -3.599  -1.309  0.00  0.00    +0.035 C 
ATOM     36  C   UNL     1       2.197  -4.194  -2.661  0.00  0.00    +0.031 C 
ATOM     37  C   UNL     1       0.799  -3.558  -2.822  0.00  0.00    +0.160 C 
ATOM     38  O   UNL     1       0.762  -2.382  -2.005  0.00  0.00    -0.375 OA
ENDBRANCH  33  34
ENDBRANCH  32  33
ENDBRANCH   1  28
TORSDOF 5
