REMARK  Name = ZINC39502899
REMARK  6 active torsions:
REMARK  status: ('A' for Active; 'I' for Inactive)
REMARK    1  A    between atoms: C_4  and  C_7
REMARK    2  A    between atoms: C_7  and  N_8
REMARK    3  A    between atoms: C_10  and  C_28
REMARK    4  A    between atoms: C_16  and  S_19
REMARK    5  A    between atoms: S_19  and  C_22
REMARK    6  A    between atoms: C_33  and  O_34
REMARK                            x       y       z     vdW  Elec       q    Type
REMARK                         _______ _______ _______ _____ _____    ______ ____
ROOT
ATOM      1  N   UNL     1       4.153  -0.953   1.342  0.00  0.00    +0.387 N 
ATOM      2  C   UNL     1       3.156  -1.793   2.043  0.00  0.00    -0.069 C 
ATOM      3  C   UNL     1       3.993  -2.717   2.963  0.00  0.00    +0.005 C 
ATOM      4  C   UNL     1       5.237  -2.999   2.079  0.00  0.00    -0.006 C 
ATOM      5  C   UNL     1       5.435  -1.670   1.331  0.00  0.00    -0.063 C 
ATOM      6  C   UNL     1       5.901  -1.931  -0.106  0.00  0.00    -0.010 C 
ATOM      7  C   UNL     1       7.277  -1.244  -0.250  0.00  0.00    +0.025 C 
ATOM      8  C   UNL     1       7.269  -0.146   0.843  0.00  0.00    +0.135 C 
ATOM      9  C   UNL     1       6.527  -0.835   2.018  0.00  0.00    +0.014 C 
ATOM     10  H   UNL     1       4.258  -0.075   1.828  0.00  0.00    -0.081 HD
ENDROOT
BRANCH   3  11
ATOM     11  C   UNL     1       3.248  -3.990   3.271  0.00  0.00    -0.005 A 
ATOM     12  C   UNL     1       2.848  -4.822   2.243  0.00  0.00    +0.007 A 
ATOM     13  C   UNL     1       2.164  -5.990   2.525  0.00  0.00    +0.000 A 
ATOM     14  C   UNL     1       1.880  -6.329   3.835  0.00  0.00    +0.004 A 
ATOM     15  C   UNL     1       2.279  -5.501   4.866  0.00  0.00    +0.046 A 
ATOM     16  C   UNL     1       2.970  -4.331   4.586  0.00  0.00    +0.120 A 
BRANCH  16  17
ATOM     17  O   UNL     1       3.368  -3.517   5.599  0.00  0.00    -0.506 OA
ATOM     18  H   UNL     1       2.717  -2.845   5.843  0.00  0.00    +0.292 HD
ENDBRANCH  16  17
ENDBRANCH   3  11
BRANCH   8  19
ATOM     19  S   UNL     1       8.962   0.299   1.319  0.00  0.00    -0.000 S 
ATOM     20  O   UNL     1       8.944   1.404   2.212  0.00  0.00    -0.169 OA
ATOM     21  O   UNL     1       9.707  -0.870   1.628  0.00  0.00    -0.169 OA
BRANCH  19  22
ATOM     22  C   UNL     1       9.697   0.925  -0.155  0.00  0.00    +0.088 A 
ATOM     23  C   UNL     1      10.350   0.066  -1.020  0.00  0.00    +0.027 A 
ATOM     24  C   UNL     1      10.926   0.557  -2.176  0.00  0.00    +0.002 A 
ATOM     25  C   UNL     1      10.850   1.906  -2.469  0.00  0.00    +0.000 A 
ATOM     26  C   UNL     1      10.196   2.764  -1.605  0.00  0.00    +0.002 A 
ATOM     27  C   UNL     1       9.615   2.273  -0.450  0.00  0.00    +0.027 A 
ENDBRANCH  19  22
ENDBRANCH   8  19
BRANCH   1  28
ATOM     28  C   UNL     1       3.711  -0.707  -0.038  0.00  0.00    -0.042 C 
BRANCH  28  32
ATOM     29  C   UNL     1       0.080   1.542   0.008  0.00  0.00    +0.000 A 
ATOM     30  C   UNL     1       1.297   2.196  -0.019  0.00  0.00    +0.000 A 
ATOM     31  C   UNL     1       2.473   1.468  -0.033  0.00  0.00    +0.002 A 
ATOM     32  C   UNL     1       2.430   0.086  -0.021  0.00  0.00    -0.064 A 
ATOM     33  C   UNL     1       1.212  -0.568   0.007  0.00  0.00    +0.002 A 
ATOM     34  C   UNL     1       0.037   0.160   0.020  0.00  0.00    +0.000 A 
ENDBRANCH  28  32
ENDBRANCH   1  28
TORSDOF 6
