REMARK  Name = ZINC27672030
REMARK  8 active torsions:
REMARK  status: ('A' for Active; 'I' for Inactive)
REMARK    1  A    between atoms: C_1  and  C_2
REMARK    2  A    between atoms: C_5  and  N_8
REMARK    3  A    between atoms: C_9  and  C_25
REMARK    4  A    between atoms: C_11  and  C_16
REMARK    5  A    between atoms: N_18  and  C_19
REMARK    6  A    between atoms: C_19  and  C_20
REMARK    7  A    between atoms: C_20  and  N_21
REMARK    8  A    between atoms: C_22  and  C_24
REMARK                            x       y       z     vdW  Elec       q    Type
REMARK                         _______ _______ _______ _____ _____    ______ ____
ROOT
ATOM      1  N   UNL     1      -2.266  -0.434  -0.789  0.00  0.00    -0.263 N 
ATOM      2  C   UNL     1      -1.163  -0.983   0.008  0.00  0.00    +0.130 C 
ATOM      3  C   UNL     1      -1.723  -1.132   1.440  0.00  0.00    +0.109 C 
ATOM      4  C   UNL     1      -2.843  -0.066   1.452  0.00  0.00    +0.111 C 
ATOM      5  C   UNL     1      -3.222   0.092  -0.004  0.00  0.00    +0.221 C 
ATOM      6  O   UNL     1      -4.239   0.618  -0.404  0.00  0.00    -0.275 OA
ENDROOT
BRANCH   1  11
ATOM      7  C   UNL     1      -2.472  -0.524  -6.458  0.00  0.00    +0.044 C 
ATOM      8  C   UNL     1      -2.417  -0.500  -4.952  0.00  0.00    -0.050 A 
ATOM      9  C   UNL     1      -1.281  -0.936  -4.296  0.00  0.00    +0.005 A 
ATOM     10  C   UNL     1      -1.227  -0.915  -2.916  0.00  0.00    +0.024 A 
ATOM     11  C   UNL     1      -2.317  -0.456  -2.188  0.00  0.00    +0.037 A 
ATOM     12  C   UNL     1      -3.459  -0.025  -2.849  0.00  0.00    +0.024 A 
ATOM     13  C   UNL     1      -3.504  -0.043  -4.229  0.00  0.00    +0.005 A 
ENDBRANCH   1  11
BRANCH   2  14
ATOM     14  C   UNL     1       0.007  -0.033   0.002  0.00  0.00    +0.011 A 
ATOM     15  C   UNL     1       1.334  -0.312  -0.011  0.00  0.00    +0.013 A 
ATOM     16  C   UNL     1       2.239   0.733  -0.015  0.00  0.00    +0.008 A 
ATOM     17  C   UNL     1       1.773   2.006  -0.004  0.00  0.00    +0.045 A 
ATOM     18  S   UNL     1       0.006   1.753   0.011  0.00  0.00    -0.100 S 
ENDBRANCH   2  14
BRANCH   3  19
ATOM     19  C   UNL     1      -2.289  -2.512   1.656  0.00  0.00    +0.219 C 
ATOM     20  O   UNL     1      -2.259  -3.327   0.759  0.00  0.00    -0.275 OA
ATOM     21  N   UNL     1      -2.827  -2.840   2.847  0.00  0.00    -0.314 N 
ATOM     22  H   UNL     1      -2.854  -2.101   3.661  0.00  0.00    +0.149 HD
BRANCH  21  23
ATOM     23  C   UNL     1      -3.377  -4.181   3.058  0.00  0.00    +0.123 C 
BRANCH  23  24
ATOM     24  C   UNL     1      -3.922  -4.292   4.483  0.00  0.00    +0.123 C 
BRANCH  24  25
ATOM     25  N   UNL     1      -4.472  -5.633   4.694  0.00  0.00    -0.314 N 
ATOM     26  C   UNL     1      -5.010  -5.961   5.885  0.00  0.00    +0.210 C 
ATOM     27  O   UNL     1      -5.040  -5.146   6.783  0.00  0.00    -0.276 OA
ATOM     28  C   UNL     1      -5.576  -7.341   6.101  0.00  0.00    +0.109 C 
ATOM     29  H   UNL     1      -4.445  -6.372   3.880  0.00  0.00    +0.149 HD
ENDBRANCH  24  25
ENDBRANCH  23  24
ENDBRANCH  21  23
ENDBRANCH   3  19
TORSDOF 6
