REMARK  Name = ZINC63696502
REMARK  5 active torsions:
REMARK  status: ('A' for Active; 'I' for Inactive)
REMARK    1  A    between atoms: C_1  and  C_2
REMARK    2  A    between atoms: C_16  and  C_19
REMARK    3  A    between atoms: N_21  and  C_22
REMARK    4  A    between atoms: C_22  and  C_23
REMARK    5  A    between atoms: C_23  and  C_24
REMARK                            x       y       z     vdW  Elec       q    Type
REMARK                         _______ _______ _______ _____ _____    ______ ____
ROOT
ATOM      1  C   UNL     1      -0.018   1.503   0.010  0.00  0.00    +0.044 C 
ATOM      2  C   UNL     1       0.002  -0.004   0.002  0.00  0.00    -0.048 A 
ATOM      3  C   UNL     1       0.006  -0.686  -1.206  0.00  0.00    +0.005 A 
ATOM      4  C   UNL     1       0.025  -2.065  -1.230  0.00  0.00    +0.028 A 
ATOM      5  C   UNL     1       0.041  -2.776  -0.040  0.00  0.00    +0.065 A 
ATOM      6  C   UNL     1       0.037  -2.091   1.187  0.00  0.00    +0.066 A 
ATOM      7  C   UNL     1       0.023  -0.694   1.194  0.00  0.00    +0.031 A 
ATOM      8  N   UNL     1       0.055  -3.029   2.169  0.00  0.00    -0.327 N 
ATOM      9  C   UNL     1       0.069  -4.225   1.635  0.00  0.00    +0.174 A 
ATOM     10  N   UNL     1       0.061  -4.125   0.273  0.00  0.00    -0.327 N 
ATOM     11  H   UNL     1       0.068  -4.862  -0.357  0.00  0.00    +0.169 HD
ATOM     12  N   UNL     1       0.089  -5.409   2.343  0.00  0.00    -0.302 N 
ATOM     13  C   UNL     1       0.220  -6.695   1.646  0.00  0.00    +0.108 C 
ATOM     14  C   UNL     1      -0.929  -7.611   2.080  0.00  0.00    +0.020 C 
ATOM     15  C   UNL     1      -0.939  -7.721   3.607  0.00  0.00    +0.016 C 
ATOM     16  C   UNL     1      -1.166  -6.336   4.218  0.00  0.00    +0.092 C 
ATOM     17  C   UNL     1      -0.014  -5.406   3.808  0.00  0.00    +0.120 C 
ATOM     18  H   UNL     1       0.057  -2.842   3.121  0.00  0.00    +0.169 HD
ENDROOT
BRANCH  16  19
ATOM     19  C   UNL     1      -1.208  -6.451   5.721  0.00  0.00    +0.218 C 
ATOM     20  O   UNL     1      -0.404  -5.847   6.398  0.00  0.00    -0.275 OA
ATOM     21  N   UNL     1      -2.140  -7.225   6.311  0.00  0.00    -0.315 N 
ATOM     22  H   UNL     1      -2.784  -7.708   5.770  0.00  0.00    +0.149 HD
BRANCH  21  23
ATOM     23  C   UNL     1      -2.182  -7.336   7.772  0.00  0.00    +0.108 C 
BRANCH  23  24
ATOM     24  C   UNL     1      -3.324  -8.268   8.180  0.00  0.00    +0.052 C 
BRANCH  24  25
ATOM     25  C   UNL     1      -3.366  -8.382   9.682  0.00  0.00    -0.040 C 
ATOM     26  C   UNL     1      -4.137  -7.664  10.531  0.00  0.00    -0.001 A 
ATOM     27  C   UNL     1      -5.127  -6.602  10.318  0.00  0.00    +0.010 A 
ATOM     28  C   UNL     1      -5.750  -6.062  11.390  0.00  0.00    +0.001 A 
ATOM     29  C   UNL     1      -5.474  -6.489  12.696  0.00  0.00    +0.002 A 
ATOM     30  C   UNL     1      -4.577  -7.460  12.972  0.00  0.00    +0.026 A 
ATOM     31  C   UNL     1      -3.864  -8.098  11.920  0.00  0.00    +0.043 A 
ATOM     32  N   UNL     1      -2.959  -9.048  11.929  0.00  0.00    -0.380 N 
ATOM     33  C   UNL     1      -2.561  -9.328  10.545  0.00  0.00    +0.144 C 
ATOM     34  H   UNL     1      -2.614  -9.493  12.719  0.00  0.00    +0.160 HD
ENDBRANCH  24  25
ENDBRANCH  23  24
ENDBRANCH  21  23
ENDBRANCH  16  19
TORSDOF 4
