REMARK  Name = ZINC34926367
REMARK  6 active torsions:
REMARK  status: ('A' for Active; 'I' for Inactive)
REMARK    1  A    between atoms: C_1  and  C_2
REMARK    2  A    between atoms: C_2  and  C_27
REMARK    3  A    between atoms: C_3  and  C_10
REMARK    4  A    between atoms: C_5  and  C_7
REMARK    5  A    between atoms: N_15  and  C_18
REMARK    6  A    between atoms: C_21  and  N_24
REMARK                            x       y       z     vdW  Elec       q    Type
REMARK                         _______ _______ _______ _____ _____    ______ ____
ROOT
ATOM      1  C   UNL     1      -1.569  -2.204  -0.149  0.00  0.00    +0.220 C 
ATOM      2  O   UNL     1      -0.628  -2.574  -0.819  0.00  0.00    -0.275 OA
ATOM      3  N   UNL     1      -2.522  -3.084   0.218  0.00  0.00    -0.298 N 
ATOM      4  C   UNL     1      -3.671  -2.650   1.024  0.00  0.00    +0.126 C 
ATOM      5  C   UNL     1      -4.960  -3.036   0.288  0.00  0.00    +0.124 C 
ATOM      6  N   UNL     1      -4.869  -4.447  -0.111  0.00  0.00    -0.327 N 
ATOM      7  C   UNL     1      -3.719  -4.882  -0.917  0.00  0.00    +0.124 C 
ATOM      8  C   UNL     1      -2.433  -4.495  -0.185  0.00  0.00    +0.126 C 
ENDROOT
BRANCH   6   9
ATOM      9  C   UNL     1      -5.856  -5.359   0.270  0.00  0.00    +0.030 A 
ATOM     10  C   UNL     1      -6.875  -4.964   1.127  0.00  0.00    +0.025 A 
ATOM     11  C   UNL     1      -7.850  -5.868   1.500  0.00  0.00    +0.034 A 
ATOM     12  C   UNL     1      -7.812  -7.165   1.023  0.00  0.00    +0.126 A 
ATOM     13  C   UNL     1      -6.798  -7.562   0.170  0.00  0.00    +0.034 A 
ATOM     14  C   UNL     1      -5.823  -6.662  -0.212  0.00  0.00    +0.025 A 
BRANCH  12  15
ATOM     15  N   UNL     1      -8.858  -8.132   1.427  0.00  0.00    +0.056 N 
ATOM     16  O   UNL     1      -9.745  -7.786   2.172  0.00  0.00    -0.126 OA
ATOM     17  O   UNL     1      -8.826  -9.266   1.010  0.00  0.00    -0.126 OA
ENDBRANCH  12  15
ENDBRANCH   6   9
BRANCH   1  20
ATOM     18  C   UNL     1      -0.954   1.628  -0.512  0.00  0.00    +0.012 C 
ATOM     19  C   UNL     1      -0.561   0.188  -0.176  0.00  0.00    -0.009 C 
ATOM     20  C   UNL     1      -1.674  -0.761   0.273  0.00  0.00    +0.096 C 
ATOM     21  C   UNL     1      -0.653  -0.246   1.288  0.00  0.00    +0.121 C 
ATOM     22  C   UNL     1       0.573  -0.400  -1.018  0.00  0.00    +0.012 C 
BRANCH  21  23
ATOM     23  C   UNL     1      -1.123   0.778   2.289  0.00  0.00    +0.360 C 
ATOM     24  O   UNL     1      -2.273   1.180   2.256  0.00  0.00    -0.246 OA
ATOM     25  O   UNL     1      -0.352   1.204   3.132  0.00  0.00    -0.246 OA
ENDBRANCH  21  23
ENDBRANCH   1  20
TORSDOF 4
