REMARK  Name = ZINC09467207
REMARK  11 active torsions:
REMARK  status: ('A' for Active; 'I' for Inactive)
REMARK    1  A    between atoms: C_1  and  C_2
REMARK    2  A    between atoms: C_4  and  C_14
REMARK    3  A    between atoms: C_5  and  C_13
REMARK    4  A    between atoms: N_6  and  C_7
REMARK    5  A    between atoms: C_7  and  C_8
REMARK    6  A    between atoms: C_14  and  C_16
REMARK    7  A    between atoms: C_16  and  O_17
REMARK    8  A    between atoms: O_17  and  C_18
REMARK    9  A    between atoms: C_18  and  C_20
REMARK   10  A    between atoms: C_24  and  S_26
REMARK   11  A    between atoms: S_26  and  N_29
REMARK                            x       y       z     vdW  Elec       q    Type
REMARK                         _______ _______ _______ _____ _____    ______ ____
ROOT
ATOM      1  C   UNL     1      -0.018   1.503   0.010  0.00  0.00    +0.311 C 
ENDROOT
BRANCH   1   2
ATOM      2  C   UNL     1       0.002  -0.004   0.002  0.00  0.00    +0.202 C 
ATOM      3  O   UNL     1      -0.506  -0.623   0.914  0.00  0.00    -0.288 OA
BRANCH   2   7
ATOM      4  C   UNL     1       2.465  -1.045  -4.336  0.00  0.00    +0.063 C 
ATOM      5  C   UNL     1       1.726  -1.164  -3.027  0.00  0.00    +0.017 A 
ATOM      6  C   UNL     1       1.293  -0.134  -2.281  0.00  0.00    +0.034 A 
ATOM      7  C   UNL     1       0.636  -0.722  -1.106  0.00  0.00    +0.042 A 
ATOM      8  C   UNL     1       0.743  -2.091  -1.259  0.00  0.00    +0.027 A 
ATOM      9  N   UNL     1       1.390  -2.335  -2.413  0.00  0.00    -0.340 N 
ATOM     10  C   UNL     1       0.222  -3.131  -0.301  0.00  0.00    +0.064 C 
BRANCH   9  11
ATOM     11  C   UNL     1       1.697  -3.670  -2.933  0.00  0.00    +0.196 C 
BRANCH  11  12
ATOM     12  C   UNL     1       3.039  -4.115  -2.412  0.00  0.00    +0.124 A 
ATOM     13  C   UNL     1       3.256  -4.792  -1.270  0.00  0.00    +0.046 A 
ATOM     14  C   UNL     1       4.651  -5.002  -1.176  0.00  0.00    +0.041 A 
ATOM     15  C   UNL     1       5.204  -4.433  -2.262  0.00  0.00    +0.195 A 
ATOM     16  O   UNL     1       4.224  -3.897  -3.007  0.00  0.00    -0.466 OA
ENDBRANCH  11  12
ENDBRANCH   9  11
ENDBRANCH   2   7
ENDBRANCH   1   2
BRANCH   1  17
ATOM     17  O   UNL     1      -0.698   1.971   1.205  0.00  0.00    -0.453 OA
BRANCH  17  18
ATOM     18  C   UNL     1      -0.803   3.304   1.366  0.00  0.00    +0.340 C 
ATOM     19  O   UNL     1      -0.339   4.055   0.531  0.00  0.00    -0.245 OA
BRANCH  18  20
ATOM     20  C   UNL     1      -1.481   3.853   2.557  0.00  0.00    +0.061 A 
ATOM     21  C   UNL     1      -2.021   2.992   3.516  0.00  0.00    +0.016 A 
ATOM     22  C   UNL     1      -2.648   3.511   4.628  0.00  0.00    +0.023 A 
ATOM     23  C   UNL     1      -2.755   4.882   4.791  0.00  0.00    +0.067 A 
ATOM     24  C   UNL     1      -2.227   5.741   3.841  0.00  0.00    +0.124 A 
ATOM     25  C   UNL     1      -1.592   5.235   2.727  0.00  0.00    +0.045 A 
ATOM     26 CL   UNL     1      -3.553   5.527   6.191  0.00  0.00    -0.082 Cl
BRANCH  24  27
ATOM     27  S   UNL     1      -2.367   7.484   4.058  0.00  0.00    +0.057 S 
ATOM     28  O   UNL     1      -1.942   7.764   5.384  0.00  0.00    -0.153 OA
ATOM     29  O   UNL     1      -1.761   8.084   2.921  0.00  0.00    -0.153 OA
BRANCH  27  30
ATOM     30  N   UNL     1      -3.978   7.859   3.988  0.00  0.00    -0.203 NA
ATOM     31  H   UNL     1      -4.634   7.157   3.849  0.00  0.00    +0.144 HD
ATOM     32  H   UNL     1      -4.267   8.779   4.087  0.00  0.00    +0.144 HD
ENDBRANCH  27  30
ENDBRANCH  24  27
ENDBRANCH  18  20
ENDBRANCH  17  18
ENDBRANCH   1  17
TORSDOF 9
