REMARK  Name = ZINC65202480
REMARK  5 active torsions:
REMARK  status: ('A' for Active; 'I' for Inactive)
REMARK    1  A    between atoms: C_8  and  C_10
REMARK    2  A    between atoms: N_12  and  N_13
REMARK    3  A    between atoms: N_16  and  C_17
REMARK    4  A    between atoms: C_17  and  C_18
REMARK    5  A    between atoms: C_18  and  C_19
REMARK                            x       y       z     vdW  Elec       q    Type
REMARK                         _______ _______ _______ _____ _____    ______ ____
ROOT
ATOM      1  C   UNL     1       3.125  -4.013  -0.050  0.00  0.00    +0.268 C 
ATOM      2  O   UNL     1       2.293  -4.901  -0.047  0.00  0.00    -0.268 OA
ATOM      3  N   UNL     1       4.437  -4.318  -0.064  0.00  0.00    -0.229 N 
ATOM      4  H   UNL     1       5.100  -3.609  -0.066  0.00  0.00    +0.173 HD
ENDROOT
BRANCH   1  12
ATOM      5  C   UNL     1      -0.016   1.354   0.009  0.00  0.00    +0.001 A 
ATOM      6  C   UNL     1       1.157   2.098   0.002  0.00  0.00    +0.001 A 
ATOM      7  C   UNL     1       2.374   1.448  -0.013  0.00  0.00    +0.016 A 
ATOM      8  C   UNL     1       2.409   0.070  -0.021  0.00  0.00    +0.021 A 
ATOM      9  C   UNL     1       1.231  -0.713  -0.013  0.00  0.00    +0.008 A 
ATOM     10  C   UNL     1       0.002  -0.004   0.002  0.00  0.00    +0.010 A 
ATOM     11  C   UNL     1       1.433  -2.106  -0.023  0.00  0.00    +0.068 A 
ATOM     12  C   UNL     1       2.697  -2.608  -0.037  0.00  0.00    +0.095 A 
ATOM     13  S   UNL     1       3.709  -1.138  -0.039  0.00  0.00    -0.082 S 
ATOM     14 CL   UNL     1       0.070  -3.183  -0.015  0.00  0.00    -0.082 Cl
ENDBRANCH   1  12
BRANCH   3  15
ATOM     15  N   UNL     1       4.845  -5.658  -0.075  0.00  0.00    -0.218 N 
ATOM     16  C   UNL     1       6.158  -5.963  -0.089  0.00  0.00    +0.316 C 
ATOM     17  O   UNL     1       6.511  -7.126  -0.099  0.00  0.00    -0.251 OA
ATOM     18  N   UNL     1       7.078  -4.979  -0.092  0.00  0.00    -0.298 N 
ATOM     19  H   UNL     1       4.182  -6.367  -0.073  0.00  0.00    +0.174 HD
ATOM     20  H   UNL     1       6.796  -4.051  -0.084  0.00  0.00    +0.150 HD
BRANCH  18  21
ATOM     21  C   UNL     1       8.505  -5.310  -0.107  0.00  0.00    +0.111 C 
BRANCH  21  22
ATOM     22  C   UNL     1       9.328  -4.021  -0.108  0.00  0.00    +0.061 C 
BRANCH  22  23
ATOM     23  C   UNL     1      10.796  -4.362  -0.123  0.00  0.00    -0.009 A 
ATOM     24  C   UNL     1      11.619  -4.544  -1.185  0.00  0.00    +0.011 A 
ATOM     25  C   UNL     1      12.947  -4.854  -0.959  0.00  0.00    +0.008 A 
ATOM     26  C   UNL     1      13.387  -4.967   0.318  0.00  0.00    +0.045 A 
ATOM     27  S   UNL     1      11.904  -4.624   1.252  0.00  0.00    -0.102 S 
ENDBRANCH  22  23
ENDBRANCH  21  22
ENDBRANCH  18  21
ENDBRANCH   3  15
TORSDOF 5
