REMARK  Name = ZINC45184881
REMARK  11 active torsions:
REMARK  status: ('A' for Active; 'I' for Inactive)
REMARK    1  A    between atoms: C_1  and  C_2
REMARK    2  A    between atoms: C_2  and  N_3
REMARK    3  A    between atoms: N_3  and  C_4
REMARK    4  A    between atoms: N_3  and  C_6
REMARK    5  A    between atoms: C_4  and  C_5
REMARK    6  A    between atoms: C_6  and  C_7
REMARK    7  A    between atoms: C_12  and  C_13
REMARK    8  A    between atoms: C_13  and  N_14
REMARK    9  A    between atoms: N_17  and  N_18
REMARK   10  A    between atoms: N_18  and  C_19
REMARK   11  A    between atoms: C_19  and  C_26
REMARK                            x       y       z     vdW  Elec       q    Type
REMARK                         _______ _______ _______ _____ _____    ______ ____
ROOT
ATOM      1  N   UNL     1      -2.106  -3.617  -3.416  0.00  0.00    -0.294 N 
ATOM      2  C   UNL     1      -1.333  -3.371  -4.492  0.00  0.00    +0.314 C 
ATOM      3  O   UNL     1      -1.368  -2.281  -5.029  0.00  0.00    -0.252 OA
ATOM      4  N   UNL     1      -0.520  -4.333  -4.973  0.00  0.00    -0.234 N 
ATOM      5  H   UNL     1      -2.078  -4.487  -2.987  0.00  0.00    +0.151 HD
ATOM      6  H   UNL     1       0.036  -4.156  -5.747  0.00  0.00    +0.171 HD
ENDROOT
BRANCH   4   7
ATOM      7  N   UNL     1      -0.481  -5.558  -4.369  0.00  0.00    -0.232 NA
ATOM      8  H   UNL     1      -0.255  -5.471  -3.389  0.00  0.00    +0.145 HD
BRANCH   7   9
ATOM      9  C   UNL     1       0.466  -6.451  -5.051  0.00  0.00    +0.054 C 
ATOM     10  C   UNL     1       1.837  -5.777  -5.084  0.00  0.00    +0.047 C 
ATOM     11  C   UNL     1       2.658  -6.163  -3.823  0.00  0.00    +0.168 C 
ATOM     12  S   UNL     1       2.187  -7.943  -3.682  0.00  0.00    -0.029 S 
ATOM     13  O   UNL     1       2.971  -8.707  -4.588  0.00  0.00    -0.174 OA
ATOM     14  O   UNL     1       2.145  -8.308  -2.309  0.00  0.00    -0.174 OA
ATOM     15  C   UNL     1       0.468  -7.812  -4.328  0.00  0.00    +0.189 C 
ATOM     16  C   UNL     1      -0.010  -6.660  -6.490  0.00  0.00    +0.031 C 
ENDBRANCH   7   9
ENDBRANCH   4   7
BRANCH   1  17
ATOM     17  C   UNL     1      -2.989  -2.571  -2.894  0.00  0.00    +0.141 C 
BRANCH  17  23
ATOM     18  C   UNL     1      -3.109  -3.182  -0.469  0.00  0.00    -0.059 A 
ATOM     19  C   UNL     1      -3.798  -3.660   0.630  0.00  0.00    +0.002 A 
ATOM     20  C   UNL     1      -5.115  -4.058   0.500  0.00  0.00    +0.000 A 
ATOM     21  C   UNL     1      -5.743  -3.979  -0.729  0.00  0.00    +0.000 A 
ATOM     22  C   UNL     1      -5.054  -3.501  -1.828  0.00  0.00    +0.005 A 
ATOM     23  C   UNL     1      -3.738  -3.098  -1.697  0.00  0.00    -0.029 A 
BRANCH  18  24
ATOM     24  C   UNL     1      -1.673  -2.747  -0.328  0.00  0.00    -0.043 C 
BRANCH  24  25
ATOM     25  N   UNL     1      -1.613  -1.284  -0.218  0.00  0.00    +0.382 N 
ATOM     26  H   UNL     1      -2.077  -0.868  -1.011  0.00  0.00    -0.081 HD
BRANCH  25  28
ATOM     27  C   UNL     1      -2.329   0.671   1.073  0.00  0.00    -0.017 C 
ATOM     28  C   UNL     1      -2.281  -0.857   1.019  0.00  0.00    -0.082 C 
ENDBRANCH  25  28
BRANCH  25  29
ATOM     29  C   UNL     1      -0.209  -0.852  -0.190  0.00  0.00    -0.082 C 
ATOM     30  C   UNL     1       0.448  -1.166  -1.536  0.00  0.00    -0.017 C 
ENDBRANCH  25  29
ENDBRANCH  24  25
ENDBRANCH  18  24
ENDBRANCH  17  23
ENDBRANCH   1  17
TORSDOF 8
