REMARK  Name = ZINC39685890
REMARK  14 active torsions:
REMARK  status: ('A' for Active; 'I' for Inactive)
REMARK    1  A    between atoms: C_1  and  C_2
REMARK    2  A    between atoms: C_2  and  O_3
REMARK    3  A    between atoms: O_3  and  C_4
REMARK    4  A    between atoms: C_8  and  C_10
REMARK    5  A    between atoms: C_14  and  C_23
REMARK    6  A    between atoms: N_25  and  C_26
REMARK    7  A    between atoms: C_26  and  C_28
REMARK    8  A    between atoms: C_26  and  C_31
REMARK    9  A    between atoms: C_28  and  C_29
REMARK   10  A    between atoms: C_28  and  C_30
REMARK   11  A    between atoms: N_33  and  C_34
REMARK   12  A    between atoms: C_34  and  C_35
REMARK   13  A    between atoms: C_34  and  C_36
REMARK   14  A    between atoms: C_34  and  C_37
REMARK                            x       y       z     vdW  Elec       q    Type
REMARK                         _______ _______ _______ _____ _____    ______ ____
ROOT
ATOM      1  C   UNL     1       4.735  -5.070  -3.604  0.00  0.00    +0.247 C 
ATOM      2  O   UNL     1       5.598  -4.595  -4.317  0.00  0.00    -0.270 OA
ATOM      3  N   UNL     1       4.527  -6.401  -3.594  0.00  0.00    -0.296 N 
ATOM      4  C   UNL     1       3.453  -7.147  -2.897  0.00  0.00    +0.121 C 
ATOM      5  C   UNL     1       3.042  -8.258  -3.889  0.00  0.00    +0.100 C 
ATOM      6  C   UNL     1       4.273  -8.454  -4.790  0.00  0.00    -0.004 C 
ATOM      7  C   UNL     1       5.318  -7.450  -4.282  0.00  0.00    +0.115 C 
ATOM      8  C   UNL     1       4.801  -9.879  -4.661  0.00  0.00    -0.010 C 
ATOM      9  C   UNL     1       5.989 -10.066  -5.610  0.00  0.00    -0.082 C 
ATOM     10  N   UNL     1       5.561  -9.805  -6.989  0.00  0.00    +0.379 N 
ATOM     11  C   UNL     1       5.142  -8.405  -7.127  0.00  0.00    -0.082 C 
ATOM     12  C   UNL     1       3.919  -8.148  -6.242  0.00  0.00    -0.010 C 
ATOM     13  H   UNL     1       6.329  -9.988  -7.618  0.00  0.00    -0.086 HD
ATOM     14  H   UNL     1       4.789 -10.411  -7.221  0.00  0.00    -0.086 HD
ENDROOT
BRANCH   1  19
ATOM     15  C   UNL     1       2.498  -3.870  -0.831  0.00  0.00    +0.121 A 
ATOM     16  C   UNL     1       2.374  -2.525  -1.151  0.00  0.00    +0.046 A 
ATOM     17  C   UNL     1       3.015  -2.011  -2.263  0.00  0.00    +0.004 A 
ATOM     18  C   UNL     1       3.783  -2.833  -3.063  0.00  0.00    +0.013 A 
ATOM     19  C   UNL     1       3.914  -4.186  -2.749  0.00  0.00    +0.040 A 
ATOM     20  C   UNL     1       3.271  -4.702  -1.623  0.00  0.00    +0.058 A 
BRANCH  15  21
ATOM     21  O   UNL     1       1.865  -4.369   0.263  0.00  0.00    -0.492 OA
BRANCH  21  23
ATOM     22  C   UNL     1       0.454  -4.194   2.217  0.00  0.00    +0.048 C 
ATOM     23  C   UNL     1       1.085  -3.455   1.035  0.00  0.00    +0.225 C 
ENDBRANCH  21  23
ENDBRANCH  15  21
ENDBRANCH   1  19
BRANCH   5  24
ATOM     24  C   UNL     1       2.723  -9.531  -3.149  0.00  0.00    +0.219 C 
ATOM     25  O   UNL     1       3.256  -9.764  -2.085  0.00  0.00    -0.275 OA
ATOM     26  N   UNL     1       1.845 -10.412  -3.670  0.00  0.00    -0.303 N 
ATOM     27  H   UNL     1       1.419 -10.226  -4.521  0.00  0.00    +0.149 HD
BRANCH  26  28
ATOM     28  C   UNL     1       1.535 -11.649  -2.950  0.00  0.00    +0.161 C 
BRANCH  28  29
ATOM     29  C   UNL     1       1.067 -12.695  -3.928  0.00  0.00    +0.234 C 
ATOM     30  O   UNL     1       0.671 -12.365  -5.026  0.00  0.00    -0.274 OA
ATOM     31  N   UNL     1       1.087 -13.998  -3.583  0.00  0.00    -0.309 N 
ATOM     32  H   UNL     1       1.337 -14.257  -2.683  0.00  0.00    +0.149 HD
BRANCH  31  33
ATOM     33  C   UNL     1       0.730 -15.022  -4.568  0.00  0.00    +0.026 C 
ATOM     34  C   UNL     1       1.687 -14.940  -5.759  0.00  0.00    +0.031 C 
ATOM     35  C   UNL     1       0.833 -16.406  -3.925  0.00  0.00    +0.031 C 
ATOM     36  C   UNL     1      -0.704 -14.790  -5.049  0.00  0.00    +0.031 C 
ENDBRANCH  31  33
ENDBRANCH  28  29
BRANCH  28  37
ATOM     37  C   UNL     1       0.432 -11.380  -1.924  0.00  0.00    +0.012 C 
ATOM     38  C   UNL     1       0.949 -10.405  -0.864  0.00  0.00    +0.009 C 
ATOM     39  C   UNL     1      -0.782 -10.771  -2.628  0.00  0.00    +0.009 C 
ENDBRANCH  28  37
ENDBRANCH  26  28
ENDBRANCH   5  24
TORSDOF 8
