REMARK  Name = ZINC13362137
REMARK  5 active torsions:
REMARK  status: ('A' for Active; 'I' for Inactive)
REMARK    1  A    between atoms: C_1  and  C_2
REMARK    2  A    between atoms: N_14  and  N_15
REMARK    3  A    between atoms: C_16  and  C_17
REMARK    4  A    between atoms: C_27  and  C_34
REMARK    5  A    between atoms: C_30  and  O_33
REMARK                            x       y       z     vdW  Elec       q    Type
REMARK                         _______ _______ _______ _____ _____    ______ ____
ROOT
ATOM      1  C   UNL     1      -1.000  -3.978  -2.380  0.00  0.00    +0.018 C 
ATOM      2  C   UNL     1      -1.760  -3.045  -1.425  0.00  0.00    +0.011 C 
ATOM      3  C   UNL     1      -1.928  -1.716  -2.110  0.00  0.00    +0.013 C 
ATOM      4  C   UNL     1      -2.162  -0.511  -1.228  0.00  0.00    +0.005 C 
ATOM      5  C   UNL     1      -1.417  -0.520   0.095  0.00  0.00    +0.003 C 
ATOM      6  C   UNL     1      -1.549  -1.873   0.774  0.00  0.00    +0.001 C 
ATOM      7  C   UNL     1      -0.987  -2.992  -0.096  0.00  0.00    +0.005 C 
ATOM      8  C   UNL     1      -1.392  -4.342   0.564  0.00  0.00    +0.010 C 
ATOM      9  C   UNL     1      -2.866  -4.532   0.149  0.00  0.00    +0.053 C 
ATOM     10  C   UNL     1      -3.084  -3.699  -1.099  0.00  0.00    +0.047 C 
ATOM     11  N   UNL     1      -4.191  -3.575  -1.761  0.00  0.00    -0.158 NA
ATOM     12  C   UNL     1      -0.897  -1.846   2.152  0.00  0.00    +0.031 C 
ATOM     13  C   UNL     1       0.487  -1.279   2.070  0.00  0.00    -0.027 C 
ATOM     14  C   UNL     1       0.874  -0.463   1.138  0.00  0.00    -0.065 C 
ATOM     15  C   UNL     1       0.002  -0.004   0.002  0.00  0.00    -0.008 C 
ATOM     16  C   UNL     1      -0.019   1.533   0.011  0.00  0.00    +0.014 C 
ATOM     17  C   UNL     1       1.397   2.098   0.000  0.00  0.00    +0.032 C 
ATOM     18  C   UNL     1       2.191   1.623   1.215  0.00  0.00    +0.119 C 
ATOM     19  C   UNL     1       2.286   0.094   1.211  0.00  0.00    +0.062 C 
ATOM     20  C   UNL     1       0.662  -0.451  -1.300  0.00  0.00    +0.016 C 
ENDROOT
BRANCH  11  21
ATOM     21  N   UNL     1      -5.342  -4.248  -1.332  0.00  0.00    -0.157 NA
ATOM     22  C   UNL     1      -6.457  -4.123  -1.999  0.00  0.00    +0.142 C 
BRANCH  22  23
ATOM     23  C   UNL     1      -7.667  -4.829  -1.550  0.00  0.00    -0.005 A 
ATOM     24  C   UNL     1      -7.624  -5.641  -0.411  0.00  0.00    +0.012 A 
ATOM     25  C   UNL     1      -8.761  -6.296   0.008  0.00  0.00    +0.039 A 
ATOM     26  C   UNL     1      -9.944  -6.160  -0.703  0.00  0.00    +0.123 A 
ATOM     27  C   UNL     1      -9.993  -5.362  -1.836  0.00  0.00    +0.039 A 
ATOM     28  C   UNL     1      -8.863  -4.697  -2.262  0.00  0.00    +0.012 A 
ATOM     29  F   UNL     1     -11.055  -6.809  -0.290  0.00  0.00    -0.205 F 
ENDBRANCH  22  23
ENDBRANCH  11  21
BRANCH  18  30
ATOM     30  O   UNL     1       1.545   2.058   2.413  0.00  0.00    -0.391 OA
ATOM     31  H   UNL     1       2.004   1.799   3.224  0.00  0.00    +0.210 HD
ENDBRANCH  18  30
TORSDOF 3
