REMARK  Name = ZINC50840125
REMARK  5 active torsions:
REMARK  status: ('A' for Active; 'I' for Inactive)
REMARK    1  A    between atoms: C_1  and  N_2
REMARK    2  A    between atoms: N_2  and  C_3
REMARK    3  A    between atoms: N_2  and  C_11
REMARK    4  A    between atoms: C_3  and  C_4
REMARK    5  A    between atoms: C_11  and  C_12
REMARK                            x       y       z     vdW  Elec       q    Type
REMARK                         _______ _______ _______ _____ _____    ______ ____
ROOT
ATOM      1  C   UNL     1      -0.142   1.550   0.301  0.00  0.00    -0.095 C 
ATOM      2  N   UNL     1      -0.030   0.103   0.080  0.00  0.00    +0.385 N 
ATOM      3  H   UNL     1       0.385  -0.068  -0.824  0.00  0.00    -0.081 HD
ENDROOT
BRANCH   2   4
ATOM      4  C   UNL     1       0.814  -0.489   1.126  0.00  0.00    -0.042 C 
BRANCH   4   5
ATOM      5  C   UNL     1       2.221   0.033   0.992  0.00  0.00    -0.050 A 
ATOM      6  C   UNL     1       2.690   0.991   1.872  0.00  0.00    +0.003 A 
ATOM      7  C   UNL     1       3.981   1.470   1.749  0.00  0.00    +0.000 A 
ATOM      8  C   UNL     1       4.804   0.991   0.746  0.00  0.00    +0.001 A 
ATOM      9  C   UNL     1       4.335   0.034  -0.134  0.00  0.00    +0.015 A 
ATOM     10  C   UNL     1       3.045  -0.450  -0.008  0.00  0.00    +0.019 A 
ATOM     11 BR   UNL     1       2.407  -1.765  -1.208  0.00  0.00    -0.050 Br
ENDBRANCH   4   5
ENDBRANCH   2   4
BRANCH   2  12
ATOM     12  C   UNL     1      -1.367  -0.505   0.127  0.00  0.00    -0.001 C 
BRANCH  12  13
ATOM     13  C   UNL     1      -2.194   0.011  -1.022  0.00  0.00    +0.116 A 
ATOM     14  N   UNL     1      -2.916   1.103  -0.859  0.00  0.00    -0.227 NA
ATOM     15  C   UNL     1      -3.645   1.570  -1.850  0.00  0.00    +0.113 A 
ATOM     16  C   UNL     1      -3.678   0.923  -3.109  0.00  0.00    +0.044 A 
ATOM     17  C   UNL     1      -4.529   1.561  -4.099  0.00  0.00    +0.020 A 
ATOM     18  C   UNL     1      -5.199   2.674  -3.767  0.00  0.00    +0.048 A 
ATOM     19  S   UNL     1      -4.729   2.955  -2.070  0.00  0.00    -0.077 S 
ATOM     20  C   UNL     1      -2.882  -0.241  -3.215  0.00  0.00    +0.141 A 
ATOM     21  N   UNL     1      -2.177  -0.636  -2.174  0.00  0.00    -0.222 NA
ATOM     22 CL   UNL     1      -2.828  -1.135  -4.702  0.00  0.00    -0.061 Cl
ENDBRANCH  12  13
ENDBRANCH   2  12
TORSDOF 4
