REMARK  Name = ZINC13116488
REMARK  11 active torsions:
REMARK  status: ('A' for Active; 'I' for Inactive)
REMARK    1  A    between atoms: C_1  and  C_2
REMARK    2  A    between atoms: C_2  and  O_3
REMARK    3  A    between atoms: O_3  and  C_4
REMARK    4  A    between atoms: C_6  and  C_11
REMARK    5  A    between atoms: C_9  and  O_10
REMARK    6  A    between atoms: C_13  and  C_25
REMARK    7  A    between atoms: C_15  and  C_20
REMARK    8  A    between atoms: C_15  and  O_24
REMARK    9  A    between atoms: C_25  and  C_27
REMARK   10  A    between atoms: C_30  and  O_33
REMARK   11  A    between atoms: O_33  and  C_34
REMARK                            x       y       z     vdW  Elec       q    Type
REMARK                         _______ _______ _______ _____ _____    ______ ____
ROOT
ATOM      1  C   UNL     1      -0.012   1.204   0.090  0.00  0.00    +0.120 C 
ATOM      2  C   UNL     1      -0.691   2.053  -0.991  0.00  0.00    +0.144 C 
ATOM      3  C   UNL     1      -0.855   3.481  -0.458  0.00  0.00    +0.243 C 
ATOM      4  N   UNL     1      -1.589   3.440   0.807  0.00  0.00    -0.264 N 
ATOM      5  C   UNL     1      -1.520   2.375   1.620  0.00  0.00    +0.302 C 
ATOM      6  O   UNL     1      -2.142   2.397   2.665  0.00  0.00    -0.253 OA
ATOM      7  N   UNL     1      -0.791   1.287   1.327  0.00  0.00    -0.292 N 
ATOM      8  H   UNL     1      -2.137   4.199   1.064  0.00  0.00    +0.153 HD
ATOM      9  H   UNL     1      -0.781   0.540   1.945  0.00  0.00    +0.151 HD
ENDROOT
BRANCH   1  12
ATOM     10  C   UNL     1       3.691   1.846  -0.291  0.00  0.00    +0.162 A 
ATOM     11  C   UNL     1       2.410   1.366  -0.514  0.00  0.00    +0.055 A 
ATOM     12  C   UNL     1       1.381   1.723   0.337  0.00  0.00    -0.023 A 
ATOM     13  C   UNL     1       1.628   2.549   1.417  0.00  0.00    +0.009 A 
ATOM     14  C   UNL     1       2.904   3.027   1.648  0.00  0.00    +0.049 A 
ATOM     15  C   UNL     1       3.940   2.678   0.796  0.00  0.00    +0.158 A 
BRANCH  15  16
ATOM     16  O   UNL     1       5.196   3.147   1.022  0.00  0.00    -0.503 OA
ATOM     17  H   UNL     1       5.733   2.576   1.589  0.00  0.00    +0.292 HD
ENDBRANCH  15  16
BRANCH  10  18
ATOM     18  O   UNL     1       4.704   1.500  -1.130  0.00  0.00    -0.489 OA
BRANCH  18  20
ATOM     19  C   UNL     1       5.633   0.366  -3.051  0.00  0.00    +0.048 C 
ATOM     20  C   UNL     1       4.375   0.643  -2.225  0.00  0.00    +0.226 C 
ENDBRANCH  18  20
ENDBRANCH  10  18
ENDBRANCH   1  12
BRANCH   3  21
ATOM     21  C   UNL     1      -1.633   4.319  -1.474  0.00  0.00    +0.436 C 
ATOM     22  F   UNL     1      -2.952   3.859  -1.546  0.00  0.00    -0.166 F 
ATOM     23  F   UNL     1      -1.627   5.660  -1.074  0.00  0.00    -0.166 F 
ATOM     24  F   UNL     1      -1.030   4.206  -2.732  0.00  0.00    -0.166 F 
ENDBRANCH   3  21
BRANCH   3  25
ATOM     25  O   UNL     1       0.433   4.062  -0.244  0.00  0.00    -0.364 OA
ATOM     26  H   UNL     1       0.405   4.967   0.094  0.00  0.00    +0.212 HD
ENDBRANCH   3  25
BRANCH   2  27
ATOM     27  C   UNL     1      -2.042   1.472  -1.316  0.00  0.00    +0.173 C 
ATOM     28  O   UNL     1      -2.909   1.441  -0.469  0.00  0.00    -0.292 OA
BRANCH  27  29
ATOM     29  C   UNL     1      -2.310   0.944  -2.660  0.00  0.00    +0.018 A 
ATOM     30  C   UNL     1      -1.355   1.088  -3.675  0.00  0.00    +0.015 A 
ATOM     31  C   UNL     1      -1.607   0.587  -4.926  0.00  0.00    +0.046 A 
ATOM     32  C   UNL     1      -2.813  -0.052  -5.192  0.00  0.00    +0.120 A 
ATOM     33  C   UNL     1      -3.767  -0.193  -4.189  0.00  0.00    +0.046 A 
ATOM     34  C   UNL     1      -3.523   0.299  -2.933  0.00  0.00    +0.015 A 
BRANCH  32  35
ATOM     35  O   UNL     1      -3.061  -0.541  -6.433  0.00  0.00    -0.495 OA
ATOM     36  C   UNL     1      -2.038  -0.363  -7.416  0.00  0.00    +0.277 C 
ENDBRANCH  32  35
ENDBRANCH  27  29
ENDBRANCH   2  27
TORSDOF 9
