REMARK  Name = ZINC45677852
REMARK  9 active torsions:
REMARK  status: ('A' for Active; 'I' for Inactive)
REMARK    1  A    between atoms: C_1  and  C_2
REMARK    2  A    between atoms: N_7  and  C_9
REMARK    3  A    between atoms: C_9  and  C_10
REMARK    4  A    between atoms: C_16  and  C_18
REMARK    5  A    between atoms: C_18  and  C_20
REMARK    6  A    between atoms: C_18  and  N_24
REMARK    7  A    between atoms: C_20  and  C_21
REMARK    8  A    between atoms: C_21  and  C_22
REMARK    9  A    between atoms: C_21  and  C_23
REMARK                            x       y       z     vdW  Elec       q    Type
REMARK                         _______ _______ _______ _____ _____    ______ ____
ROOT
ATOM      1  C   UNL     1       0.757  -2.898   2.340  0.00  0.00    +0.034 A 
ATOM      2  C   UNL     1       1.915  -3.453   1.905  0.00  0.00    +0.070 A 
ATOM      3  S   UNL     1       1.568  -5.186   2.157  0.00  0.00    -0.060 S 
ATOM      4  C   UNL     1       0.013  -5.024   2.779  0.00  0.00    +0.165 A 
ATOM      5  N   UNL     1      -0.176  -3.722   2.778  0.00  0.00    -0.231 NA
ATOM      6  N   UNL     1      -0.859  -6.023   3.198  0.00  0.00    -0.263 N 
ATOM      7  C   UNL     1      -0.485  -7.316   3.129  0.00  0.00    +0.240 C 
ATOM      8  O   UNL     1       0.612  -7.608   2.701  0.00  0.00    -0.273 OA
ATOM      9  H   UNL     1      -1.736  -5.789   3.540  0.00  0.00    +0.157 HD
ENDROOT
BRANCH   1  10
ATOM     10  C   UNL     1       0.548  -1.405   2.330  0.00  0.00    -0.022 C 
BRANCH  10  16
ATOM     11  C   UNL     1      -1.603   2.300  -0.038  0.00  0.00    +0.005 C 
ATOM     12  C   UNL     1      -1.276   0.807  -0.091  0.00  0.00    -0.031 C 
ATOM     13  C   UNL     1      -0.447   0.509  -1.344  0.00  0.00    -0.001 C 
ATOM     14  C   UNL     1      -0.059  -0.972  -1.348  0.00  0.00    -0.018 C 
ATOM     15  C   UNL     1       0.700  -1.298  -0.060  0.00  0.00    -0.078 C 
ATOM     16  N   UNL     1      -0.155  -1.018   1.100  0.00  0.00    +0.384 N 
ATOM     17  C   UNL     1      -0.473   0.414   1.151  0.00  0.00    -0.075 C 
ATOM     18  H   UNL     1      -1.010  -1.548   1.023  0.00  0.00    -0.081 HD
ENDBRANCH  10  16
ENDBRANCH   1  10
BRANCH   7  19
ATOM     19  C   UNL     1      -1.430  -8.399   3.582  0.00  0.00    +0.170 C 
BRANCH  19  20
ATOM     20  N   UNL     1      -0.794  -9.707   3.407  0.00  0.00    -0.230 N 
ATOM     21  C   UNL     1      -0.463 -10.507   4.439  0.00  0.00    +0.227 C 
ATOM     22  O   UNL     1      -0.808 -10.372   5.593  0.00  0.00    -0.275 OA
ATOM     23  C   UNL     1       0.436 -11.622   3.880  0.00  0.00    +0.091 C 
ATOM     24  C   UNL     1       1.856 -11.056   3.956  0.00  0.00    +0.040 C 
ATOM     25  C   UNL     1       2.729 -11.496   2.832  0.00  0.00    -0.030 C 
ATOM     26  C   UNL     1       2.304 -11.996   1.720  0.00  0.00    -0.030 C 
ATOM     27  C   UNL     1       0.858 -12.248   1.431  0.00  0.00    +0.040 C 
ATOM     28  C   UNL     1      -0.085 -11.649   2.434  0.00  0.00    +0.091 C 
ATOM     29  C   UNL     1      -0.492 -10.223   2.195  0.00  0.00    +0.227 C 
ATOM     30  O   UNL     1      -0.537  -9.650   1.128  0.00  0.00    -0.275 OA
ENDBRANCH  19  20
BRANCH  19  31
ATOM     31  C   UNL     1      -2.712  -8.339   2.749  0.00  0.00    +0.035 C 
BRANCH  31  32
ATOM     32  C   UNL     1      -3.741  -9.313   3.326  0.00  0.00    -0.015 C 
ATOM     33  C   UNL     1      -5.093  -9.087   2.646  0.00  0.00    +0.007 C 
ATOM     34  C   UNL     1      -3.279 -10.750   3.078  0.00  0.00    +0.007 C 
ENDBRANCH  31  32
ENDBRANCH  19  31
ENDBRANCH   7  19
TORSDOF 6
