REMARK  Name = ZINC03348236
REMARK  6 active torsions:
REMARK  status: ('A' for Active; 'I' for Inactive)
REMARK    1  A    between atoms: C_1  and  C_2
REMARK    2  A    between atoms: C_15  and  C_17
REMARK    3  A    between atoms: C_17  and  N_58
REMARK    4  A    between atoms: N_20  and  C_23
REMARK    5  A    between atoms: C_26  and  O_29
REMARK    6  A    between atoms: O_29  and  C_30
REMARK                            x       y       z     vdW  Elec       q    Type
REMARK                         _______ _______ _______ _____ _____    ______ ____
ROOT
ATOM      1  C   UNL     1       1.397   3.572   0.259  0.00  0.00    +0.008 C 
ATOM      2  C   UNL     1       1.415   2.064  -0.000  0.00  0.00    -0.009 C 
ATOM      3  C   UNL     1      -0.019   1.524   0.010  0.00  0.00    +0.008 C 
ATOM      4  C   UNL     1       0.002  -0.004   0.002  0.00  0.00    +0.037 C 
ATOM      5  C   UNL     1       0.873  -0.481  -1.158  0.00  0.00    -0.023 A 
ATOM      6  C   UNL     1       1.763   0.357  -1.738  0.00  0.00    -0.004 A 
ATOM      7  S   UNL     1       2.538  -0.601  -3.016  0.00  0.00    -0.073 S 
ATOM      8  C   UNL     1       1.671  -2.118  -2.769  0.00  0.00    +0.116 A 
ATOM      9  C   UNL     1       0.801  -1.828  -1.695  0.00  0.00    +0.075 A 
ATOM     10  C   UNL     1      -0.058  -2.888  -1.248  0.00  0.00    +0.260 A 
ATOM     11  O   UNL     1      -0.845  -2.741  -0.329  0.00  0.00    -0.267 OA
ATOM     12  N   UNL     1       0.063  -4.061  -1.913  0.00  0.00    -0.312 N 
ATOM     13  H   UNL     1      -0.516  -4.828  -1.635  0.00  0.00    +0.170 HD
ATOM     14  C   UNL     1       0.930  -4.245  -2.937  0.00  0.00    +0.094 A 
ATOM     15  N   UNL     1       1.732  -3.300  -3.375  0.00  0.00    -0.229 NA
ATOM     16  C   UNL     1       2.034   1.785  -1.377  0.00  0.00    +0.046 C 
ENDROOT
BRANCH  14  17
ATOM     17  C   UNL     1       0.978  -5.595  -3.605  0.00  0.00    -0.003 C 
BRANCH  17  23
ATOM     18  C   UNL     1       1.571  -4.667  -5.762  0.00  0.00    -0.059 C 
ATOM     19  C   UNL     1       2.674  -4.612  -6.822  0.00  0.00    +0.086 C 
ATOM     20  N   UNL     1       2.920  -5.966  -7.338  0.00  0.00    -0.333 N 
ATOM     21  C   UNL     1       3.328  -6.873  -6.257  0.00  0.00    +0.086 C 
ATOM     22  C   UNL     1       2.226  -6.928  -5.197  0.00  0.00    -0.059 C 
ATOM     23  N   UNL     1       2.003  -5.564  -4.670  0.00  0.00    +0.386 N 
ATOM     24  H   UNL     1       2.883  -5.211  -4.276  0.00  0.00    -0.081 HD
BRANCH  20  25
ATOM     25  C   UNL     1       3.874  -5.946  -8.363  0.00  0.00    +0.030 A 
ATOM     26  C   UNL     1       5.022  -6.720  -8.258  0.00  0.00    +0.027 A 
ATOM     27  C   UNL     1       5.959  -6.704  -9.272  0.00  0.00    +0.047 A 
ATOM     28  C   UNL     1       5.760  -5.906 -10.389  0.00  0.00    +0.120 A 
ATOM     29  C   UNL     1       4.616  -5.128 -10.492  0.00  0.00    +0.047 A 
ATOM     30  C   UNL     1       3.675  -5.147  -9.481  0.00  0.00    +0.027 A 
BRANCH  28  31
ATOM     31  O   UNL     1       6.687  -5.886 -11.384  0.00  0.00    -0.495 OA
ATOM     32  C   UNL     1       7.841  -6.711 -11.213  0.00  0.00    +0.277 C 
ENDBRANCH  28  31
ENDBRANCH  20  25
ENDBRANCH  17  23
ENDBRANCH  14  17
TORSDOF 4
