REMARK  Name = ZINC23858709
REMARK  8 active torsions:
REMARK  status: ('A' for Active; 'I' for Inactive)
REMARK    1  A    between atoms: C_1  and  N_2
REMARK    2  A    between atoms: C_10  and  C_12
REMARK    3  A    between atoms: C_12  and  C_14
REMARK    4  A    between atoms: C_12  and  N_28
REMARK    5  A    between atoms: C_14  and  N_15
REMARK    6  A    between atoms: C_16  and  C_18
REMARK    7  A    between atoms: C_18  and  O_19
REMARK    8  A    between atoms: O_19  and  C_20
REMARK                            x       y       z     vdW  Elec       q    Type
REMARK                         _______ _______ _______ _____ _____    ______ ____
ROOT
ATOM      1  C   UNL     1      -0.511   1.355   4.879  0.00  0.00    -0.020 C 
ENDROOT
BRANCH   1  11
ATOM      2  C   UNL     1      -3.395   4.761   9.350  0.00  0.00    +0.129 C 
ATOM      3  N   UNL     1      -3.011   3.360   9.563  0.00  0.00    -0.333 N 
ATOM      4  C   UNL     1      -4.147   2.573  10.049  0.00  0.00    +0.105 C 
ATOM      5  C   UNL     1      -3.695   1.118  10.227  0.00  0.00    +0.024 C 
ATOM      6  C   UNL     1      -3.423   0.536   8.838  0.00  0.00    +0.038 C 
ATOM      7  C   UNL     1      -2.582   1.501   8.040  0.00  0.00    -0.026 A 
ATOM      8  C   UNL     1      -2.424   2.823   8.418  0.00  0.00    +0.033 A 
ATOM      9  C   UNL     1      -1.641   3.671   7.633  0.00  0.00    +0.023 A 
ATOM     10  C   UNL     1      -1.022   3.196   6.497  0.00  0.00    +0.004 A 
ATOM     11  C   UNL     1      -1.184   1.875   6.123  0.00  0.00    -0.059 A 
ATOM     12  C   UNL     1      -1.960   1.032   6.894  0.00  0.00    +0.007 A 
ENDBRANCH   1  11
BRANCH   1  13
ATOM     13  N   UNL     1       0.839   1.926   4.777  0.00  0.00    +0.385 N 
ATOM     14  C   UNL     1       1.664   1.555   5.955  0.00  0.00    -0.078 C 
ATOM     15  C   UNL     1       3.114   1.762   5.452  0.00  0.00    -0.020 C 
ATOM     16  C   UNL     1       3.042   1.284   3.983  0.00  0.00    -0.020 C 
ATOM     17  C   UNL     1       1.554   1.389   3.599  0.00  0.00    -0.078 C 
ATOM     18  H   UNL     1       0.699   3.014   4.702  0.00  0.00    -0.081 HD
ENDBRANCH   1  13
BRANCH   1  19
ATOM     19  C   UNL     1      -1.329   1.757   3.650  0.00  0.00    +0.093 C 
BRANCH  19  20
ATOM     20  N   UNL     1      -2.629   1.083   3.686  0.00  0.00    -0.314 N 
ATOM     21  C   UNL     1      -3.562   1.368   2.757  0.00  0.00    +0.251 C 
ATOM     22  O   UNL     1      -3.326   2.183   1.890  0.00  0.00    -0.272 OA
ATOM     23  H   UNL     1      -2.843   0.343   4.472  0.00  0.00    +0.149 HD
BRANCH  21  24
ATOM     24  C   UNL     1      -4.899   0.674   2.794  0.00  0.00    +0.324 C 
BRANCH  24  25
ATOM     25  O   UNL     1      -5.709   1.142   1.714  0.00  0.00    -0.481 OA
BRANCH  25  26
ATOM     26  C   UNL     1      -6.956   0.612   1.603  0.00  0.00    +0.140 A 
ATOM     27  C   UNL     1      -7.391  -0.338   2.515  0.00  0.00    +0.048 A 
ATOM     28  C   UNL     1      -8.659  -0.875   2.401  0.00  0.00    +0.023 A 
ATOM     29  C   UNL     1      -9.495  -0.466   1.377  0.00  0.00    +0.043 A 
ATOM     30  C   UNL     1      -9.064   0.481   0.466  0.00  0.00    +0.043 A 
ATOM     31  C   UNL     1      -7.798   1.026   0.580  0.00  0.00    +0.084 A 
ATOM     32 CL   UNL     1      -7.261   2.220  -0.559  0.00  0.00    -0.080 Cl
ATOM     33 CL   UNL     1     -11.087  -1.143   1.236  0.00  0.00    -0.083 Cl
ENDBRANCH  25  26
ENDBRANCH  24  25
ENDBRANCH  21  24
ENDBRANCH  19  20
ENDBRANCH   1  19
TORSDOF 7
