REMARK  Name = ZINC01822548
REMARK  5 active torsions:
REMARK  status: ('A' for Active; 'I' for Inactive)
REMARK    1  A    between atoms: C_1  and  C_2
REMARK    2  A    between atoms: C_2  and  C_29
REMARK    3  A    between atoms: C_10  and  C_11
REMARK    4  A    between atoms: C_14  and  S_16
REMARK    5  A    between atoms: S_16  and  C_17
REMARK                            x       y       z     vdW  Elec       q    Type
REMARK                         _______ _______ _______ _____ _____    ______ ____
ROOT
ATOM      1  C   UNL     1      -3.163   0.968  -0.279  0.00  0.00    +0.041 C 
ATOM      2  C   UNL     1      -2.675  -0.458  -0.250  0.00  0.00    -0.044 C 
ATOM      3  C   UNL     1      -2.256  -0.994   0.893  0.00  0.00    +0.095 A 
ATOM      4  N   UNL     1      -1.766  -2.280   1.132  0.00  0.00    -0.283 N 
ATOM      5  H   UNL     1      -1.731  -2.937   0.420  0.00  0.00    +0.188 HD
ATOM      6  N   UNL     1      -1.331  -2.595   2.403  0.00  0.00    -0.212 N 
ATOM      7  C   UNL     1      -0.673  -3.790   2.761  0.00  0.00    +0.160 A 
ATOM      8  N   UNL     1      -0.001  -4.524   1.911  0.00  0.00    -0.281 NA
ATOM      9  C   UNL     1      -0.819  -4.133   4.200  0.00  0.00    +0.088 A 
ATOM     10  C   UNL     1      -0.887  -5.454   4.636  0.00  0.00    +0.063 C 
ATOM     11  C   UNL     1      -0.886  -2.998   5.143  0.00  0.00    +0.283 A 
ATOM     12  O   UNL     1      -0.564  -3.135   6.312  0.00  0.00    -0.265 OA
ATOM     13  N   UNL     1      -1.314  -1.804   4.676  0.00  0.00    -0.182 NA
ATOM     14  C   UNL     1      -1.538  -1.658   3.398  0.00  0.00    +0.199 A 
ATOM     15  S   UNL     1      -2.167  -0.254   2.517  0.00  0.00    -0.031 S 
ATOM     16  C   UNL     1      -2.663  -1.275  -1.516  0.00  0.00    +0.041 C 
ATOM     17  H   UNL     1       0.433  -5.338   2.210  0.00  0.00    +0.188 HD
ENDROOT
BRANCH  10  18
ATOM     18  C   UNL     1      -1.170  -5.734   5.976  0.00  0.00    +0.130 A 
ATOM     19  C   UNL     1      -0.933  -6.940   6.626  0.00  0.00    +0.050 A 
ATOM     20  C   UNL     1      -1.362  -6.780   7.939  0.00  0.00    +0.057 A 
ATOM     21  C   UNL     1      -1.845  -5.492   8.054  0.00  0.00    +0.167 A 
ATOM     22  O   UNL     1      -1.717  -4.877   6.868  0.00  0.00    -0.449 OA
BRANCH  21  23
ATOM     23  S   UNL     1      -2.514  -4.773   9.517  0.00  0.00    -0.052 S 
BRANCH  23  24
ATOM     24  C   UNL     1      -4.238  -5.119   9.413  0.00  0.00    +0.016 A 
ATOM     25  C   UNL     1      -4.756  -5.740   8.283  0.00  0.00    +0.016 A 
ATOM     26  C   UNL     1      -6.108  -6.010   8.204  0.00  0.00    +0.021 A 
ATOM     27  C   UNL     1      -6.947  -5.664   9.249  0.00  0.00    +0.041 A 
ATOM     28  C   UNL     1      -6.434  -5.045  10.376  0.00  0.00    +0.021 A 
ATOM     29  C   UNL     1      -5.082  -4.777  10.463  0.00  0.00    +0.016 A 
ATOM     30 CL   UNL     1      -8.646  -6.005   9.147  0.00  0.00    -0.084 Cl
ENDBRANCH  23  24
ENDBRANCH  21  23
ENDBRANCH  10  18
TORSDOF 3
