REMARK  Name = ZINC63386762
REMARK  12 active torsions:
REMARK  status: ('A' for Active; 'I' for Inactive)
REMARK    1  A    between atoms: C_1  and  C_2
REMARK    2  A    between atoms: C_2  and  C_4
REMARK    3  A    between atoms: C_2  and  N_18
REMARK    4  A    between atoms: N_6  and  C_7
REMARK    5  A    between atoms: C_7  and  C_8
REMARK    6  A    between atoms: C_8  and  C_9
REMARK    7  A    between atoms: C_19  and  C_21
REMARK    8  A    between atoms: C_21  and  N_22
REMARK    9  A    between atoms: C_27  and  O_35
REMARK   10  A    between atoms: C_28  and  O_33
REMARK   11  A    between atoms: O_33  and  C_34
REMARK   12  A    between atoms: O_35  and  C_36
REMARK                            x       y       z     vdW  Elec       q    Type
REMARK                         _______ _______ _______ _____ _____    ______ ____
ROOT
ATOM      1  N   UNL     1       0.711  -0.489   1.189  0.00  0.00    -0.303 N 
ATOM      2  C   UNL     1       0.051  -0.633   2.355  0.00  0.00    +0.231 C 
ATOM      3  O   UNL     1      -1.129  -0.361   2.423  0.00  0.00    -0.274 OA
ATOM      4  H   UNL     1       1.654  -0.707   1.135  0.00  0.00    +0.149 HD
ENDROOT
BRANCH   1   6
ATOM      5  C   UNL     1      -0.019   1.526   0.010  0.00  0.00    +0.038 C 
ATOM      6  C   UNL     1       0.002  -0.004   0.002  0.00  0.00    +0.156 C 
BRANCH   6   7
ATOM      7  C   UNL     1       0.707  -0.490  -1.238  0.00  0.00    +0.233 C 
ATOM      8  O   UNL     1       1.704  -1.174  -1.140  0.00  0.00    -0.274 OA
ATOM      9  N   UNL     1       0.231  -0.164  -2.456  0.00  0.00    -0.313 N 
ATOM     10  H   UNL     1      -0.566   0.383  -2.534  0.00  0.00    +0.149 HD
BRANCH   9  11
ATOM     11  C   UNL     1       0.917  -0.637  -3.661  0.00  0.00    +0.108 C 
BRANCH  11  12
ATOM     12  C   UNL     1       0.177  -0.130  -4.901  0.00  0.00    +0.052 C 
BRANCH  12  13
ATOM     13  C   UNL     1       0.882  -0.616  -6.141  0.00  0.00    -0.040 C 
ATOM     14  C   UNL     1       0.586  -1.719  -6.865  0.00  0.00    -0.001 A 
ATOM     15  C   UNL     1      -0.442  -2.757  -6.721  0.00  0.00    +0.010 A 
ATOM     16  C   UNL     1      -0.490  -3.762  -7.624  0.00  0.00    +0.001 A 
ATOM     17  C   UNL     1       0.414  -3.837  -8.692  0.00  0.00    +0.002 A 
ATOM     18  C   UNL     1       1.386  -2.921  -8.891  0.00  0.00    +0.026 A 
ATOM     19  C   UNL     1       1.529  -1.821  -8.002  0.00  0.00    +0.043 A 
ATOM     20  N   UNL     1       2.375  -0.820  -7.981  0.00  0.00    -0.380 N 
ATOM     21  C   UNL     1       2.060   0.035  -6.830  0.00  0.00    +0.144 C 
ATOM     22  H   UNL     1       3.088  -0.668  -8.621  0.00  0.00    +0.160 HD
ENDBRANCH  12  13
ENDBRANCH  11  12
ENDBRANCH   9  11
ENDBRANCH   6   7
ENDBRANCH   1   6
BRANCH   2  23
ATOM     23  C   UNL     1       0.780  -1.133   3.576  0.00  0.00    +0.205 C 
BRANCH  23  24
ATOM     24  N   UNL     1      -0.150  -1.201   4.706  0.00  0.00    -0.273 N 
ATOM     25  C   UNL     1      -0.315  -0.033   5.571  0.00  0.00    +0.214 C 
ATOM     26  N   UNL     1      -1.692   0.036   6.076  0.00  0.00    -0.328 N 
ATOM     27  C   UNL     1      -2.300  -1.135   6.523  0.00  0.00    +0.044 A 
ATOM     28  C   UNL     1      -3.274  -1.119   7.503  0.00  0.00    +0.073 A 
ATOM     29  C   UNL     1      -3.864  -2.307   7.906  0.00  0.00    +0.163 A 
ATOM     30  C   UNL     1      -3.481  -3.518   7.326  0.00  0.00    +0.162 A 
ATOM     31  C   UNL     1      -2.505  -3.546   6.351  0.00  0.00    +0.064 A 
ATOM     32  C   UNL     1      -1.901  -2.354   5.946  0.00  0.00    +0.061 A 
ATOM     33  C   UNL     1      -0.841  -2.337   4.927  0.00  0.00    +0.250 C 
ATOM     34  O   UNL     1      -0.587  -3.341   4.290  0.00  0.00    -0.270 OA
ATOM     35  H   UNL     1      -2.168   0.880   6.099  0.00  0.00    +0.148 HD
BRANCH  30  36
ATOM     36  O   UNL     1      -4.073  -4.676   7.725  0.00  0.00    -0.491 OA
ATOM     37  C   UNL     1      -3.635  -5.880   7.092  0.00  0.00    +0.277 C 
ENDBRANCH  30  36
BRANCH  29  38
ATOM     38  O   UNL     1      -4.821  -2.293   8.870  0.00  0.00    -0.491 OA
ATOM     39  C   UNL     1      -5.166  -1.021   9.423  0.00  0.00    +0.277 C 
ENDBRANCH  29  38
ENDBRANCH  23  24
ENDBRANCH   2  23
TORSDOF 9
