REMARK  Name = ZINC36674501
REMARK  9 active torsions:
REMARK  status: ('A' for Active; 'I' for Inactive)
REMARK    1  A    between atoms: C_1  and  C_2
REMARK    2  A    between atoms: C_3  and  C_28
REMARK    3  A    between atoms: C_11  and  C_13
REMARK    4  A    between atoms: C_13  and  S_14
REMARK    5  A    between atoms: S_14  and  C_15
REMARK    6  A    between atoms: C_15  and  C_17
REMARK    7  A    between atoms: C_15  and  C_18
REMARK    8  A    between atoms: N_20  and  C_21
REMARK    9  A    between atoms: C_21  and  C_22
REMARK                            x       y       z     vdW  Elec       q    Type
REMARK                         _______ _______ _______ _____ _____    ______ ____
ROOT
ATOM      1  C   UNL     1       0.090  -3.432   4.547  0.00  0.00    +0.144 C 
ENDROOT
BRANCH   1  12
ATOM      2  C   UNL     1      -0.018   1.503   0.010  0.00  0.00    +0.045 C 
ATOM      3  C   UNL     1       0.002  -0.004   0.002  0.00  0.00    -0.026 A 
ATOM      4  C   UNL     1       0.006  -0.677  -1.160  0.00  0.00    -0.008 A 
ATOM      5  S   UNL     1       0.032  -2.385  -0.648  0.00  0.00    -0.073 S 
ATOM      6  C   UNL     1       0.037  -2.144   1.110  0.00  0.00    +0.116 A 
ATOM      7  C   UNL     1       0.024  -0.745   1.250  0.00  0.00    +0.075 A 
ATOM      8  C   UNL     1       0.029  -0.257   2.597  0.00  0.00    +0.260 A 
ATOM      9  O   UNL     1       0.014   0.942   2.821  0.00  0.00    -0.267 OA
ATOM     10  N   UNL     1       0.051  -1.142   3.611  0.00  0.00    -0.310 N 
ATOM     11  H   UNL     1       0.054  -0.817   4.525  0.00  0.00    +0.170 HD
ATOM     12  C   UNL     1       0.067  -2.480   3.380  0.00  0.00    +0.121 A 
ATOM     13  N   UNL     1       0.053  -2.956   2.163  0.00  0.00    -0.226 NA
ATOM     14  C   UNL     1      -0.009  -0.122  -2.561  0.00  0.00    +0.052 C 
ENDBRANCH   1  12
BRANCH   1  15
ATOM     15  S   UNL     1       0.108  -5.139   3.935  0.00  0.00    -0.141 S 
BRANCH  15  16
ATOM     16  C   UNL     1       0.135  -6.147   5.443  0.00  0.00    +0.129 C 
ATOM     17  C   UNL     1       1.446  -5.905   6.194  0.00  0.00    +0.029 C 
BRANCH  16  18
ATOM     18  C   UNL     1       0.027  -7.604   5.076  0.00  0.00    +0.226 C 
ATOM     19  O   UNL     1       0.388  -7.982   3.981  0.00  0.00    -0.275 OA
ATOM     20  N   UNL     1      -0.469  -8.488   5.964  0.00  0.00    -0.312 N 
ATOM     21  H   UNL     1      -0.757  -8.186   6.840  0.00  0.00    +0.149 HD
BRANCH  20  22
ATOM     22  C   UNL     1      -0.573  -9.905   5.607  0.00  0.00    +0.135 C 
BRANCH  22  23
ATOM     23  C   UNL     1      -1.164 -10.685   6.783  0.00  0.00    +0.135 C 
ATOM     24  C   UNL     1      -1.250 -12.194   6.439  0.00  0.00    +0.035 C 
ATOM     25  C   UNL     1      -1.224 -12.822   7.859  0.00  0.00    +0.031 C 
ATOM     26  C   UNL     1      -0.299 -11.855   8.628  0.00  0.00    +0.160 C 
ATOM     27  O   UNL     1      -0.291 -10.608   7.921  0.00  0.00    -0.375 OA
ENDBRANCH  22  23
ENDBRANCH  20  22
ENDBRANCH  16  18
ENDBRANCH  15  16
ENDBRANCH   1  15
TORSDOF 6
