REMARK  Name = ZINC55689986
REMARK  9 active torsions:
REMARK  status: ('A' for Active; 'I' for Inactive)
REMARK    1  A    between atoms: C_1  and  C_2
REMARK    2  A    between atoms: C_2  and  C_3
REMARK    3  A    between atoms: C_2  and  C_4
REMARK    4  A    between atoms: C_4  and  C_6
REMARK    5  A    between atoms: C_6  and  C_26
REMARK    6  A    between atoms: N_8  and  C_23
REMARK    7  A    between atoms: C_12  and  C_13
REMARK    8  A    between atoms: C_17  and  N_19
REMARK    9  A    between atoms: C_23  and  C_24
REMARK                            x       y       z     vdW  Elec       q    Type
REMARK                         _______ _______ _______ _____ _____    ______ ____
ROOT
ATOM      1  C   UNL     1      -0.016  -0.846   2.406  0.00  0.00    +0.125 C 
ATOM      2  C   UNL     1       0.629  -1.493   3.470  0.00  0.00    +0.105 A 
ATOM      3  N   UNL     1       1.837  -2.126   3.446  0.00  0.00    -0.297 N 
ATOM      4  C   UNL     1       2.323  -2.697   4.538  0.00  0.00    +0.266 A 
ATOM      5  O   UNL     1       3.396  -3.272   4.562  0.00  0.00    -0.266 OA
ATOM      6  C   UNL     1       1.451  -2.577   5.725  0.00  0.00    +0.079 A 
ATOM      7  C   UNL     1       1.642  -3.040   6.987  0.00  0.00    +0.028 C 
ATOM      8  S   UNL     1       0.083  -1.650   5.052  0.00  0.00    -0.065 S 
ENDROOT
BRANCH   7   9
ATOM      9  C   UNL     1       2.939  -3.615   7.370  0.00  0.00    -0.022 A 
ATOM     10  C   UNL     1       4.129  -3.007   6.954  0.00  0.00    +0.008 A 
ATOM     11  C   UNL     1       5.341  -3.553   7.317  0.00  0.00    +0.003 A 
ATOM     12  C   UNL     1       5.384  -4.699   8.092  0.00  0.00    +0.033 A 
ATOM     13  C   UNL     1       4.212  -5.307   8.508  0.00  0.00    +0.127 A 
ATOM     14  C   UNL     1       2.991  -4.770   8.158  0.00  0.00    +0.040 A 
BRANCH  13  15
ATOM     15  N   UNL     1       4.269  -6.533   9.335  0.00  0.00    +0.056 N 
ATOM     16  O   UNL     1       5.339  -7.002   9.647  0.00  0.00    -0.126 OA
ATOM     17  O   UNL     1       3.247  -7.065   9.699  0.00  0.00    -0.126 OA
ENDBRANCH  13  15
ENDBRANCH   7   9
BRANCH   1  18
ATOM     18  C   UNL     1       0.648  -0.681   1.176  0.00  0.00    +0.178 C 
ATOM     19  O   UNL     1       1.522   0.155   1.065  0.00  0.00    -0.291 OA
BRANCH  18  21
ATOM     20  C   UNL     1      -0.836  -0.857  -0.803  0.00  0.00    +0.015 C 
ATOM     21  C   UNL     1       0.274  -1.542  -0.003  0.00  0.00    +0.055 C 
ATOM     22  C   UNL     1       1.499  -1.740  -0.898  0.00  0.00    +0.015 C 
ENDBRANCH  18  21
ENDBRANCH   1  18
BRANCH   1  23
ATOM     23  C   UNL     1      -1.351  -0.353   2.571  0.00  0.00    +0.105 C 
ATOM     24  N   UNL     1      -2.409   0.038   2.702  0.00  0.00    -0.191 NA
ENDBRANCH   1  23
BRANCH   3  25
ATOM     25  C   UNL     1       2.604  -2.174   2.199  0.00  0.00    +0.152 C 
BRANCH  25  26
ATOM     26  C   UNL     1       3.553  -1.004   2.147  0.00  0.00    -0.013 C 
ATOM     27  C   UNL     1       4.834  -1.207   1.966  0.00  0.00    +0.005 C 
ENDBRANCH  25  26
ENDBRANCH   3  25
TORSDOF 7
