REMARK  Name = ZINC40727015
REMARK  3 active torsions:
REMARK  status: ('A' for Active; 'I' for Inactive)
REMARK    1  A    between atoms: C_4  and  N_7
REMARK    2  A    between atoms: C_14  and  N_29
REMARK    3  A    between atoms: C_15  and  N_19
REMARK                            x       y       z     vdW  Elec       q    Type
REMARK                         _______ _______ _______ _____ _____    ______ ____
ROOT
ATOM      1  N   UNL     1       4.203   0.375   1.188  0.00  0.00    -0.327 N 
ATOM      2  C   UNL     1       4.921   0.089   2.438  0.00  0.00    +0.124 C 
ATOM      3  C   UNL     1       5.187  -1.419   2.517  0.00  0.00    +0.125 C 
ATOM      4  N   UNL     1       5.776  -1.860   1.245  0.00  0.00    -0.311 N 
ATOM      5  C   UNL     1       5.058  -1.575  -0.005  0.00  0.00    +0.125 C 
ATOM      6  C   UNL     1       4.790  -0.071  -0.084  0.00  0.00    +0.124 C 
ATOM      7  C   UNL     1       6.991  -2.534   1.224  0.00  0.00    +0.147 A 
ATOM      8  C   UNL     1       7.027  -3.930   1.204  0.00  0.00    +0.104 A 
ATOM      9  C   UNL     1       8.274  -4.557   1.184  0.00  0.00    +0.129 A 
ATOM     10  N   UNL     1       9.373  -3.806   1.184  0.00  0.00    -0.332 N 
ATOM     11  C   UNL     1       9.295  -2.491   1.203  0.00  0.00    +0.200 A 
ATOM     12  N   UNL     1       8.138  -1.860   1.217  0.00  0.00    -0.221 NA
ATOM     13  H   UNL     1      10.244  -4.233   1.171  0.00  0.00    +0.168 HD
ENDROOT
BRANCH   9  14
ATOM     14  N   UNL     1       8.367  -5.944   1.165  0.00  0.00    -0.285 N 
ATOM     15  C   UNL     1       8.305  -6.679  -0.106  0.00  0.00    +0.113 C 
ATOM     16  C   UNL     1       7.372  -7.880   0.092  0.00  0.00    +0.024 C 
ATOM     17  C   UNL     1       7.979  -8.810   1.142  0.00  0.00    +0.038 C 
ATOM     18  C   UNL     1       8.340  -8.039   2.384  0.00  0.00    -0.026 A 
ATOM     19  C   UNL     1       8.526  -6.664   2.355  0.00  0.00    +0.038 A 
ATOM     20  C   UNL     1       8.868  -5.982   3.517  0.00  0.00    +0.024 A 
ATOM     21  C   UNL     1       9.027  -6.673   4.702  0.00  0.00    +0.002 A 
ATOM     22  C   UNL     1       8.845  -8.043   4.731  0.00  0.00    +0.000 A 
ATOM     23  C   UNL     1       8.495  -8.724   3.577  0.00  0.00    +0.005 A 
ENDBRANCH   9  14
BRANCH   1  27
ATOM     24  C   UNL     1       0.562   2.394   1.250  0.00  0.00    +0.000 A 
ATOM     25  C   UNL     1       1.161   2.088   0.041  0.00  0.00    +0.002 A 
ATOM     26  C   UNL     1       2.369   1.418   0.017  0.00  0.00    +0.023 A 
ATOM     27  C   UNL     1       2.982   1.052   1.209  0.00  0.00    +0.030 A 
ATOM     28  C   UNL     1       2.378   1.361   2.421  0.00  0.00    +0.023 A 
ATOM     29  C   UNL     1       1.170   2.031   2.438  0.00  0.00    +0.002 A 
ENDBRANCH   1  27
BRANCH   8  30
ATOM     30  N   UNL     1       5.841  -4.683   1.206  0.00  0.00    -0.353 N 
ATOM     31  H   UNL     1       4.983  -4.235   1.146  0.00  0.00    +0.143 HD
ATOM     32  H   UNL     1       5.881  -5.650   1.266  0.00  0.00    +0.143 HD
ENDBRANCH   8  30
TORSDOF 3
