REMARK  Name = ZINC59018688
REMARK  8 active torsions:
REMARK  status: ('A' for Active; 'I' for Inactive)
REMARK    1  A    between atoms: C_1  and  O_2
REMARK    2  A    between atoms: O_2  and  C_3
REMARK    3  A    between atoms: C_6  and  C_9
REMARK    4  A    between atoms: C_9  and  S_10
REMARK    5  A    between atoms: S_10  and  C_11
REMARK    6  A    between atoms: N_17  and  N_18
REMARK    7  A    between atoms: C_19  and  C_20
REMARK    8  A    between atoms: C_23  and  O_27
REMARK                            x       y       z     vdW  Elec       q    Type
REMARK                         _______ _______ _______ _____ _____    ______ ____
ROOT
ATOM      1  C   UNL     1       4.894  -3.543  -5.456  0.00  0.00    +0.191 A 
ATOM      2  N   UNL     1       6.184  -3.944  -5.652  0.00  0.00    -0.303 N 
ATOM      3  H   UNL     1       6.913  -3.850  -5.019  0.00  0.00    +0.171 HD
ATOM      4  C   UNL     1       6.269  -4.501  -6.898  0.00  0.00    +0.235 A 
ATOM      5  N   UNL     1       5.080  -4.446  -7.448  0.00  0.00    -0.111 NA
ATOM      6  N   UNL     1       4.207  -3.844  -6.532  0.00  0.00    -0.121 NA
ATOM      7  N   UNL     1       7.412  -5.031  -7.479  0.00  0.00    -0.205 N 
ATOM      8  H   UNL     1       8.250  -5.027  -6.991  0.00  0.00    +0.177 HD
ENDROOT
BRANCH   7   9
ATOM      9  N   UNL     1       7.355  -5.573  -8.770  0.00  0.00    -0.188 NA
ATOM     10  C   UNL     1       8.425  -6.070  -9.313  0.00  0.00    +0.138 C 
BRANCH  10  11
ATOM     11  C   UNL     1       8.365  -6.640 -10.671  0.00  0.00    -0.003 A 
ATOM     12  C   UNL     1       7.159  -6.643 -11.378  0.00  0.00    +0.028 A 
ATOM     13  C   UNL     1       7.108  -7.177 -12.648  0.00  0.00    +0.061 A 
ATOM     14  C   UNL     1       8.253  -7.712 -13.226  0.00  0.00    +0.145 A 
ATOM     15  C   UNL     1       9.453  -7.712 -12.527  0.00  0.00    +0.061 A 
ATOM     16  C   UNL     1       9.515  -7.174 -11.258  0.00  0.00    +0.028 A 
ATOM     17 BR   UNL     1      11.007  -8.443 -13.319  0.00  0.00    -0.046 Br
ATOM     18 BR   UNL     1       5.477  -7.181 -13.605  0.00  0.00    -0.046 Br
BRANCH  14  19
ATOM     19  O   UNL     1       8.198  -8.237 -14.478  0.00  0.00    -0.505 OA
ATOM     20  H   UNL     1       8.380  -7.598 -15.181  0.00  0.00    +0.292 HD
ENDBRANCH  14  19
ENDBRANCH  10  11
ENDBRANCH   7   9
BRANCH   1  21
ATOM     21  S   UNL     1       4.261  -2.764  -4.008  0.00  0.00    -0.081 S 
BRANCH  21  22
ATOM     22  C   UNL     1       2.505  -2.503  -4.381  0.00  0.00    +0.112 C 
BRANCH  22  26
ATOM     23  C   UNL     1       0.606  -0.607  -1.056  0.00  0.00    +0.120 A 
ATOM     24  C   UNL     1       1.173   0.161  -2.062  0.00  0.00    +0.046 A 
ATOM     25  C   UNL     1       1.786  -0.455  -3.136  0.00  0.00    +0.008 A 
ATOM     26  C   UNL     1       1.835  -1.835  -3.209  0.00  0.00    -0.037 A 
ATOM     27  C   UNL     1       1.270  -2.602  -2.207  0.00  0.00    +0.008 A 
ATOM     28  C   UNL     1       0.661  -1.992  -1.128  0.00  0.00    +0.046 A 
BRANCH  23  30
ATOM     29  C   UNL     1      -0.017   1.425   0.010  0.00  0.00    +0.277 C 
ATOM     30  O   UNL     1       0.002  -0.004   0.002  0.00  0.00    -0.495 OA
ENDBRANCH  23  30
ENDBRANCH  22  26
ENDBRANCH  21  22
ENDBRANCH   1  21
TORSDOF 7
