REMARK  Name = ZINC13450496
REMARK  6 active torsions:
REMARK  status: ('A' for Active; 'I' for Inactive)
REMARK    1  A    between atoms: C_1  and  C_2
REMARK    2  A    between atoms: C_9  and  N_14
REMARK    3  A    between atoms: C_10  and  C_11
REMARK    4  A    between atoms: C_15  and  C_17
REMARK    5  A    between atoms: C_21  and  C_32
REMARK    6  A    between atoms: C_24  and  C_28
REMARK                            x       y       z     vdW  Elec       q    Type
REMARK                         _______ _______ _______ _____ _____    ______ ____
ROOT
ATOM      1  C   UNL     1       1.894  -7.469   3.820  0.00  0.00    +0.110 C 
ATOM      2  C   UNL     1       1.177  -8.560   3.451  0.00  0.00    +0.072 C 
ATOM      3  C   UNL     1       1.724  -9.704   4.179  0.00  0.00    +0.114 C 
ATOM      4  N   UNL     1       1.361 -10.955   4.164  0.00  0.00    -0.362 N 
ATOM      5  C   UNL     1       2.061 -11.911   5.030  0.00  0.00    +0.149 C 
ATOM      6  C   UNL     1       3.525 -11.505   5.205  0.00  0.00    +0.065 C 
ATOM      7  C   UNL     1       3.603 -10.087   5.793  0.00  0.00    +0.202 C 
ATOM      8  N   UNL     1       2.777  -9.220   4.945  0.00  0.00    -0.226 N 
ATOM      9  N   UNL     1       2.866  -7.849   4.731  0.00  0.00    -0.258 N 
ATOM     10  H   UNL     1       3.504  -7.254   5.154  0.00  0.00    +0.170 HD
ATOM     11  H   UNL     1       0.637 -11.250   3.589  0.00  0.00    +0.162 HD
ENDROOT
BRANCH   5  12
ATOM     12  C   UNL     1       1.390 -11.944   6.379  0.00  0.00    +0.127 A 
ATOM     13  C   UNL     1       1.174 -13.044   7.123  0.00  0.00    +0.047 A 
ATOM     14  C   UNL     1       0.522 -12.618   8.303  0.00  0.00    +0.041 A 
ATOM     15  C   UNL     1       0.380 -11.284   8.210  0.00  0.00    +0.195 A 
ATOM     16  O   UNL     1       0.912 -10.880   7.045  0.00  0.00    -0.466 OA
ENDBRANCH   5  12
BRANCH   1  18
ATOM     17  N   UNL     1       0.696  -5.846   2.433  0.00  0.00    -0.274 N 
ATOM     18  C   UNL     1       1.678  -6.094   3.322  0.00  0.00    +0.264 C 
ATOM     19  O   UNL     1       2.385  -5.187   3.716  0.00  0.00    -0.268 OA
ATOM     20  H   UNL     1       0.132  -6.569   2.118  0.00  0.00    +0.156 HD
BRANCH  17  28
ATOM     21  C   UNL     1      -0.019   1.526   0.010  0.00  0.00    +0.008 C 
ATOM     22  C   UNL     1       0.002  -0.004   0.002  0.00  0.00    -0.009 C 
ATOM     23  C   UNL     1      -1.434  -0.537   0.019  0.00  0.00    +0.008 C 
ATOM     24  C   UNL     1      -1.433  -2.045  -0.237  0.00  0.00    +0.037 C 
ATOM     25  C   UNL     1      -0.464  -2.704   0.734  0.00  0.00    -0.023 A 
ATOM     26  C   UNL     1       0.485  -1.986   1.374  0.00  0.00    -0.004 A 
ATOM     27  S   UNL     1       1.344  -3.167   2.372  0.00  0.00    -0.077 S 
ATOM     28  C   UNL     1       0.493  -4.558   1.967  0.00  0.00    +0.085 A 
ATOM     29  C   UNL     1      -0.459  -4.119   1.060  0.00  0.00    +0.068 A 
ATOM     30  C   UNL     1       0.739  -0.515   1.248  0.00  0.00    +0.046 C 
BRANCH  29  31
ATOM     31  C   UNL     1      -1.421  -5.045   0.455  0.00  0.00    +0.244 C 
ATOM     32  O   UNL     1      -1.150  -5.610  -0.588  0.00  0.00    -0.270 OA
ATOM     33  N   UNL     1      -2.607  -5.271   1.055  0.00  0.00    -0.325 N 
ATOM     34  H   UNL     1      -2.824  -4.822   1.886  0.00  0.00    +0.145 HD
ATOM     35  H   UNL     1      -3.244  -5.884   0.655  0.00  0.00    +0.145 HD
ENDBRANCH  29  31
ENDBRANCH  17  28
ENDBRANCH   1  18
BRANCH   7  36
ATOM     36  C   UNL     1       5.053  -9.599   5.785  0.00  0.00    +0.410 C 
ATOM     37  F   UNL     1       5.531  -9.580   4.471  0.00  0.00    -0.169 F 
ATOM     38  F   UNL     1       5.113  -8.308   6.322  0.00  0.00    -0.169 F 
ATOM     39  F   UNL     1       5.840 -10.461   6.556  0.00  0.00    -0.169 F 
ENDBRANCH   7  36
TORSDOF 5
