REMARK  Name = ZINC54690001
REMARK  7 active torsions:
REMARK  status: ('A' for Active; 'I' for Inactive)
REMARK    1  A    between atoms: C_1  and  C_2
REMARK    2  A    between atoms: C_7  and  S_10
REMARK    3  A    between atoms: S_10  and  C_11
REMARK    4  A    between atoms: C_11  and  C_12
REMARK    5  A    between atoms: C_12  and  C_13
REMARK    6  A    between atoms: N_15  and  C_16
REMARK    7  A    between atoms: C_21  and  N_22
REMARK                            x       y       z     vdW  Elec       q    Type
REMARK                         _______ _______ _______ _____ _____    ______ ____
ROOT
ATOM      1  C   UNL     1      -0.043   0.396   7.821  0.00  0.00    +0.218 C 
ATOM      2  O   UNL     1      -0.987   1.126   7.606  0.00  0.00    -0.275 OA
ATOM      3  N   UNL     1       0.353   0.161   9.088  0.00  0.00    -0.284 N 
ATOM      4  H   UNL     1       1.056  -0.484   9.265  0.00  0.00    +0.155 HD
ENDROOT
BRANCH   3   5
ATOM      5  C   UNL     1      -0.251   0.849  10.150  0.00  0.00    +0.054 A 
ATOM      6  C   UNL     1      -0.846   2.082   9.931  0.00  0.00    +0.026 A 
ATOM      7  C   UNL     1      -1.441   2.759  10.979  0.00  0.00    +0.022 A 
ATOM      8  C   UNL     1      -1.445   2.209  12.249  0.00  0.00    +0.043 A 
ATOM      9  C   UNL     1      -0.855   0.979  12.476  0.00  0.00    +0.044 A 
ATOM     10  C   UNL     1      -0.261   0.291  11.428  0.00  0.00    +0.047 A 
ATOM     11 CL   UNL     1      -2.194   3.065  13.561  0.00  0.00    -0.083 Cl
BRANCH  10  12
ATOM     12  N   UNL     1       0.332  -0.956  11.654  0.00  0.00    -0.356 N 
ATOM     13  H   UNL     1       0.751  -1.433  10.921  0.00  0.00    +0.142 HD
ATOM     14  H   UNL     1       0.325  -1.342  12.544  0.00  0.00    +0.142 HD
ENDBRANCH  10  12
ENDBRANCH   3   5
BRANCH   1  15
ATOM     15  C   UNL     1       0.689  -0.248   6.672  0.00  0.00    +0.107 C 
BRANCH  15  16
ATOM     16  C   UNL     1       0.043   0.181   5.352  0.00  0.00    +0.078 C 
BRANCH  16  17
ATOM     17  S   UNL     1       0.924  -0.594   3.969  0.00  0.00    -0.157 S 
BRANCH  17  23
ATOM     18  C   UNL     1       0.001   1.560   0.015  0.00  0.00    +0.007 C 
ATOM     19  C   UNL     1       0.031   0.030   0.000  0.00  0.00    -0.013 C 
ATOM     20  C   UNL     1      -1.401  -0.508   0.005  0.00  0.00    +0.003 C 
ATOM     21  C   UNL     1      -2.124  -0.025   1.263  0.00  0.00    +0.001 C 
ATOM     22  C   UNL     1      -1.385  -0.532   2.503  0.00  0.00    +0.014 C 
ATOM     23  C   UNL     1       0.047   0.007   2.499  0.00  0.00    +0.047 C 
ATOM     24  C   UNL     1       0.770  -0.477   1.240  0.00  0.00    +0.017 C 
ENDBRANCH  17  23
ENDBRANCH  16  17
ENDBRANCH  15  16
ENDBRANCH   1  15
TORSDOF 6
