REMARK  Name = ZINC65946446
REMARK  5 active torsions:
REMARK  status: ('A' for Active; 'I' for Inactive)
REMARK    1  A    between atoms: C_5  and  N_10
REMARK    2  A    between atoms: C_6  and  N_7
REMARK    3  A    between atoms: N_10  and  C_11
REMARK    4  A    between atoms: N_14  and  C_17
REMARK    5  A    between atoms: C_17  and  C_18
REMARK                            x       y       z     vdW  Elec       q    Type
REMARK                         _______ _______ _______ _____ _____    ______ ____
ROOT
ATOM      1  N   UNL     1       1.795  -2.433   0.373  0.00  0.00    -0.339 N 
ATOM      2  H   UNL     1       0.977  -2.938   0.501  0.00  0.00    +0.146 HD
ENDROOT
BRANCH   1   7
ATOM      3  C   UNL     1       0.555   0.971   0.915  0.00  0.00    +0.050 A 
ATOM      4  C   UNL     1       1.733   1.707   0.779  0.00  0.00    +0.067 A 
ATOM      5  C   UNL     1       2.954   1.050   0.501  0.00  0.00    +0.080 A 
ATOM      6  C   UNL     1       2.967  -0.337   0.367  0.00  0.00    +0.053 A 
ATOM      7  C   UNL     1       1.786  -1.047   0.507  0.00  0.00    +0.060 A 
ATOM      8  C   UNL     1       0.586  -0.387   0.780  0.00  0.00    +0.148 A 
ATOM      9  N   UNL     1       4.085   1.788   0.373  0.00  0.00    -0.237 NA
ATOM     10  C   UNL     1       4.071   3.081   0.498  0.00  0.00    +0.199 A 
ATOM     11  N   UNL     1       2.945   3.793   0.764  0.00  0.00    -0.313 N 
ATOM     12  H   UNL     1       2.995   4.758   0.847  0.00  0.00    +0.170 HD
ATOM     13  C   UNL     1       1.753   3.169   0.914  0.00  0.00    +0.259 A 
ATOM     14  O   UNL     1       0.737   3.796   1.153  0.00  0.00    -0.267 OA
BRANCH   8  15
ATOM     15  N   UNL     1      -0.663  -1.167   0.926  0.00  0.00    +0.058 N 
ATOM     16  O   UNL     1      -1.705  -0.724   0.501  0.00  0.00    -0.126 OA
ATOM     17  O   UNL     1      -0.642  -2.246   1.470  0.00  0.00    -0.126 OA
ENDBRANCH   8  15
ENDBRANCH   1   7
BRANCH   1  18
ATOM     18  C   UNL     1       3.040  -3.128   0.037  0.00  0.00    +0.067 C 
ATOM     19  C   UNL     1       3.228  -3.136  -1.483  0.00  0.00    +0.003 C 
ATOM     20  C   UNL     1       4.488  -3.932  -1.831  0.00  0.00    -0.077 C 
ATOM     21  N   UNL     1       4.349  -5.311  -1.346  0.00  0.00    +0.380 N 
ATOM     22  C   UNL     1       4.240  -5.316   0.118  0.00  0.00    -0.077 C 
ATOM     23  C   UNL     1       2.971  -4.573   0.541  0.00  0.00    +0.003 C 
ATOM     24  H   UNL     1       3.520  -5.725  -1.745  0.00  0.00    -0.082 HD
BRANCH  21  25
ATOM     25  C   UNL     1       5.526  -6.091  -1.750  0.00  0.00    -0.075 C 
BRANCH  25  26
ATOM     26  C   UNL     1       5.317  -7.560  -1.377  0.00  0.00    -0.028 C 
ATOM     27  C   UNL     1       6.597  -8.347  -1.669  0.00  0.00    +0.002 C 
ATOM     28  C   UNL     1       6.388  -9.816  -1.295  0.00  0.00    +0.000 C 
ATOM     29  C   UNL     1       5.235 -10.393  -2.119  0.00  0.00    +0.000 C 
ATOM     30  C   UNL     1       3.956  -9.606  -1.827  0.00  0.00    +0.000 C 
ATOM     31  C   UNL     1       4.165  -8.137  -2.201  0.00  0.00    +0.002 C 
ENDBRANCH  25  26
ENDBRANCH  21  25
ENDBRANCH   1  18
TORSDOF 5
