REMARK  Name = ZINC39665018
REMARK  7 active torsions:
REMARK  status: ('A' for Active; 'I' for Inactive)
REMARK    1  A    between atoms: C_1  and  C_2
REMARK    2  A    between atoms: C_2  and  C_4
REMARK    3  A    between atoms: C_2  and  O_29
REMARK    4  A    between atoms: C_4  and  N_5
REMARK    5  A    between atoms: C_6  and  C_8
REMARK    6  A    between atoms: C_19  and  C_21
REMARK    7  A    between atoms: O_29  and  C_30
REMARK                            x       y       z     vdW  Elec       q    Type
REMARK                         _______ _______ _______ _____ _____    ______ ____
ROOT
ATOM      1  C   UNL     1       1.215  -3.718   3.023  0.00  0.00    +0.100 C 
ATOM      2  C   UNL     1      -0.259  -4.166   3.154  0.00  0.00    +0.121 C 
ATOM      3  N   UNL     1      -0.242  -5.204   4.212  0.00  0.00    -0.296 N 
ATOM      4  C   UNL     1       0.723  -4.693   5.215  0.00  0.00    +0.115 C 
ATOM      5  C   UNL     1       1.855  -4.065   4.378  0.00  0.00    -0.004 C 
ATOM      6  C   UNL     1       2.373  -2.801   5.057  0.00  0.00    -0.010 C 
ATOM      7  C   UNL     1       3.057  -3.178   6.374  0.00  0.00    -0.082 C 
ATOM      8  N   UNL     1       4.165  -4.103   6.105  0.00  0.00    +0.379 N 
ATOM      9  C   UNL     1       3.647  -5.353   5.538  0.00  0.00    -0.082 C 
ATOM     10  C   UNL     1       2.988  -5.069   4.186  0.00  0.00    -0.010 C 
ATOM     11  C   UNL     1      -0.944  -6.354   4.252  0.00  0.00    +0.249 C 
ATOM     12  O   UNL     1      -0.821  -7.109   5.197  0.00  0.00    -0.270 OA
ATOM     13  H   UNL     1       4.805  -3.678   5.451  0.00  0.00    -0.086 HD
ATOM     14  H   UNL     1       4.652  -4.301   6.967  0.00  0.00    -0.086 HD
ENDROOT
BRANCH  11  15
ATOM     15  C   UNL     1      -1.864  -6.696   3.148  0.00  0.00    +0.073 A 
ATOM     16  C   UNL     1      -1.404  -7.433   2.054  0.00  0.00    +0.054 A 
ATOM     17  C   UNL     1      -2.270  -7.749   1.026  0.00  0.00    +0.021 A 
ATOM     18  C   UNL     1      -3.590  -7.338   1.077  0.00  0.00    +0.003 A 
ATOM     19  C   UNL     1      -4.053  -6.608   2.157  0.00  0.00    +0.021 A 
ATOM     20  C   UNL     1      -3.200  -6.289   3.196  0.00  0.00    +0.054 A 
ATOM     21 CL   UNL     1      -3.785  -5.380   4.554  0.00  0.00    -0.083 Cl
ATOM     22 CL   UNL     1       0.252  -7.948   1.986  0.00  0.00    -0.083 Cl
ENDBRANCH  11  15
BRANCH   1  24
ATOM     23  N   UNL     1       2.329  -1.722   2.080  0.00  0.00    -0.312 N 
ATOM     24  C   UNL     1       1.292  -2.235   2.771  0.00  0.00    +0.218 C 
ATOM     25  O   UNL     1       0.421  -1.502   3.189  0.00  0.00    -0.275 OA
ATOM     26  H   UNL     1       3.026  -2.308   1.746  0.00  0.00    +0.149 HD
BRANCH  23  27
ATOM     27  C   UNL     1       2.405  -0.280   1.835  0.00  0.00    +0.148 C 
BRANCH  27  29
ATOM     28  C   UNL     1       3.749   1.543   0.779  0.00  0.00    +0.053 C 
ATOM     29  C   UNL     1       3.670   0.037   1.035  0.00  0.00    +0.187 C 
BRANCH  29  30
ATOM     30  O   UNL     1       4.818  -0.381   1.776  0.00  0.00    -0.488 OA
BRANCH  30  31
ATOM     31  C   UNL     1       5.940  -0.669   1.065  0.00  0.00    +0.121 A 
ATOM     32  C   UNL     1       7.055  -1.188   1.707  0.00  0.00    +0.045 A 
ATOM     33  C   UNL     1       8.194  -1.481   0.982  0.00  0.00    +0.004 A 
ATOM     34  C   UNL     1       8.224  -1.255  -0.382  0.00  0.00    +0.000 A 
ATOM     35  C   UNL     1       7.114  -0.737  -1.024  0.00  0.00    +0.004 A 
ATOM     36  C   UNL     1       5.971  -0.449  -0.304  0.00  0.00    +0.045 A 
ENDBRANCH  30  31
ENDBRANCH  29  30
ENDBRANCH  27  29
ENDBRANCH  23  27
ENDBRANCH   1  24
TORSDOF 6
