REMARK  Name = ZINC49030543
REMARK  9 active torsions:
REMARK  status: ('A' for Active; 'I' for Inactive)
REMARK    1  A    between atoms: C_1  and  C_2
REMARK    2  A    between atoms: C_2  and  N_3
REMARK    3  A    between atoms: N_3  and  C_4
REMARK    4  A    between atoms: N_3  and  C_6
REMARK    5  A    between atoms: C_4  and  C_5
REMARK    6  A    between atoms: C_6  and  C_8
REMARK    7  A    between atoms: C_6  and  C_9
REMARK    8  A    between atoms: C_9  and  N_10
REMARK    9  A    between atoms: N_13  and  C_14
REMARK                            x       y       z     vdW  Elec       q    Type
REMARK                         _______ _______ _______ _____ _____    ______ ____
ROOT
ATOM      1  N   UNL     1      -1.032  -1.638   0.390  0.00  0.00    -0.301 N 
ATOM      2  C   UNL     1      -2.194  -1.928   1.008  0.00  0.00    +0.304 C 
ATOM      3  O   UNL     1      -2.891  -2.835   0.596  0.00  0.00    -0.253 OA
ATOM      4  N   UNL     1      -2.583  -1.213   2.082  0.00  0.00    -0.268 N 
ATOM      5  H   UNL     1      -0.475  -0.914   0.719  0.00  0.00    +0.150 HD
ATOM      6  H   UNL     1      -2.060  -0.451   2.373  0.00  0.00    +0.156 HD
ENDROOT
BRANCH   4   7
ATOM      7  C   UNL     1      -3.744  -1.571   2.777  0.00  0.00    +0.049 A 
ATOM      8  C   UNL     1      -4.116  -2.906   2.869  0.00  0.00    +0.039 A 
ATOM      9  C   UNL     1      -5.262  -3.256   3.557  0.00  0.00    +0.020 A 
ATOM     10  C   UNL     1      -6.040  -2.278   4.152  0.00  0.00    +0.016 A 
ATOM     11  C   UNL     1      -5.672  -0.949   4.061  0.00  0.00    +0.017 A 
ATOM     12  C   UNL     1      -4.524  -0.593   3.381  0.00  0.00    +0.035 A 
ATOM     13  I   UNL     1      -3.963   1.422   3.251  0.00  0.00    -0.042 I 
ATOM     14 BR   UNL     1      -5.770  -5.073   3.684  0.00  0.00    -0.050 Br
ENDBRANCH   4   7
BRANCH   1  15
ATOM     15  C   UNL     1      -0.608  -2.415  -0.777  0.00  0.00    +0.090 C 
BRANCH  15  16
ATOM     16  C   UNL     1       0.788  -1.962  -1.212  0.00  0.00    -0.054 C 
ATOM     17  C   UNL     1       1.211  -2.742  -2.458  0.00  0.00    -0.012 C 
BRANCH  16  18
ATOM     18  N   UNL     1       0.763  -0.526  -1.518  0.00  0.00    +0.382 N 
ATOM     19  H   UNL     1       0.408  -0.018  -0.721  0.00  0.00    -0.081 HD
BRANCH  18  21
ATOM     20  C   UNL     1       3.000  -0.202  -0.575  0.00  0.00    -0.017 C 
ATOM     21  C   UNL     1       2.125  -0.067  -1.823  0.00  0.00    -0.082 C 
ENDBRANCH  18  21
BRANCH  18  22
ATOM     22  C   UNL     1      -0.105  -0.287  -2.678  0.00  0.00    -0.082 C 
ATOM     23  C   UNL     1      -0.236   1.219  -2.915  0.00  0.00    -0.017 C 
ENDBRANCH  18  22
ENDBRANCH  16  18
ENDBRANCH  15  16
ENDBRANCH   1  15
TORSDOF 6
