REMARK  Name = ZINC33760153
REMARK  12 active torsions:
REMARK  status: ('A' for Active; 'I' for Inactive)
REMARK    1  A    between atoms: C_1  and  C_2
REMARK    2  A    between atoms: C_9  and  C_11
REMARK    3  A    between atoms: C_15  and  O_17
REMARK    4  A    between atoms: O_17  and  C_18
REMARK    5  A    between atoms: C_23  and  S_25
REMARK    6  A    between atoms: S_25  and  C_26
REMARK    7  A    between atoms: C_26  and  C_27
REMARK    8  A    between atoms: N_29  and  C_30
REMARK    9  A    between atoms: C_30  and  C_31
REMARK   10  A    between atoms: C_31  and  C_32
REMARK   11  A    between atoms: C_32  and  C_33
REMARK   12  A    between atoms: C_32  and  C_34
REMARK                            x       y       z     vdW  Elec       q    Type
REMARK                         _______ _______ _______ _____ _____    ______ ____
ROOT
ATOM      1  C   UNL     1       4.462  -4.423  -0.224  0.00  0.00    +0.029 C 
ATOM      2  C   UNL     1       4.061  -3.050   0.319  0.00  0.00    +0.091 C 
ATOM      3  C   UNL     1       2.577  -3.062   0.702  0.00  0.00    +0.128 C 
ATOM      4  N   UNL     1       2.235  -1.796   1.364  0.00  0.00    -0.312 N 
ATOM      5  C   UNL     1       2.979  -1.634   2.620  0.00  0.00    +0.125 C 
ATOM      6  C   UNL     1       4.480  -1.564   2.316  0.00  0.00    +0.127 C 
ATOM      7  N   UNL     1       4.851  -2.744   1.521  0.00  0.00    -0.292 N 
ATOM      8  C   UNL     1       5.888  -3.524   1.884  0.00  0.00    +0.247 C 
ATOM      9  O   UNL     1       6.116  -4.553   1.279  0.00  0.00    -0.270 OA
ATOM     10  C   UNL     1       0.870  -1.701   1.580  0.00  0.00    +0.127 A 
ATOM     11  C   UNL     1       0.327  -0.570   2.192  0.00  0.00    +0.083 A 
ATOM     12  C   UNL     1      -1.041  -0.519   2.387  0.00  0.00    +0.135 A 
ATOM     13  N   UNL     1      -1.792  -1.537   1.990  0.00  0.00    -0.210 NA
ATOM     14  C   UNL     1      -1.248  -2.598   1.411  0.00  0.00    +0.192 A 
ATOM     15  N   UNL     1       0.059  -2.686   1.206  0.00  0.00    -0.207 NA
ATOM     16 CL   UNL     1      -1.768   0.865   3.143  0.00  0.00    -0.062 Cl
ENDROOT
BRANCH   8  17
ATOM     17  C   UNL     1       6.749  -3.128   3.019  0.00  0.00    +0.040 A 
ATOM     18  C   UNL     1       6.990  -1.778   3.278  0.00  0.00    +0.013 A 
ATOM     19  C   UNL     1       7.793  -1.412   4.338  0.00  0.00    +0.004 A 
ATOM     20  C   UNL     1       8.363  -2.379   5.146  0.00  0.00    +0.045 A 
ATOM     21  C   UNL     1       8.129  -3.724   4.896  0.00  0.00    +0.121 A 
ATOM     22  C   UNL     1       7.319  -4.103   3.838  0.00  0.00    +0.058 A 
BRANCH  21  23
ATOM     23  O   UNL     1       8.691  -4.671   5.694  0.00  0.00    -0.495 OA
ATOM     24  C   UNL     1       9.510  -4.209   6.770  0.00  0.00    +0.277 C 
ENDBRANCH  21  23
ENDBRANCH   8  17
BRANCH  14  25
ATOM     25  S   UNL     1      -2.288  -3.926   0.901  0.00  0.00    -0.077 S 
BRANCH  25  26
ATOM     26  C   UNL     1      -3.898  -3.279   1.414  0.00  0.00    +0.173 C 
BRANCH  26  27
ATOM     27  C   UNL     1      -4.974  -4.276   1.068  0.00  0.00    +0.223 C 
ATOM     28  O   UNL     1      -4.681  -5.322   0.528  0.00  0.00    -0.275 OA
ATOM     29  N   UNL     1      -6.262  -4.006   1.359  0.00  0.00    -0.315 N 
ATOM     30  H   UNL     1      -6.528  -3.058   1.848  0.00  0.00    +0.149 HD
BRANCH  29  31
ATOM     31  C   UNL     1      -7.308  -4.975   1.022  0.00  0.00    +0.104 C 
BRANCH  31  32
ATOM     32  C   UNL     1      -8.669  -4.428   1.456  0.00  0.00    +0.022 C 
BRANCH  32  33
ATOM     33  C   UNL     1      -9.761  -5.441   1.104  0.00  0.00    -0.016 C 
ATOM     34  C   UNL     1      -9.558  -6.715   1.925  0.00  0.00    +0.007 C 
ATOM     35  C   UNL     1     -11.133  -4.842   1.423  0.00  0.00    +0.007 C 
ENDBRANCH  32  33
ENDBRANCH  31  32
ENDBRANCH  29  31
ENDBRANCH  26  27
ENDBRANCH  25  26
ENDBRANCH  14  25
TORSDOF 8
