REMARK  Name = ZINC40401379
REMARK  15 active torsions:
REMARK  status: ('A' for Active; 'I' for Inactive)
REMARK    1  A    between atoms: C_1  and  C_2
REMARK    2  A    between atoms: C_5  and  C_9
REMARK    3  A    between atoms: C_6  and  C_8
REMARK    4  A    between atoms: C_9  and  N_10
REMARK    5  A    between atoms: N_10  and  C_11
REMARK    6  A    between atoms: N_10  and  C_29
REMARK    7  A    between atoms: C_11  and  C_12
REMARK    8  A    between atoms: C_14  and  C_17
REMARK    9  A    between atoms: N_19  and  C_20
REMARK   10  A    between atoms: C_20  and  C_22
REMARK   11  A    between atoms: C_20  and  C_23
REMARK   12  A    between atoms: C_29  and  C_31
REMARK   13  A    between atoms: C_29  and  C_32
REMARK   14  A    between atoms: C_32  and  C_33
REMARK   15  A    between atoms: C_32  and  C_34
REMARK                            x       y       z     vdW  Elec       q    Type
REMARK                         _______ _______ _______ _____ _____    ______ ____
ROOT
ATOM      1  C   UNL     1      -1.503  -6.071   0.190  0.00  0.00    +0.020 C 
ENDROOT
BRANCH   1   2
ATOM      2  C   UNL     1      -2.930  -6.518   0.377  0.00  0.00    +0.179 A 
ATOM      3  N   UNL     1      -3.768  -6.782  -0.580  0.00  0.00    -0.210 NA
ATOM      4  C   UNL     1      -4.954  -7.153  -0.026  0.00  0.00    +0.163 A 
ATOM      5  C   UNL     1      -4.797  -7.103   1.325  0.00  0.00    +0.230 A 
ATOM      6  O   UNL     1      -3.534  -6.711   1.558  0.00  0.00    -0.449 OA
BRANCH   4   7
ATOM      7  C   UNL     1      -6.178  -7.538  -0.752  0.00  0.00    +0.266 C 
ATOM      8  O   UNL     1      -7.178  -7.851  -0.135  0.00  0.00    -0.268 OA
ATOM      9  N   UNL     1      -6.189  -7.542  -2.100  0.00  0.00    -0.303 N 
ATOM     10  H   UNL     1      -5.391  -7.292  -2.592  0.00  0.00    +0.150 HD
BRANCH   9  11
ATOM     11  C   UNL     1      -7.405  -7.924  -2.821  0.00  0.00    +0.100 C 
ATOM     12  C   UNL     1      -8.318  -6.704  -2.964  0.00  0.00    +0.033 C 
BRANCH  11  13
ATOM     13  C   UNL     1      -7.037  -8.439  -4.189  0.00  0.00    -0.027 A 
ATOM     14  C   UNL     1      -6.034  -7.822  -4.912  0.00  0.00    +0.005 A 
ATOM     15  C   UNL     1      -5.696  -8.295  -6.167  0.00  0.00    +0.000 A 
ATOM     16  C   UNL     1      -6.362  -9.384  -6.698  0.00  0.00    +0.000 A 
ATOM     17  C   UNL     1      -7.365 -10.001  -5.974  0.00  0.00    +0.000 A 
ATOM     18  C   UNL     1      -7.700  -9.531  -4.717  0.00  0.00    +0.005 A 
ENDBRANCH  11  13
ENDBRANCH   9  11
ENDBRANCH   4   7
ENDBRANCH   1   2
BRANCH   1  19
ATOM     19  N   UNL     1      -1.439  -4.604   0.235  0.00  0.00    +0.390 N 
ATOM     20  H   UNL     1      -2.068  -4.219  -0.454  0.00  0.00    -0.080 HD
BRANCH  19  21
ATOM     21  C   UNL     1      -1.832  -4.138   1.572  0.00  0.00    -0.068 C 
ATOM     22  C   UNL     1      -0.784  -4.581   2.595  0.00  0.00    -0.013 C 
BRANCH  21  23
ATOM     23  C   UNL     1      -1.931  -2.611   1.571  0.00  0.00    -0.031 C 
ATOM     24  C   UNL     1      -3.071  -2.174   0.649  0.00  0.00    +0.005 C 
ATOM     25  C   UNL     1      -2.206  -2.118   2.993  0.00  0.00    +0.005 C 
ENDBRANCH  21  23
ENDBRANCH  19  21
BRANCH  19  26
ATOM     26  C   UNL     1      -0.068  -4.165  -0.053  0.00  0.00    -0.042 C 
BRANCH  26  31
ATOM     27  C   UNL     1       1.349  -5.691  -5.444  0.00  0.00    +0.044 C 
ATOM     28  C   UNL     1       0.979  -5.293  -4.038  0.00  0.00    -0.050 A 
ATOM     29  C   UNL     1       1.411  -6.054  -2.968  0.00  0.00    +0.003 A 
ATOM     30  C   UNL     1       1.073  -5.689  -1.678  0.00  0.00    +0.002 A 
ATOM     31  C   UNL     1       0.302  -4.562  -1.459  0.00  0.00    -0.061 A 
ATOM     32  C   UNL     1      -0.129  -3.801  -2.528  0.00  0.00    -0.049 A 
ATOM     33  C   UNL     1       0.213  -4.164  -3.818  0.00  0.00    +0.007 A 
ATOM     34  C   UNL     1      -0.969  -2.573  -2.289  0.00  0.00    +0.044 C 
ENDBRANCH  26  31
ENDBRANCH  19  26
ENDBRANCH   1  19
TORSDOF 9
