REMARK  Name = ZINC40409373
REMARK  7 active torsions:
REMARK  status: ('A' for Active; 'I' for Inactive)
REMARK    1  A    between atoms: C_2  and  C_3
REMARK    2  A    between atoms: C_3  and  N_4
REMARK    3  A    between atoms: N_4  and  C_5
REMARK    4  A    between atoms: N_4  and  C_26
REMARK    5  A    between atoms: C_5  and  C_6
REMARK    6  A    between atoms: C_9  and  C_20
REMARK    7  A    between atoms: C_12  and  C_14
REMARK                            x       y       z     vdW  Elec       q    Type
REMARK                         _______ _______ _______ _____ _____    ______ ____
ROOT
ATOM      1  C   UNL     1       1.165  -2.023  -0.643  0.00  0.00    +0.219 C 
ATOM      2  O   UNL     1       1.256  -0.827  -0.824  0.00  0.00    -0.276 OA
ATOM      3  N   UNL     1       2.250  -2.732  -0.274  0.00  0.00    -0.187 N 
ATOM      4  C   UNL     1       3.597  -2.183  -0.050  0.00  0.00    +0.137 C 
ATOM      5  C   UNL     1       4.429  -3.419   0.348  0.00  0.00    +0.087 C 
ATOM      6  C   UNL     1       3.435  -4.557   0.304  0.00  0.00    +0.069 C 
ATOM      7  N   UNL     1       2.277  -4.105  -0.035  0.00  0.00    -0.181 NA
ENDROOT
BRANCH   6   8
ATOM      8  C   UNL     1       3.742  -5.967   0.608  0.00  0.00    -0.002 A 
ATOM      9  C   UNL     1       5.037  -6.340   0.977  0.00  0.00    +0.010 A 
ATOM     10  C   UNL     1       5.317  -7.661   1.259  0.00  0.00    +0.001 A 
ATOM     11  C   UNL     1       4.319  -8.616   1.177  0.00  0.00    +0.000 A 
ATOM     12  C   UNL     1       3.034  -8.254   0.812  0.00  0.00    +0.001 A 
ATOM     13  C   UNL     1       2.738  -6.936   0.533  0.00  0.00    +0.010 A 
ENDBRANCH   6   8
BRANCH   4  14
ATOM     14  C   UNL     1       4.134  -1.563  -1.314  0.00  0.00    -0.025 A 
ATOM     15  C   UNL     1       3.884  -2.159  -2.536  0.00  0.00    +0.005 A 
ATOM     16  C   UNL     1       4.377  -1.590  -3.695  0.00  0.00    +0.000 A 
ATOM     17  C   UNL     1       5.118  -0.425  -3.633  0.00  0.00    +0.000 A 
ATOM     18  C   UNL     1       5.367   0.171  -2.411  0.00  0.00    +0.000 A 
ATOM     19  C   UNL     1       4.871  -0.395  -1.252  0.00  0.00    +0.005 A 
ENDBRANCH   4  14
BRANCH   1  20
ATOM     20  C   UNL     1      -0.160  -2.715  -0.832  0.00  0.00    +0.021 C 
BRANCH  20  21
ATOM     21  N   UNL     1      -1.201  -1.714  -1.100  0.00  0.00    +0.390 N 
ATOM     22  H   UNL     1      -0.916  -1.131  -1.873  0.00  0.00    -0.080 HD
BRANCH  21  23
ATOM     23  C   UNL     1      -2.459  -2.394  -1.437  0.00  0.00    -0.068 C 
ATOM     24  C   UNL     1      -2.285  -3.216  -2.730  0.00  0.00    -0.015 C 
ATOM     25  C   UNL     1      -3.639  -3.059  -3.466  0.00  0.00    -0.002 C 
ATOM     26  C   UNL     1      -4.016  -1.585  -3.176  0.00  0.00    -0.002 C 
ATOM     27  C   UNL     1      -3.559  -1.357  -1.720  0.00  0.00    -0.015 C 
ENDBRANCH  21  23
BRANCH  21  28
ATOM     28  C   UNL     1      -1.399  -0.881   0.094  0.00  0.00    -0.051 C 
BRANCH  28  30
ATOM     29  C   UNL     1      -0.982  -1.697   2.357  0.00  0.00    +0.002 C 
ATOM     30  C   UNL     1      -1.716  -1.763   1.274  0.00  0.00    -0.053 C 
ENDBRANCH  28  30
ENDBRANCH  21  28
ENDBRANCH  20  21
ENDBRANCH   1  20
TORSDOF 7
