REMARK  Name = ZINC39681533
REMARK  3 active torsions:
REMARK  status: ('A' for Active; 'I' for Inactive)
REMARK    1  A    between atoms: C_1  and  N_2
REMARK    2  A    between atoms: C_3  and  C_5
REMARK    3  A    between atoms: C_16  and  C_18
REMARK                            x       y       z     vdW  Elec       q    Type
REMARK                         _______ _______ _______ _____ _____    ______ ____
ROOT
ATOM      1  C   UNL     1      -1.105  -2.625   0.476  0.00  0.00    +0.100 C 
ATOM      2  C   UNL     1      -0.548  -2.920  -0.934  0.00  0.00    +0.121 C 
ATOM      3  N   UNL     1      -1.387  -4.031  -1.443  0.00  0.00    -0.296 N 
ATOM      4  C   UNL     1      -2.755  -3.704  -0.976  0.00  0.00    +0.115 C 
ATOM      5  C   UNL     1      -2.554  -3.140   0.445  0.00  0.00    -0.004 C 
ATOM      6  C   UNL     1      -3.528  -1.994   0.700  0.00  0.00    -0.010 C 
ATOM      7  C   UNL     1      -4.958  -2.541   0.722  0.00  0.00    -0.082 C 
ATOM      8  N   UNL     1      -5.080  -3.556   1.774  0.00  0.00    +0.379 N 
ATOM      9  C   UNL     1      -4.208  -4.698   1.472  0.00  0.00    -0.082 C 
ATOM     10  C   UNL     1      -2.746  -4.242   1.482  0.00  0.00    -0.010 C 
ATOM     11  C   UNL     1      -0.994  -5.098  -2.167  0.00  0.00    +0.248 C 
ATOM     12  O   UNL     1      -1.820  -5.881  -2.594  0.00  0.00    -0.270 OA
ATOM     13  H   UNL     1      -4.811  -3.154   2.660  0.00  0.00    -0.086 HD
ATOM     14  H   UNL     1      -6.037  -3.871   1.827  0.00  0.00    -0.086 HD
ENDROOT
BRANCH  11  15
ATOM     15  C   UNL     1       0.442  -5.316  -2.441  0.00  0.00    +0.057 A 
ATOM     16  C   UNL     1       1.288  -4.227  -2.656  0.00  0.00    +0.014 A 
ATOM     17  C   UNL     1       2.627  -4.437  -2.912  0.00  0.00    +0.002 A 
ATOM     18  C   UNL     1       3.134  -5.724  -2.956  0.00  0.00    +0.021 A 
ATOM     19  C   UNL     1       2.302  -6.810  -2.744  0.00  0.00    +0.060 A 
ATOM     20  C   UNL     1       0.959  -6.613  -2.481  0.00  0.00    +0.071 A 
ATOM     21 CL   UNL     1      -0.083  -7.975  -2.207  0.00  0.00    -0.081 Cl
ATOM     22 CL   UNL     1       2.947  -8.421  -2.802  0.00  0.00    -0.082 Cl
ENDBRANCH  11  15
BRANCH   1  25
ATOM     23  C   UNL     1      -0.926   0.746   2.281  0.00  0.00    +0.128 C 
ATOM     24  N   UNL     1      -0.950  -0.694   2.015  0.00  0.00    -0.318 N 
ATOM     25  C   UNL     1      -1.081  -1.143   0.751  0.00  0.00    +0.218 C 
ATOM     26  O   UNL     1      -1.180  -0.355  -0.166  0.00  0.00    -0.275 OA
ATOM     27  H   UNL     1      -0.871  -1.324   2.748  0.00  0.00    +0.148 HD
ENDBRANCH   1  25
TORSDOF 2
