REMARK  Name = ZINC02334211
REMARK  7 active torsions:
REMARK  status: ('A' for Active; 'I' for Inactive)
REMARK    1  A    between atoms: C_4  and  N_9
REMARK    2  A    between atoms: C_5  and  C_7
REMARK    3  A    between atoms: N_9  and  N_10
REMARK    4  A    between atoms: C_12  and  C_20
REMARK    5  A    between atoms: N_14  and  C_17
REMARK    6  A    between atoms: C_17  and  N_19
REMARK    7  A    between atoms: C_23  and  N_26
REMARK                            x       y       z     vdW  Elec       q    Type
REMARK                         _______ _______ _______ _____ _____    ______ ____
ROOT
ATOM      1  N   UNL     1      -2.451  -0.551   0.163  0.00  0.00    -0.175 NA
ATOM      2  C   UNL     1      -1.185  -0.915   0.099  0.00  0.00    +0.173 C 
ATOM      3  C   UNL     1       0.007  -0.082   0.361  0.00  0.00    +0.122 C 
ATOM      4  N   UNL     1       1.057  -0.839   0.190  0.00  0.00    -0.168 NA
ATOM      5  N   UNL     1       0.693  -2.135  -0.176  0.00  0.00    -0.134 N 
ATOM      6  C   UNL     1      -0.649  -2.241  -0.251  0.00  0.00    +0.294 C 
ATOM      7  O   UNL     1      -1.288  -3.235  -0.545  0.00  0.00    -0.266 OA
ENDROOT
BRANCH   3   8
ATOM      8  C   UNL     1       0.011   1.348   0.751  0.00  0.00    +0.004 A 
ATOM      9  C   UNL     1       0.335   2.329  -0.185  0.00  0.00    +0.012 A 
ATOM     10  C   UNL     1       0.332   3.658   0.183  0.00  0.00    +0.033 A 
ATOM     11  C   UNL     1       0.018   4.019   1.481  0.00  0.00    +0.126 A 
ATOM     12  C   UNL     1      -0.299   3.050   2.416  0.00  0.00    +0.033 A 
ATOM     13  C   UNL     1      -0.304   1.717   2.059  0.00  0.00    +0.012 A 
BRANCH  11  14
ATOM     14  N   UNL     1       0.021   5.447   1.871  0.00  0.00    +0.056 N 
ATOM     15  O   UNL     1      -0.255   5.766   3.014  0.00  0.00    -0.126 OA
ATOM     16  O   UNL     1       0.300   6.302   1.050  0.00  0.00    -0.126 OA
ENDBRANCH  11  14
ENDBRANCH   3   8
BRANCH   1  17
ATOM     17  N   UNL     1      -2.758   0.697   0.278  0.00  0.00    -0.236 N 
ATOM     18  H   UNL     1      -2.064   1.373   0.228  0.00  0.00    +0.174 HD
BRANCH  17  22
ATOM     19  C   UNL     1      -6.728   1.818   0.866  0.00  0.00    +0.001 A 
ATOM     20  C   UNL     1      -6.372   0.478   0.869  0.00  0.00    +0.002 A 
ATOM     21  C   UNL     1      -5.058   0.104   0.674  0.00  0.00    +0.025 A 
ATOM     22  C   UNL     1      -4.081   1.071   0.474  0.00  0.00    +0.062 A 
ATOM     23  C   UNL     1      -4.438   2.429   0.477  0.00  0.00    +0.086 A 
ATOM     24  C   UNL     1      -5.773   2.792   0.669  0.00  0.00    +0.017 A 
BRANCH  23  25
ATOM     25  C   UNL     1      -3.410   3.466   0.272  0.00  0.00    +0.388 C 
ATOM     26  O   UNL     1      -2.276   3.147  -0.028  0.00  0.00    -0.241 OA
ATOM     27  O   UNL     1      -3.727   4.768   0.417  0.00  0.00    -0.241 OA
ENDBRANCH  23  25
ENDBRANCH  17  22
ENDBRANCH   1  17
BRANCH   5  28
ATOM     28  C   UNL     1       1.559  -3.138  -0.420  0.00  0.00    +0.158 C 
ATOM     29  S   UNL     1       0.975  -4.685  -0.862  0.00  0.00    -0.017 S 
BRANCH  28  30
ATOM     30  N   UNL     1       2.886  -2.922  -0.317  0.00  0.00    -0.339 N 
ATOM     31  H   UNL     1       3.217  -2.046  -0.066  0.00  0.00    +0.144 HD
ATOM     32  H   UNL     1       3.510  -3.644  -0.492  0.00  0.00    +0.144 HD
ENDBRANCH  28  30
ENDBRANCH   5  28
TORSDOF 7
