REMARK  Name = ZINC04761476
REMARK  11 active torsions:
REMARK  status: ('A' for Active; 'I' for Inactive)
REMARK    1  A    between atoms: C_1  and  C_2
REMARK    2  A    between atoms: C_2  and  C_3
REMARK    3  A    between atoms: C_8  and  N_9
REMARK    4  A    between atoms: C_10  and  C_12
REMARK    5  A    between atoms: C_12  and  S_13
REMARK    6  A    between atoms: S_13  and  C_14
REMARK    7  A    between atoms: C_15  and  C_35
REMARK    8  A    between atoms: C_16  and  C_26
REMARK    9  A    between atoms: C_29  and  O_34
REMARK   10  A    between atoms: C_30  and  O_32
REMARK   11  A    between atoms: O_32  and  C_33
REMARK                            x       y       z     vdW  Elec       q    Type
REMARK                         _______ _______ _______ _____ _____    ______ ____
ROOT
ATOM      1  C   UNL     1       7.468  -0.242   2.430  0.00  0.00    +0.080 C 
ATOM      2  C   UNL     1       8.810  -0.407   2.573  0.00  0.00    +0.069 C 
ATOM      3  C   UNL     1       9.492  -0.114   3.877  0.00  0.00    +0.097 C 
ATOM      4  C   UNL     1       8.499  -0.068   5.011  0.00  0.00    +0.024 C 
ATOM      5  C   UNL     1       7.179   0.087   4.773  0.00  0.00    +0.016 C 
ATOM      6  N   UNL     1       6.710   0.198   3.490  0.00  0.00    -0.311 N 
ATOM      7  C   UNL     1       6.187   0.153   5.908  0.00  0.00    +0.051 C 
ATOM      8  C   UNL     1       6.689  -0.695   7.079  0.00  0.00    +0.014 C 
ATOM      9  C   UNL     1       8.062  -0.167   7.508  0.00  0.00    +0.080 C 
ATOM     10  C   UNL     1       8.989  -0.192   6.323  0.00  0.00    +0.162 C 
ATOM     11  O   UNL     1      10.183  -0.324   6.504  0.00  0.00    -0.292 OA
ATOM     12  H   UNL     1       5.836   0.587   3.328  0.00  0.00    +0.152 HD
ENDROOT
BRANCH   3  13
ATOM     13  C   UNL     1      10.192   1.218   3.780  0.00  0.00    -0.031 A 
ATOM     14  C   UNL     1       9.463   2.363   3.518  0.00  0.00    +0.008 A 
ATOM     15  C   UNL     1      10.100   3.586   3.428  0.00  0.00    +0.049 A 
ATOM     16  C   UNL     1      11.473   3.666   3.602  0.00  0.00    +0.158 A 
ATOM     17  C   UNL     1      12.206   2.514   3.866  0.00  0.00    +0.162 A 
ATOM     18  C   UNL     1      11.560   1.292   3.960  0.00  0.00    +0.054 A 
BRANCH  17  19
ATOM     19  O   UNL     1      13.553   2.588   4.037  0.00  0.00    -0.491 OA
ATOM     20  C   UNL     1      14.241   1.364   4.306  0.00  0.00    +0.277 C 
ENDBRANCH  17  19
BRANCH  16  21
ATOM     21  O   UNL     1      12.101   4.869   3.513  0.00  0.00    -0.503 OA
ATOM     22  H   UNL     1      12.166   5.342   4.354  0.00  0.00    +0.292 HD
ENDBRANCH  16  21
ENDBRANCH   3  13
BRANCH   2  23
ATOM     23  C   UNL     1       9.586  -0.868   1.461  0.00  0.00    +0.098 C 
ATOM     24  N   UNL     1      10.201  -1.234   0.579  0.00  0.00    -0.191 NA
ENDBRANCH   2  23
BRANCH   1  25
ATOM     25  S   UNL     1       6.699  -0.586   0.882  0.00  0.00    -0.100 S 
BRANCH  25  26
ATOM     26  C   UNL     1       4.947  -0.219   1.171  0.00  0.00    +0.171 C 
BRANCH  26  28
ATOM     27  N   UNL     1       2.833  -0.268  -0.113  0.00  0.00    -0.285 N 
ATOM     28  C   UNL     1       4.165  -0.474  -0.091  0.00  0.00    +0.227 C 
ATOM     29  O   UNL     1       4.734  -0.865  -1.088  0.00  0.00    -0.275 OA
ATOM     30  H   UNL     1       2.388   0.106   0.663  0.00  0.00    +0.155 HD
BRANCH  27  36
ATOM     31  C   UNL     1       0.800  -1.084  -1.129  0.00  0.00    -0.026 A 
ATOM     32  C   UNL     1       0.070  -1.399  -2.258  0.00  0.00    +0.005 A 
ATOM     33  C   UNL     1       0.627  -1.234  -3.513  0.00  0.00    +0.000 A 
ATOM     34  C   UNL     1       1.917  -0.751  -3.641  0.00  0.00    +0.002 A 
ATOM     35  C   UNL     1       2.652  -0.433  -2.516  0.00  0.00    +0.023 A 
ATOM     36  C   UNL     1       2.093  -0.594  -1.255  0.00  0.00    +0.037 A 
BRANCH  31  38
ATOM     37  C   UNL     1      -0.422   0.058   0.702  0.00  0.00    +0.009 C 
ATOM     38  C   UNL     1       0.191  -1.265   0.238  0.00  0.00    +0.033 C 
ENDBRANCH  31  38
ENDBRANCH  27  36
ENDBRANCH  26  28
ENDBRANCH  25  26
ENDBRANCH   1  25
TORSDOF 9
