REMARK  Name = ZINC53840509
REMARK  8 active torsions:
REMARK  status: ('A' for Active; 'I' for Inactive)
REMARK    1  A    between atoms: C_1  and  C_2
REMARK    2  A    between atoms: C_2  and  C_4
REMARK    3  A    between atoms: C_2  and  N_10
REMARK    4  A    between atoms: C_14  and  S_15
REMARK    5  A    between atoms: S_15  and  C_16
REMARK    6  A    between atoms: C_16  and  C_17
REMARK    7  A    between atoms: N_23  and  C_24
REMARK    8  A    between atoms: N_23  and  C_25
REMARK                            x       y       z     vdW  Elec       q    Type
REMARK                         _______ _______ _______ _____ _____    ______ ____
ROOT
ATOM      1  S   UNL     1      -1.176  -1.941   2.410  0.00  0.00    -0.078 S 
ENDROOT
BRANCH   1   6
ATOM      2  N   UNL     1      -1.372  -0.511   0.012  0.00  0.00    -0.301 N 
ATOM      3  C   UNL     1      -2.343  -0.285  -0.924  0.00  0.00    +0.226 A 
ATOM      4  N   UNL     1      -3.413  -0.918  -0.534  0.00  0.00    -0.137 NA
ATOM      5  N   UNL     1      -3.188  -1.523   0.577  0.00  0.00    -0.123 NA
ATOM      6  C   UNL     1      -1.948  -1.312   0.956  0.00  0.00    +0.192 A 
BRANCH   2   8
ATOM      7  C   UNL     1      -0.019   1.526   0.010  0.00  0.00    +0.036 C 
ATOM      8  C   UNL     1       0.002  -0.004   0.002  0.00  0.00    +0.117 C 
BRANCH   8   9
ATOM      9  C   UNL     1       0.707  -0.490  -1.238  0.00  0.00    -0.025 A 
ATOM     10  C   UNL     1       0.222  -0.151  -2.487  0.00  0.00    +0.005 A 
ATOM     11  C   UNL     1       0.869  -0.597  -3.624  0.00  0.00    +0.000 A 
ATOM     12  C   UNL     1       2.002  -1.381  -3.513  0.00  0.00    +0.000 A 
ATOM     13  C   UNL     1       2.488  -1.720  -2.263  0.00  0.00    +0.000 A 
ATOM     14  C   UNL     1       1.843  -1.270  -1.126  0.00  0.00    +0.005 A 
ENDBRANCH   8   9
ENDBRANCH   2   8
ENDBRANCH   1   6
BRANCH   1  15
ATOM     15  C   UNL     1      -2.478  -2.917   3.211  0.00  0.00    +0.153 C 
BRANCH  15  16
ATOM     16  C   UNL     1      -1.942  -3.519   4.485  0.00  0.00    +0.146 A 
ATOM     17  N   UNL     1      -1.365  -4.708   4.460  0.00  0.00    -0.199 NA
ATOM     18  C   UNL     1      -0.890  -5.243   5.582  0.00  0.00    +0.217 A 
ATOM     19  N   UNL     1      -0.998  -4.580   6.729  0.00  0.00    -0.181 NA
ATOM     20  C   UNL     1      -1.578  -3.386   6.750  0.00  0.00    +0.222 A 
ATOM     21  N   UNL     1      -2.046  -2.855   5.622  0.00  0.00    -0.198 NA
ATOM     22  N   UNL     1      -1.692  -2.694   7.939  0.00  0.00    -0.306 N 
ATOM     23  C   UNL     1      -1.173  -3.276   9.178  0.00  0.00    +0.132 C 
ATOM     24  C   UNL     1      -2.333  -1.377   7.961  0.00  0.00    +0.132 C 
ATOM     25  N   UNL     1      -0.288  -6.484   5.555  0.00  0.00    -0.327 N 
ATOM     26  H   UNL     1      -0.211  -6.968   4.718  0.00  0.00    +0.145 HD
ATOM     27  H   UNL     1       0.057  -6.873   6.374  0.00  0.00    +0.145 HD
ENDBRANCH  15  16
ENDBRANCH   1  15
TORSDOF 5
