REMARK  Name = ZINC06278147
REMARK  9 active torsions:
REMARK  status: ('A' for Active; 'I' for Inactive)
REMARK    1  A    between atoms: C_1  and  C_2
REMARK    2  A    between atoms: C_5  and  C_9
REMARK    3  A    between atoms: C_7  and  C_8
REMARK    4  A    between atoms: N_11  and  C_12
REMARK    5  A    between atoms: C_13  and  C_26
REMARK    6  A    between atoms: C_18  and  C_22
REMARK    7  A    between atoms: C_22  and  C_23
REMARK    8  A    between atoms: C_22  and  C_24
REMARK    9  A    between atoms: C_22  and  C_25
REMARK                            x       y       z     vdW  Elec       q    Type
REMARK                         _______ _______ _______ _____ _____    ______ ____
ROOT
ATOM      1  C   UNL     1       0.079  -6.304  -1.200  0.00  0.00    +0.085 A 
ATOM      2  C   UNL     1       0.090  -7.150  -2.298  0.00  0.00    +0.068 A 
ATOM      3  C   UNL     1       0.109  -8.578  -2.035  0.00  0.00    -0.023 A 
ATOM      4  C   UNL     1       0.114  -8.899  -0.723  0.00  0.00    -0.004 A 
ATOM      5  S   UNL     1       0.100  -7.343   0.119  0.00  0.00    -0.077 S 
ATOM      6  C   UNL     1       0.135 -10.275  -0.133  0.00  0.00    +0.046 C 
ATOM      7  C   UNL     1       0.529 -11.267  -1.238  0.00  0.00    -0.000 C 
ATOM      8  C   UNL     1      -0.311 -10.980  -2.485  0.00  0.00    +0.009 C 
ATOM      9  C   UNL     1       0.122  -9.653  -3.112  0.00  0.00    +0.037 C 
ENDROOT
BRANCH   2  10
ATOM     10  C   UNL     1       0.082  -6.625  -3.667  0.00  0.00    +0.244 C 
ATOM     11  O   UNL     1       1.132  -6.393  -4.236  0.00  0.00    -0.270 OA
ATOM     12  N   UNL     1      -1.089  -6.399  -4.295  0.00  0.00    -0.325 N 
ATOM     13  H   UNL     1      -1.927  -6.584  -3.842  0.00  0.00    +0.145 HD
ATOM     14  H   UNL     1      -1.095  -6.052  -5.201  0.00  0.00    +0.145 HD
ENDBRANCH   2  10
BRANCH   1  17
ATOM     15  C   UNL     1       0.058  -4.251  -0.021  0.00  0.00    +0.249 C 
ATOM     16  O   UNL     1       0.071  -4.864   1.028  0.00  0.00    -0.270 OA
ATOM     17  N   UNL     1       0.061  -4.918  -1.192  0.00  0.00    -0.275 N 
ATOM     18  H   UNL     1       0.050  -4.429  -2.030  0.00  0.00    +0.156 HD
BRANCH  15  23
ATOM     19  C   UNL     1      -0.018   1.503   0.010  0.00  0.00    +0.044 C 
ATOM     20  C   UNL     1       0.002  -0.004   0.002  0.00  0.00    -0.047 A 
ATOM     21  C   UNL     1       0.006  -0.686  -1.202  0.00  0.00    +0.004 A 
ATOM     22  C   UNL     1       0.024  -2.065  -1.217  0.00  0.00    +0.013 A 
ATOM     23  C   UNL     1       0.039  -2.773  -0.013  0.00  0.00    +0.037 A 
ATOM     24  C   UNL     1       0.036  -2.079   1.198  0.00  0.00    +0.016 A 
ATOM     25  C   UNL     1       0.023  -0.699   1.198  0.00  0.00    -0.047 A 
ATOM     26  C   UNL     1       0.025   0.052   2.504  0.00  0.00    +0.044 C 
ENDBRANCH  15  23
ENDBRANCH   1  17
BRANCH   7  27
ATOM     27  C   UNL     1       0.270 -12.697  -0.759  0.00  0.00    -0.035 C 
ATOM     28  C   UNL     1      -1.215 -12.863  -0.432  0.00  0.00    +0.011 C 
ATOM     29  C   UNL     1       0.664 -13.683  -1.860  0.00  0.00    +0.011 C 
ATOM     30  C   UNL     1       1.102 -12.973   0.495  0.00  0.00    +0.011 C 
ENDBRANCH   7  27
TORSDOF 4
