REMARK  Name = ZINC35968585
REMARK  8 active torsions:
REMARK  status: ('A' for Active; 'I' for Inactive)
REMARK    1  A    between atoms: C_2  and  C_3
REMARK    2  A    between atoms: C_3  and  N_4
REMARK    3  A    between atoms: C_7  and  C_12
REMARK    4  A    between atoms: N_21  and  C_23
REMARK    5  A    between atoms: C_23  and  C_25
REMARK    6  A    between atoms: C_23  and  C_31
REMARK    7  A    between atoms: N_33  and  C_34
REMARK    8  A    between atoms: C_34  and  C_35
REMARK                            x       y       z     vdW  Elec       q    Type
REMARK                         _______ _______ _______ _____ _____    ______ ____
ROOT
ATOM      1  N   UNL     1      -1.861  -3.011  -2.086  0.00  0.00    -0.253 N 
ATOM      2  C   UNL     1      -2.014  -1.999  -2.990  0.00  0.00    +0.043 C 
ATOM      3  C   UNL     1      -1.036  -1.691  -3.866  0.00  0.00    +0.058 C 
ATOM      4  C   UNL     1       0.240  -2.506  -3.813  0.00  0.00    +0.142 C 
ATOM      5  N   UNL     1       0.307  -3.575  -2.802  0.00  0.00    -0.288 N 
ATOM      6  C   UNL     1      -0.754  -3.759  -1.992  0.00  0.00    +0.307 C 
ATOM      7  O   UNL     1      -0.706  -4.636  -1.151  0.00  0.00    -0.252 OA
ATOM      8  C   UNL     1      -1.435  -0.617  -4.688  0.00  0.00    +0.247 C 
ATOM      9  O   UNL     1      -0.748  -0.132  -5.568  0.00  0.00    -0.270 OA
ATOM     10  N   UNL     1      -2.675  -0.198  -4.373  0.00  0.00    -0.277 N 
ATOM     11  C   UNL     1      -3.151  -1.041  -3.266  0.00  0.00    +0.160 C 
ATOM     12  H   UNL     1       1.097  -4.131  -2.720  0.00  0.00    +0.151 HD
ENDROOT
BRANCH   4  13
ATOM     13  C   UNL     1       0.446  -3.134  -5.167  0.00  0.00    -0.022 A 
ATOM     14  C   UNL     1      -0.256  -4.274  -5.514  0.00  0.00    +0.008 A 
ATOM     15  C   UNL     1      -0.068  -4.851  -6.756  0.00  0.00    +0.038 A 
ATOM     16  C   UNL     1       0.824  -4.287  -7.653  0.00  0.00    +0.123 A 
ATOM     17  C   UNL     1       1.526  -3.146  -7.304  0.00  0.00    +0.038 A 
ATOM     18  C   UNL     1       1.333  -2.568  -6.064  0.00  0.00    +0.008 A 
ATOM     19  F   UNL     1       1.009  -4.851  -8.867  0.00  0.00    -0.205 F 
ENDBRANCH   4  13
BRANCH   1  20
ATOM     20  C   UNL     1      -2.965  -3.289  -1.164  0.00  0.00    +0.141 C 
BRANCH  20  22
ATOM     21  C   UNL     1      -3.767  -1.675   0.483  0.00  0.00    +0.005 C 
ATOM     22  C   UNL     1      -2.798  -2.461   0.084  0.00  0.00    -0.015 C 
ENDBRANCH  20  22
ENDBRANCH   1  20
BRANCH  10  23
ATOM     23  C   UNL     1      -3.412   0.894  -5.014  0.00  0.00    +0.193 C 
BRANCH  23  24
ATOM     24  C   UNL     1      -4.740   0.381  -5.508  0.00  0.00    -0.018 A 
ATOM     25  C   UNL     1      -5.621  -0.218  -4.626  0.00  0.00    +0.006 A 
ATOM     26  C   UNL     1      -6.839  -0.689  -5.079  0.00  0.00    +0.000 A 
ATOM     27  C   UNL     1      -7.177  -0.559  -6.414  0.00  0.00    +0.000 A 
ATOM     28  C   UNL     1      -6.297   0.040  -7.295  0.00  0.00    +0.000 A 
ATOM     29  C   UNL     1      -5.080   0.515  -6.841  0.00  0.00    +0.006 A 
ENDBRANCH  23  24
BRANCH  23  30
ATOM     30  C   UNL     1      -3.640   1.999  -4.015  0.00  0.00    +0.238 C 
ATOM     31  O   UNL     1      -3.228   1.886  -2.880  0.00  0.00    -0.273 OA
ATOM     32  N   UNL     1      -4.303   3.114  -4.383  0.00  0.00    -0.306 N 
ATOM     33  H   UNL     1      -4.633   3.204  -5.291  0.00  0.00    +0.149 HD
BRANCH  32  34
ATOM     34  C   UNL     1      -4.525   4.188  -3.413  0.00  0.00    +0.178 C 
BRANCH  34  35
ATOM     35  C   UNL     1      -5.283   5.311  -4.072  0.00  0.00    +0.122 A 
ATOM     36  C   UNL     1      -6.622   5.438  -4.114  0.00  0.00    +0.046 A 
ATOM     37  C   UNL     1      -6.898   6.628  -4.826  0.00  0.00    +0.041 A 
ATOM     38  C   UNL     1      -5.712   7.158  -5.176  0.00  0.00    +0.195 A 
ATOM     39  O   UNL     1      -4.737   6.359  -4.711  0.00  0.00    -0.466 OA
ENDBRANCH  34  35
ENDBRANCH  32  34
ENDBRANCH  23  30
ENDBRANCH  10  23
TORSDOF 8
