REMARK  Name = ZINC00650347
REMARK  13 active torsions:
REMARK  status: ('A' for Active; 'I' for Inactive)
REMARK    1  A    between atoms: C_1  and  C_2
REMARK    2  A    between atoms: C_3  and  C_34
REMARK    3  A    between atoms: C_4  and  C_25
REMARK    4  A    between atoms: C_10  and  C_15
REMARK    5  A    between atoms: C_18  and  O_23
REMARK    6  A    between atoms: C_19  and  O_21
REMARK    7  A    between atoms: O_21  and  C_22
REMARK    8  A    between atoms: O_23  and  C_24
REMARK    9  A    between atoms: C_28  and  O_33
REMARK   10  A    between atoms: C_29  and  O_31
REMARK   11  A    between atoms: O_31  and  C_32
REMARK   12  A    between atoms: C_34  and  O_36
REMARK   13  A    between atoms: O_36  and  C_37
REMARK                            x       y       z     vdW  Elec       q    Type
REMARK                         _______ _______ _______ _____ _____    ______ ____
ROOT
ATOM      1  C   UNL     1      -1.132   3.091  -3.104  0.00  0.00    +0.061 C 
ATOM      2  C   UNL     1      -0.337   2.622  -1.912  0.00  0.00    +0.016 C 
ATOM      3  C   UNL     1      -0.772   1.575  -1.190  0.00  0.00    +0.065 C 
ATOM      4  C   UNL     1      -0.013   1.086   0.008  0.00  0.00    +0.092 C 
ATOM      5  C   UNL     1       1.405   1.600  -0.003  0.00  0.00    +0.024 C 
ATOM      6  C   UNL     1       1.752   2.648  -0.779  0.00  0.00    +0.016 C 
ATOM      7  N   UNL     1       0.821   3.263  -1.573  0.00  0.00    -0.321 N 
ATOM      8  C   UNL     1       3.168   3.167  -0.798  0.00  0.00    +0.059 C 
ATOM      9  C   UNL     1       3.820   2.932   0.567  0.00  0.00    +0.032 C 
ATOM     10  C   UNL     1       3.778   1.432   0.874  0.00  0.00    +0.088 C 
ATOM     11  C   UNL     1       2.351   0.960   0.818  0.00  0.00    +0.162 C 
ATOM     12  O   UNL     1       2.009   0.010   1.493  0.00  0.00    -0.292 OA
ATOM     13  H   UNL     1       1.012   4.283  -1.938  0.00  0.00    +0.152 HD
ENDROOT
BRANCH   9  14
ATOM     14  C   UNL     1       5.251   3.403   0.532  0.00  0.00    -0.040 A 
ATOM     15  C   UNL     1       6.136   2.853  -0.376  0.00  0.00    +0.008 A 
ATOM     16  C   UNL     1       7.450   3.281  -0.412  0.00  0.00    +0.049 A 
ATOM     17  C   UNL     1       7.883   4.263   0.465  0.00  0.00    +0.161 A 
ATOM     18  C   UNL     1       6.992   4.816   1.379  0.00  0.00    +0.162 A 
ATOM     19  C   UNL     1       5.675   4.387   1.406  0.00  0.00    +0.053 A 
BRANCH  18  20
ATOM     20  O   UNL     1       7.412   5.780   2.242  0.00  0.00    -0.491 OA
ATOM     21  C   UNL     1       6.443   6.302   3.153  0.00  0.00    +0.277 C 
ENDBRANCH  18  20
BRANCH  17  22
ATOM     22  O   UNL     1       9.175   4.685   0.431  0.00  0.00    -0.491 OA
ATOM     23  C   UNL     1      10.033   4.072  -0.533  0.00  0.00    +0.277 C 
ENDBRANCH  17  22
ENDBRANCH   9  14
BRANCH   4  24
ATOM     24  C   UNL     1      -0.703   1.564   1.259  0.00  0.00    -0.032 A 
ATOM     25  C   UNL     1      -0.846   2.919   1.493  0.00  0.00    +0.008 A 
ATOM     26  C   UNL     1      -1.478   3.363   2.639  0.00  0.00    +0.049 A 
ATOM     27  C   UNL     1      -1.971   2.449   3.557  0.00  0.00    +0.158 A 
ATOM     28  C   UNL     1      -1.828   1.085   3.321  0.00  0.00    +0.162 A 
ATOM     29  C   UNL     1      -1.198   0.647   2.168  0.00  0.00    +0.054 A 
BRANCH  28  30
ATOM     30  O   UNL     1      -2.311   0.184   4.218  0.00  0.00    -0.491 OA
ATOM     31  C   UNL     1      -2.128  -1.199   3.910  0.00  0.00    +0.277 C 
ENDBRANCH  28  30
BRANCH  27  32
ATOM     32  O   UNL     1      -2.594   2.884   4.685  0.00  0.00    -0.503 OA
ATOM     33  H   UNL     1      -2.986   2.158   5.412  0.00  0.00    +0.292 HD
ENDBRANCH  27  32
ENDBRANCH   4  24
BRANCH   3  34
ATOM     34  C   UNL     1      -1.969   0.922  -1.567  0.00  0.00    +0.338 C 
ATOM     35  O   UNL     1      -2.594   1.309  -2.536  0.00  0.00    -0.245 OA
BRANCH  34  36
ATOM     36  O   UNL     1      -2.418  -0.131  -0.851  0.00  0.00    -0.458 OA
BRANCH  36  37
ATOM     37  C   UNL     1      -3.633  -0.742  -1.288  0.00  0.00    +0.177 C 
ATOM     38  C   UNL     1      -4.835  -0.117  -0.549  0.00  0.00    +0.044 C 
ATOM     39  C   UNL     1      -5.796  -1.308  -0.313  0.00  0.00    +0.004 C 
ATOM     40  C   UNL     1      -4.827  -2.471   0.012  0.00  0.00    +0.004 C 
ATOM     41  C   UNL     1      -3.628  -2.239  -0.931  0.00  0.00    +0.044 C 
ENDBRANCH  36  37
ENDBRANCH  34  36
ENDBRANCH   3  34
TORSDOF 9
