REMARK  Name = ZINC63187672
REMARK  9 active torsions:
REMARK  status: ('A' for Active; 'I' for Inactive)
REMARK    1  A    between atoms: C_1  and  C_2
REMARK    2  A    between atoms: C_5  and  N_9
REMARK    3  A    between atoms: C_10  and  C_37
REMARK    4  A    between atoms: C_13  and  C_16
REMARK    5  A    between atoms: C_14  and  C_15
REMARK    6  A    between atoms: C_16  and  C_18
REMARK    7  A    between atoms: C_18  and  N_19
REMARK    8  A    between atoms: C_22  and  C_27
REMARK    9  A    between atoms: C_27  and  C_28
REMARK                            x       y       z     vdW  Elec       q    Type
REMARK                         _______ _______ _______ _____ _____    ______ ____
ROOT
ATOM      1  N   UNL     1      -0.061  -9.596  -2.581  0.00  0.00    -0.217 N 
ATOM      2  C   UNL     1      -1.215 -10.062  -3.098  0.00  0.00    +0.244 C 
ATOM      3  O   UNL     1      -2.337  -9.850  -2.692  0.00  0.00    -0.273 OA
ATOM      4  C   UNL     1      -0.818 -10.905  -4.294  0.00  0.00    +0.165 C 
ATOM      5  N   UNL     1       0.652 -10.807  -4.314  0.00  0.00    -0.287 N 
ATOM      6  C   UNL     1       0.999 -10.019  -3.280  0.00  0.00    +0.310 C 
ATOM      7  O   UNL     1       2.147  -9.727  -3.009  0.00  0.00    -0.252 OA
ATOM      8  H   UNL     1       1.252 -11.226  -4.950  0.00  0.00    +0.151 HD
ENDROOT
BRANCH   1   9
ATOM      9  C   UNL     1       0.023  -8.729  -1.404  0.00  0.00    +0.197 C 
BRANCH   9  10
ATOM     10  C   UNL     1      -0.043  -7.287  -1.836  0.00  0.00    +0.178 C 
ATOM     11  O   UNL     1      -0.149  -7.010  -3.015  0.00  0.00    -0.291 OA
BRANCH  10  15
ATOM     12  N   UNL     1       0.051  -4.170  -0.022  0.00  0.00    -0.300 N 
ATOM     13  C   UNL     1       0.170  -5.019   1.170  0.00  0.00    +0.080 C 
ATOM     14  C   UNL     1       0.151  -6.457   0.617  0.00  0.00    +0.062 C 
ATOM     15  C   UNL     1       0.019  -6.264  -0.879  0.00  0.00    +0.015 C 
ATOM     16  C   UNL     1      -0.034  -4.941  -1.133  0.00  0.00    +0.015 C 
ATOM     17  C   UNL     1      -0.172  -4.373  -2.522  0.00  0.00    +0.061 C 
ATOM     18  C   UNL     1       1.487  -4.740   1.897  0.00  0.00    +0.029 C 
BRANCH  12  23
ATOM     19  C   UNL     1      -0.063   1.502   0.024  0.00  0.00    +0.047 C 
ATOM     20  C   UNL     1      -0.032  -0.005   0.011  0.00  0.00    -0.015 A 
ATOM     21  C   UNL     1      -1.056  -0.721   0.603  0.00  0.00    +0.008 A 
ATOM     22  C   UNL     1      -1.031  -2.101   0.594  0.00  0.00    +0.024 A 
ATOM     23  C   UNL     1       0.024  -2.773  -0.012  0.00  0.00    +0.037 A 
ATOM     24  C   UNL     1       1.051  -2.053  -0.607  0.00  0.00    +0.062 A 
ATOM     25  C   UNL     1       1.019  -0.669  -0.599  0.00  0.00    +0.128 A 
ATOM     26  F   UNL     1       2.015   0.033  -1.181  0.00  0.00    -0.205 F 
ENDBRANCH  12  23
ENDBRANCH  10  15
ENDBRANCH   9  10
ENDBRANCH   1   9
BRANCH   4  27
ATOM     27  C   UNL     1      -1.417 -10.331  -5.580  0.00  0.00    +0.065 C 
BRANCH  27  28
ATOM     28  C   UNL     1      -1.110 -11.252  -6.732  0.00  0.00    -0.039 C 
ATOM     29  C   UNL     1      -1.907 -12.225  -7.229  0.00  0.00    -0.001 A 
ATOM     30  C   UNL     1      -3.247 -12.699  -6.860  0.00  0.00    +0.010 A 
ATOM     31  C   UNL     1      -3.799 -13.716  -7.560  0.00  0.00    +0.001 A 
ATOM     32  C   UNL     1      -3.125 -14.328  -8.626  0.00  0.00    +0.002 A 
ATOM     33  C   UNL     1      -1.892 -13.948  -9.024  0.00  0.00    +0.026 A 
ATOM     34  C   UNL     1      -1.217 -12.887  -8.359  0.00  0.00    +0.043 A 
ATOM     35  N   UNL     1      -0.039 -12.345  -8.553  0.00  0.00    -0.380 N 
ATOM     36  C   UNL     1       0.149 -11.272  -7.570  0.00  0.00    +0.144 C 
ATOM     37  H   UNL     1       0.599 -12.607  -9.234  0.00  0.00    +0.160 HD
ENDBRANCH  27  28
ENDBRANCH   4  27
TORSDOF 6
