REMARK  Name = ZINC38598436
REMARK  6 active torsions:
REMARK  status: ('A' for Active; 'I' for Inactive)
REMARK    1  A    between atoms: C_1  and  C_2
REMARK    2  A    between atoms: C_4  and  C_25
REMARK    3  A    between atoms: C_30  and  O_31
REMARK    4  A    between atoms: O_31  and  C_32
REMARK    5  A    between atoms: C_32  and  C_33
REMARK    6  A    between atoms: C_32  and  C_34
REMARK                            x       y       z     vdW  Elec       q    Type
REMARK                         _______ _______ _______ _____ _____    ______ ____
ROOT
ATOM      1  C   UNL     1      -0.008   1.354  -0.240  0.00  0.00    +0.062 C 
ATOM      2  C   UNL     1      -0.076  -0.151  -0.243  0.00  0.00    +0.023 C 
ATOM      3  C   UNL     1      -1.188  -0.843  -0.034  0.00  0.00    +0.005 C 
ATOM      4  C   UNL     1      -2.525  -0.251   0.241  0.00  0.00    +0.111 C 
ATOM      5  S   UNL     1      -3.094  -0.581   1.918  0.00  0.00    -0.139 S 
ATOM      6  C   UNL     1      -3.402  -2.354   1.993  0.00  0.00    +0.165 C 
ATOM      7  C   UNL     1      -2.154  -3.144   1.819  0.00  0.00    +0.225 C 
ATOM      8  O   UNL     1      -2.079  -4.077   2.590  0.00  0.00    -0.275 OA
ATOM      9  N   UNL     1      -1.142  -3.064   1.040  0.00  0.00    -0.291 N 
ATOM     10  C   UNL     1      -0.821  -2.298  -0.126  0.00  0.00    +0.210 C 
ATOM     11  N   UNL     1       0.624  -2.318  -0.400  0.00  0.00    -0.213 N 
ATOM     12  N   UNL     1       1.010  -0.972  -0.471  0.00  0.00    -0.265 N 
ATOM     13  C   UNL     1       1.411  -3.402  -0.554  0.00  0.00    +0.150 C 
ATOM     14  N   UNL     1       0.918  -4.625  -0.473  0.00  0.00    -0.221 NA
ATOM     15  C   UNL     1       1.656  -5.727  -0.553  0.00  0.00    +0.225 C 
ATOM     16  N   UNL     1       2.976  -5.713  -0.403  0.00  0.00    -0.218 NA
ATOM     17  C   UNL     1       3.531  -4.517  -0.235  0.00  0.00    +0.164 C 
ATOM     18  N   UNL     1       4.567  -4.079   0.415  0.00  0.00    -0.219 NA
ATOM     19  C   UNL     1       4.513  -2.750   0.579  0.00  0.00    +0.218 C 
ATOM     20  N   UNL     1       3.538  -2.191  -0.083  0.00  0.00    -0.253 NA
ATOM     21  C   UNL     1       2.884  -3.265  -0.833  0.00  0.00    +0.239 C 
ATOM     22  H   UNL     1      -0.425  -3.662   1.301  0.00  0.00    +0.151 HD
ATOM     23  H   UNL     1       1.911  -0.662  -0.652  0.00  0.00    +0.170 HD
ENDROOT
BRANCH   4  24
ATOM     24  C   UNL     1      -2.448   1.241   0.040  0.00  0.00    +0.011 A 
ATOM     25  C   UNL     1      -2.232   2.075   1.120  0.00  0.00    +0.008 A 
ATOM     26  C   UNL     1      -2.162   3.443   0.936  0.00  0.00    +0.001 A 
ATOM     27  C   UNL     1      -2.307   3.981  -0.330  0.00  0.00    +0.004 A 
ATOM     28  C   UNL     1      -2.522   3.152  -1.413  0.00  0.00    +0.046 A 
ATOM     29  C   UNL     1      -2.588   1.778  -1.232  0.00  0.00    +0.125 A 
BRANCH  29  30
ATOM     30  O   UNL     1      -2.794   0.960  -2.297  0.00  0.00    -0.489 OA
BRANCH  30  31
ATOM     31  C   UNL     1      -2.851   1.574  -3.586  0.00  0.00    +0.167 C 
ATOM     32  C   UNL     1      -1.431   1.778  -4.117  0.00  0.00    +0.051 C 
ATOM     33  C   UNL     1      -3.631   0.674  -4.546  0.00  0.00    +0.051 C 
ENDBRANCH  30  31
ENDBRANCH  29  30
ENDBRANCH   4  24
TORSDOF 3
