REMARK  Name = ZINC33763424
REMARK  7 active torsions:
REMARK  status: ('A' for Active; 'I' for Inactive)
REMARK    1  A    between atoms: C_1  and  C_2
REMARK    2  A    between atoms: C_7  and  N_8
REMARK    3  A    between atoms: C_9  and  C_11
REMARK    4  A    between atoms: C_14  and  C_31
REMARK    5  A    between atoms: C_15  and  C_16
REMARK    6  A    between atoms: C_15  and  C_17
REMARK    7  A    between atoms: C_23  and  N_28
REMARK                            x       y       z     vdW  Elec       q    Type
REMARK                         _______ _______ _______ _____ _____    ______ ____
ROOT
ATOM      1  C   UNL     1      -4.954   1.319  -1.169  0.00  0.00    +0.097 C 
ATOM      2  C   UNL     1      -4.839  -0.160  -1.659  0.00  0.00    +0.024 C 
ATOM      3  C   UNL     1      -6.062  -0.344  -2.590  0.00  0.00    +0.015 C 
ATOM      4  C   UNL     1      -6.777   1.043  -2.557  0.00  0.00    +0.018 C 
ATOM      5  C   UNL     1      -6.517   1.460  -1.063  0.00  0.00    -0.005 C 
ATOM      6  C   UNL     1      -7.127   0.455  -0.084  0.00  0.00    +0.013 C 
ATOM      7  C   UNL     1      -6.951   2.895  -0.757  0.00  0.00    +0.013 C 
ATOM      8  C   UNL     1      -5.814   1.982  -3.289  0.00  0.00    +0.071 A 
ATOM      9  C   UNL     1      -4.674   2.154  -2.421  0.00  0.00    +0.079 A 
ATOM     10  N   UNL     1      -3.698   2.916  -2.832  0.00  0.00    -0.247 NA
ATOM     11  C   UNL     1      -3.749   3.538  -4.016  0.00  0.00    +0.092 A 
ATOM     12  C   UNL     1      -2.698   4.367  -4.445  0.00  0.00    +0.062 A 
ATOM     13  C   UNL     1      -2.778   4.987  -5.654  0.00  0.00    +0.128 A 
ATOM     14  C   UNL     1      -3.889   4.812  -6.478  0.00  0.00    +0.035 A 
ATOM     15  C   UNL     1      -4.925   4.018  -6.096  0.00  0.00    +0.032 A 
ATOM     16  C   UNL     1      -4.880   3.362  -4.854  0.00  0.00    +0.090 A 
ATOM     17  N   UNL     1      -5.887   2.576  -4.451  0.00  0.00    -0.248 NA
ATOM     18  C   UNL     1      -8.232   1.065  -3.029  0.00  0.00    +0.018 C 
ENDROOT
BRANCH   1  20
ATOM     19  N   UNL     1      -2.818   1.560   0.054  0.00  0.00    -0.284 N 
ATOM     20  C   UNL     1      -4.160   1.675   0.061  0.00  0.00    +0.230 C 
ATOM     21  O   UNL     1      -4.730   2.066   1.058  0.00  0.00    -0.274 OA
ATOM     22  H   UNL     1      -2.294   1.294  -0.876  0.00  0.00    +0.155 HD
BRANCH  19  29
ATOM     23  C   UNL     1      -0.095   2.353  -0.180  0.00  0.00    +0.046 C 
ATOM     24  C   UNL     1      -0.759   2.168   1.161  0.00  0.00    -0.028 A 
ATOM     25  C   UNL     1      -0.044   2.390   2.322  0.00  0.00    +0.025 A 
ATOM     26  C   UNL     1      -0.653   2.221   3.553  0.00  0.00    +0.041 A 
ATOM     27  C   UNL     1      -1.979   1.829   3.624  0.00  0.00    +0.022 A 
ATOM     28  C   UNL     1      -2.697   1.606   2.466  0.00  0.00    +0.025 A 
ATOM     29  C   UNL     1      -2.090   1.780   1.229  0.00  0.00    +0.036 A 
ATOM     30 CL   UNL     1       0.247   2.501   5.011  0.00  0.00    -0.084 Cl
ENDBRANCH  19  29
ENDBRANCH   1  20
BRANCH  13  31
ATOM     31  N   UNL     1      -1.669   5.859  -6.100  0.00  0.00    +0.056 N 
ATOM     32  O   UNL     1      -0.694   6.018  -5.387  0.00  0.00    -0.126 OA
ATOM     33  O   UNL     1      -1.731   6.418  -7.181  0.00  0.00    -0.126 OA
ENDBRANCH  13  31
TORSDOF 3
