REMARK  Name = ZINC39687504
REMARK  7 active torsions:
REMARK  status: ('A' for Active; 'I' for Inactive)
REMARK    1  A    between atoms: C_1  and  C_2
REMARK    2  A    between atoms: C_2  and  C_3
REMARK    3  A    between atoms: C_3  and  C_5
REMARK    4  A    between atoms: C_3  and  C_6
REMARK    5  A    between atoms: C_6  and  C_7
REMARK    6  A    between atoms: C_11  and  C_20
REMARK    7  A    between atoms: N_22  and  C_23
REMARK                            x       y       z     vdW  Elec       q    Type
REMARK                         _______ _______ _______ _____ _____    ______ ____
ROOT
ATOM      1  C   UNL     1       1.256  -2.549  -2.626  0.00  0.00    +0.216 C 
ATOM      2  O   UNL     1       1.700  -1.730  -3.403  0.00  0.00    -0.276 OA
ATOM      3  N   UNL     1       1.280  -3.859  -2.940  0.00  0.00    -0.300 N 
ATOM      4  C   UNL     1       0.782  -4.996  -2.131  0.00  0.00    +0.121 C 
ATOM      5  C   UNL     1       0.127  -5.948  -3.156  0.00  0.00    +0.100 C 
ATOM      6  C   UNL     1       0.806  -5.611  -4.494  0.00  0.00    -0.004 C 
ATOM      7  C   UNL     1       1.803  -4.488  -4.176  0.00  0.00    +0.115 C 
ATOM      8  C   UNL     1       1.541  -6.834  -5.036  0.00  0.00    -0.010 C 
ATOM      9  C   UNL     1       2.159  -6.491  -6.395  0.00  0.00    -0.082 C 
ATOM     10  N   UNL     1       1.102  -6.078  -7.325  0.00  0.00    +0.379 N 
ATOM     11  C   UNL     1       0.462  -4.848  -6.843  0.00  0.00    -0.082 C 
ATOM     12  C   UNL     1      -0.228  -5.122  -5.503  0.00  0.00    -0.010 C 
ATOM     13  H   UNL     1       1.504  -5.911  -8.236  0.00  0.00    -0.086 HD
ATOM     14  H   UNL     1       0.411  -6.810  -7.394  0.00  0.00    -0.086 HD
ENDROOT
BRANCH   5  15
ATOM     15  C   UNL     1      -1.356  -5.691  -3.238  0.00  0.00    +0.218 C 
ATOM     16  O   UNL     1      -1.799  -4.601  -2.944  0.00  0.00    -0.275 OA
ATOM     17  N   UNL     1      -2.189  -6.671  -3.639  0.00  0.00    -0.312 N 
ATOM     18  H   UNL     1      -1.834  -7.543  -3.875  0.00  0.00    +0.149 HD
BRANCH  17  19
ATOM     19  C   UNL     1      -3.630  -6.421  -3.719  0.00  0.00    +0.076 C 
ATOM     20  C   UNL     1      -4.263  -6.644  -2.344  0.00  0.00    +0.041 C 
ATOM     21  C   UNL     1      -5.764  -6.348  -2.423  0.00  0.00    +0.108 C 
ATOM     22  N   UNL     1      -6.351  -7.162  -3.497  0.00  0.00    -0.317 N 
ATOM     23  C   UNL     1      -5.760  -7.092  -4.840  0.00  0.00    +0.108 C 
ATOM     24  C   UNL     1      -4.259  -7.380  -4.733  0.00  0.00    +0.041 C 
ATOM     25  C   UNL     1      -7.444  -7.983  -3.246  0.00  0.00    +0.099 A 
ATOM     26  C   UNL     1      -7.899  -8.847  -4.237  0.00  0.00    +0.042 A 
ATOM     27  C   UNL     1      -8.988  -9.658  -3.974  0.00  0.00    +0.005 A 
ATOM     28  C   UNL     1      -9.588  -9.578  -2.724  0.00  0.00    +0.018 A 
ATOM     29  C   UNL     1      -9.084  -8.698  -1.788  0.00  0.00    +0.084 A 
ATOM     30  N   UNL     1      -8.040  -7.940  -2.064  0.00  0.00    -0.350 N 
ATOM     31  H   UNL     1      -7.703  -7.333  -1.387  0.00  0.00    +0.166 HD
ENDBRANCH  17  19
ENDBRANCH   5  15
BRANCH   1  32
ATOM     32  C   UNL     1       0.676  -2.100  -1.309  0.00  0.00    +0.099 C 
BRANCH  32  33
ATOM     33  C   UNL     1       0.771  -0.577  -1.203  0.00  0.00    -0.006 C 
ATOM     34  C   UNL     1       2.242  -0.159  -1.161  0.00  0.00    +0.008 C 
BRANCH  33  36
ATOM     35  C   UNL     1       0.058   1.419   0.120  0.00  0.00    +0.004 C 
ATOM     36  C   UNL     1       0.072  -0.110   0.076  0.00  0.00    +0.000 C 
ENDBRANCH  33  36
ENDBRANCH  32  33
ENDBRANCH   1  32
TORSDOF 5
