REMARK  Name = ZINC02732623
REMARK  9 active torsions:
REMARK  status: ('A' for Active; 'I' for Inactive)
REMARK    1  A    between atoms: C_1  and  C_2
REMARK    2  A    between atoms: C_2  and  O_3
REMARK    3  A    between atoms: O_3  and  C_4
REMARK    4  A    between atoms: C_4  and  C_6
REMARK    5  A    between atoms: C_13  and  C_15
REMARK    6  A    between atoms: N_20  and  S_22
REMARK    7  A    between atoms: S_22  and  C_25
REMARK    8  A    between atoms: N_28  and  C_31
REMARK    9  A    between atoms: C_29  and  C_30
REMARK                            x       y       z     vdW  Elec       q    Type
REMARK                         _______ _______ _______ _____ _____    ______ ____
ROOT
ATOM      1  C   UNL     1      -0.938   2.480   8.299  0.00  0.00    +0.091 C 
ATOM      2  C   UNL     1      -2.130   3.326   7.845  0.00  0.00    +0.015 C 
ATOM      3  C   UNL     1      -2.981   3.705   9.059  0.00  0.00    +0.018 C 
ATOM      4  C   UNL     1      -2.138   4.538  10.029  0.00  0.00    +0.109 C 
ATOM      5  N   UNL     1      -0.918   3.789  10.358  0.00  0.00    -0.176 NA
ATOM      6  C   UNL     1      -0.072   3.299   9.261  0.00  0.00    +0.122 C 
ENDROOT
BRANCH   1  13
ATOM      7  C   UNL     1      -0.740   0.484   4.013  0.00  0.00    +0.115 C 
ATOM      8  C   UNL     1      -1.805  -0.537   4.421  0.00  0.00    +0.018 C 
ATOM      9  C   UNL     1      -2.551  -0.032   5.658  0.00  0.00    +0.020 C 
ATOM     10  C   UNL     1      -1.562   0.124   6.817  0.00  0.00    +0.108 C 
ATOM     11  N   UNL     1      -0.458   0.991   6.383  0.00  0.00    -0.300 N 
ATOM     12  C   UNL     1       0.269   0.647   5.154  0.00  0.00    +0.122 C 
ATOM     13  C   UNL     1      -0.118   2.081   7.099  0.00  0.00    +0.220 C 
ATOM     14  O   UNL     1       0.848   2.740   6.779  0.00  0.00    -0.275 OA
BRANCH   7  15
ATOM     15  C   UNL     1      -0.028   0.001   2.776  0.00  0.00    +0.312 C 
ATOM     16  O   UNL     1       1.165  -0.192   2.802  0.00  0.00    -0.250 OA
BRANCH  15  17
ATOM     17  O   UNL     1      -0.718  -0.215   1.645  0.00  0.00    -0.465 OA
BRANCH  17  19
ATOM     18  C   UNL     1      -0.916  -0.868  -0.693  0.00  0.00    +0.048 C 
ATOM     19  C   UNL     1       0.033  -0.679   0.493  0.00  0.00    +0.229 C 
ENDBRANCH  17  19
ENDBRANCH  15  17
ENDBRANCH   7  15
ENDBRANCH   1  13
BRANCH   5  20
ATOM     20  S   UNL     1      -0.503   3.504  11.936  0.00  0.00    +0.064 S 
ATOM     21  O   UNL     1      -1.704   3.573  12.691  0.00  0.00    -0.153 OA
ATOM     22  O   UNL     1       0.331   2.353  11.934  0.00  0.00    -0.153 OA
BRANCH  20  23
ATOM     23  C   UNL     1       0.502   4.852  12.463  0.00  0.00    +0.146 A 
ATOM     24  C   UNL     1       0.174   5.784  13.453  0.00  0.00    +0.163 A 
ATOM     25  N   UNL     1       1.167   6.630  13.562  0.00  0.00    -0.178 NA
ATOM     26  N   UNL     1       2.158   6.262  12.643  0.00  0.00    -0.270 N 
ATOM     27  C   UNL     1       1.728   5.165  11.985  0.00  0.00    +0.062 A 
ATOM     28  C   UNL     1       2.478   4.425  10.908  0.00  0.00    +0.067 C 
ATOM     29  C   UNL     1       3.438   6.944  12.438  0.00  0.00    +0.172 C 
ENDBRANCH  20  23
ENDBRANCH   5  20
TORSDOF 6
