REMARK  Name = ZINC36206540
REMARK  16 active torsions:
REMARK  status: ('A' for Active; 'I' for Inactive)
REMARK    1  A    between atoms: C_1  and  C_2
REMARK    2  A    between atoms: C_2  and  C_3
REMARK    3  A    between atoms: C_2  and  C_4
REMARK    4  A    between atoms: C_4  and  O_5
REMARK    5  A    between atoms: O_5  and  C_6
REMARK    6  A    between atoms: C_6  and  C_7
REMARK    7  A    between atoms: C_7  and  C_9
REMARK    8  A    between atoms: C_7  and  O_37
REMARK    9  A    between atoms: C_9  and  N_10
REMARK   10  A    between atoms: N_10  and  C_11
REMARK   11  A    between atoms: N_10  and  C_17
REMARK   12  A    between atoms: C_11  and  C_12
REMARK   13  A    between atoms: C_17  and  C_18
REMARK   14  A    between atoms: C_24  and  C_29
REMARK   15  A    between atoms: C_34  and  O_35
REMARK   16  A    between atoms: O_35  and  C_36
REMARK                            x       y       z     vdW  Elec       q    Type
REMARK                         _______ _______ _______ _____ _____    ______ ____
ROOT
ATOM      1  C   UNL     1      -4.777  -6.691  -0.444  0.00  0.00    -0.003 C 
ENDROOT
BRANCH   1   2
ATOM      2  C   UNL     1      -5.298  -6.510  -1.846  0.00  0.00    +0.094 A 
ATOM      3  N   UNL     1      -6.476  -7.087  -2.200  0.00  0.00    -0.312 N 
ATOM      4  H   UNL     1      -6.966  -7.607  -1.544  0.00  0.00    +0.170 HD
ATOM      5  C   UNL     1      -6.976  -6.949  -3.441  0.00  0.00    +0.260 A 
ATOM      6  O   UNL     1      -8.035  -7.473  -3.743  0.00  0.00    -0.267 OA
ATOM      7  C   UNL     1      -6.247  -6.178  -4.402  0.00  0.00    +0.080 A 
ATOM      8  C   UNL     1      -6.576  -5.886  -5.792  0.00  0.00    +0.007 A 
ATOM      9  C   UNL     1      -5.723  -5.124  -6.517  0.00  0.00    +0.056 A 
ATOM     10  S   UNL     1      -4.417  -4.753  -5.362  0.00  0.00    -0.076 S 
ATOM     11  C   UNL     1      -5.042  -5.621  -3.946  0.00  0.00    +0.116 A 
ATOM     12  N   UNL     1      -4.613  -5.797  -2.699  0.00  0.00    -0.229 NA
BRANCH   8  13
ATOM     13  C   UNL     1      -7.821  -6.414  -6.401  0.00  0.00    +0.025 A 
ATOM     14  C   UNL     1      -7.754  -7.340  -7.440  0.00  0.00    +0.012 A 
ATOM     15  C   UNL     1      -8.915  -7.828  -8.002  0.00  0.00    +0.001 A 
ATOM     16  C   UNL     1     -10.147  -7.402  -7.539  0.00  0.00    +0.004 A 
ATOM     17  C   UNL     1     -10.225  -6.483  -6.508  0.00  0.00    +0.046 A 
ATOM     18  C   UNL     1      -9.067  -5.989  -5.930  0.00  0.00    +0.128 A 
BRANCH  18  19
ATOM     19  O   UNL     1      -9.143  -5.091  -4.913  0.00  0.00    -0.495 OA
ATOM     20  C   UNL     1     -10.450  -4.703  -4.486  0.00  0.00    +0.277 C 
ENDBRANCH  18  19
ENDBRANCH   8  13
ENDBRANCH   1   2
BRANCH   1  21
ATOM     21  N   UNL     1      -3.578  -5.863  -0.257  0.00  0.00    +0.391 N 
ATOM     22  H   UNL     1      -2.913  -6.064  -0.989  0.00  0.00    -0.080 HD
BRANCH  21  23
ATOM     23  C   UNL     1      -3.950  -4.443  -0.309  0.00  0.00    -0.044 C 
BRANCH  23  24
ATOM     24  C   UNL     1      -2.687  -3.582  -0.239  0.00  0.00    +0.124 C 
BRANCH  24  25
ATOM     25  O   UNL     1      -1.892  -3.808  -1.405  0.00  0.00    -0.391 OA
ATOM     26  H   UNL     1      -2.340  -3.591  -2.234  0.00  0.00    +0.210 HD
ENDBRANCH  24  25
BRANCH  24  27
ATOM     27  C   UNL     1      -3.080  -2.105  -0.167  0.00  0.00    +0.189 C 
BRANCH  27  28
ATOM     28  O   UNL     1      -1.907  -1.309   0.015  0.00  0.00    -0.377 OA
BRANCH  28  29
ATOM     29  C   UNL     1      -2.165   0.095   0.095  0.00  0.00    +0.163 C 
BRANCH  29  31
ATOM     30  C   UNL     1      -1.106   2.352   0.250  0.00  0.00    +0.009 C 
ATOM     31  C   UNL     1      -0.846   0.845   0.289  0.00  0.00    +0.009 C 
ATOM     32  C   UNL     1      -0.238   0.467   1.641  0.00  0.00    +0.009 C 
ENDBRANCH  29  31
ENDBRANCH  28  29
ENDBRANCH  27  28
ENDBRANCH  24  27
ENDBRANCH  23  24
ENDBRANCH  21  23
BRANCH  21  33
ATOM     33  C   UNL     1      -2.974  -6.164   1.048  0.00  0.00    -0.002 C 
BRANCH  33  34
ATOM     34  C   UNL     1      -2.475  -7.586   1.056  0.00  0.00    +0.089 A 
ATOM     35  C   UNL     1      -1.284  -8.004   0.591  0.00  0.00    +0.042 A 
ATOM     36  C   UNL     1      -1.233  -9.402   0.794  0.00  0.00    +0.041 A 
ATOM     37  C   UNL     1      -2.396  -9.755   1.371  0.00  0.00    +0.195 A 
ATOM     38  O   UNL     1      -3.142  -8.650   1.532  0.00  0.00    -0.470 OA
ENDBRANCH  33  34
ENDBRANCH  21  33
ENDBRANCH   1  21
TORSDOF 13
