REMARK  Name = ZINC64293256
REMARK  10 active torsions:
REMARK  status: ('A' for Active; 'I' for Inactive)
REMARK    1  A    between atoms: C_1  and  C_2
REMARK    2  A    between atoms: C_3  and  C_17
REMARK    3  A    between atoms: C_5  and  N_8
REMARK    4  A    between atoms: C_9  and  C_11
REMARK    5  A    between atoms: C_11  and  N_12
REMARK    6  A    between atoms: N_12  and  C_13
REMARK    7  A    between atoms: N_12  and  C_14
REMARK    8  A    between atoms: C_14  and  C_15
REMARK    9  A    between atoms: C_14  and  C_16
REMARK   10  A    between atoms: N_23  and  C_24
REMARK                            x       y       z     vdW  Elec       q    Type
REMARK                         _______ _______ _______ _____ _____    ______ ____
ROOT
ATOM      1  C   UNL     1      -0.018   1.503   0.010  0.00  0.00    +0.061 C 
ATOM      2  C   UNL     1       0.002  -0.004   0.002  0.00  0.00    +0.030 C 
ATOM      3  C   UNL     1       0.025  -0.787   1.307  0.00  0.00    +0.138 C 
ATOM      4  S   UNL     1       0.484  -2.458   0.667  0.00  0.00    -0.102 S 
ATOM      5  C   UNL     1       0.018  -2.116  -1.087  0.00  0.00    +0.251 C 
ATOM      6  N   UNL     1      -0.005  -0.639  -1.082  0.00  0.00    -0.259 NA
ENDROOT
BRANCH   3   7
ATOM      7  C   UNL     1       1.091  -0.245   2.262  0.00  0.00    +0.230 C 
ATOM      8  N   UNL     1       2.434  -0.414   1.686  0.00  0.00    -0.195 NA
ATOM      9  N   UNL     1       3.083  -1.148   2.436  0.00  0.00    -0.221 N 
ATOM     10  C   UNL     1       2.382  -1.562   3.527  0.00  0.00    +0.154 C 
ATOM     11  S   UNL     1       2.995  -2.585   4.755  0.00  0.00    -0.017 S 
ATOM     12  N   UNL     1       1.131  -1.045   3.501  0.00  0.00    -0.290 N 
ATOM     13  C   UNL     1       0.058  -1.236   4.479  0.00  0.00    +0.133 C 
ATOM     14  H   UNL     1       4.003  -1.405   2.264  0.00  0.00    +0.176 HD
ENDBRANCH   3   7
BRANCH   5  15
ATOM     15  N   UNL     1      -1.306  -2.661  -1.399  0.00  0.00    -0.287 N 
ATOM     16  C   UNL     1      -1.698  -2.785  -2.683  0.00  0.00    +0.199 C 
ATOM     17  O   UNL     1      -0.955  -2.446  -3.579  0.00  0.00    -0.278 OA
ATOM     18  H   UNL     1      -1.900  -2.932  -0.682  0.00  0.00    +0.151 HD
BRANCH  16  19
ATOM     19  C   UNL     1      -3.059  -3.346  -3.004  0.00  0.00    +0.019 C 
BRANCH  19  20
ATOM     20  N   UNL     1      -3.244  -3.379  -4.460  0.00  0.00    +0.385 N 
ATOM     21  C   UNL     1      -3.256  -2.006  -4.983  0.00  0.00    -0.095 C 
ATOM     22  H   UNL     1      -2.487  -3.893  -4.884  0.00  0.00    -0.081 HD
BRANCH  20  23
ATOM     23  C   UNL     1      -4.520  -4.034  -4.777  0.00  0.00    -0.075 C 
ATOM     24  C   UNL     1      -4.713  -4.068  -6.295  0.00  0.00    -0.014 C 
ATOM     25  C   UNL     1      -4.507  -5.464  -4.233  0.00  0.00    -0.014 C 
ENDBRANCH  20  23
ENDBRANCH  19  20
ENDBRANCH  16  19
ENDBRANCH   5  15
TORSDOF 5
