REMARK  Name = ZINC38787495
REMARK  6 active torsions:
REMARK  status: ('A' for Active; 'I' for Inactive)
REMARK    1  A    between atoms: C_1  and  N_2
REMARK    2  A    between atoms: C_3  and  C_23
REMARK    3  A    between atoms: C_7  and  S_9
REMARK    4  A    between atoms: S_9  and  C_10
REMARK    5  A    between atoms: C_10  and  C_11
REMARK    6  A    between atoms: C_28  and  O_29
REMARK                            x       y       z     vdW  Elec       q    Type
REMARK                         _______ _______ _______ _____ _____    ______ ____
ROOT
ATOM      1  C   UNL     1      -0.101   1.500   0.139  0.00  0.00    +0.110 C 
ATOM      2  N   UNL     1      -0.003   0.042  -0.011  0.00  0.00    -0.249 NA
ATOM      3  C   UNL     1      -1.301  -0.613   0.291  0.00  0.00    +0.204 C 
ATOM      4  N   UNL     1      -1.216  -0.976   1.712  0.00  0.00    -0.289 N 
ATOM      5  N   UNL     1      -0.049  -0.939   2.113  0.00  0.00    -0.184 NA
ATOM      6  C   UNL     1       0.871  -0.544   1.038  0.00  0.00    +0.256 C 
ATOM      7  H   UNL     1      -1.978  -1.214   2.263  0.00  0.00    +0.184 HD
ENDROOT
BRANCH   3   8
ATOM      8  C   UNL     1      -1.478  -1.844  -0.559  0.00  0.00    +0.033 A 
ATOM      9  C   UNL     1      -0.815  -1.953  -1.766  0.00  0.00    +0.026 A 
ATOM     10  C   UNL     1      -0.977  -3.083  -2.546  0.00  0.00    +0.018 A 
ATOM     11  C   UNL     1      -1.804  -4.108  -2.120  0.00  0.00    +0.019 A 
ATOM     12  C   UNL     1      -2.469  -4.003  -0.914  0.00  0.00    +0.047 A 
ATOM     13  C   UNL     1      -2.303  -2.873  -0.127  0.00  0.00    +0.123 A 
ATOM     14 BR   UNL     1      -0.068  -3.229  -4.198  0.00  0.00    -0.050 Br
BRANCH  13  15
ATOM     15  O   UNL     1      -2.953  -2.770   1.062  0.00  0.00    -0.506 OA
ATOM     16  H   UNL     1      -3.827  -2.361   0.999  0.00  0.00    +0.292 HD
ENDBRANCH  13  15
ENDBRANCH   3   8
BRANCH   6  17
ATOM     17  S   UNL     1       2.051   0.695   1.640  0.00  0.00    -0.109 S 
BRANCH  17  18
ATOM     18  C   UNL     1       3.294  -0.281   2.531  0.00  0.00    +0.146 C 
BRANCH  18  19
ATOM     19  C   UNL     1       4.327   0.643   3.125  0.00  0.00    +0.120 A 
ATOM     20  N   UNL     1       5.351   0.096   3.831  0.00  0.00    -0.310 N 
ATOM     21  H   UNL     1       5.399  -0.867   3.939  0.00  0.00    +0.170 HD
ATOM     22  C   UNL     1       6.304   0.882   4.383  0.00  0.00    +0.259 A 
ATOM     23  O   UNL     1       7.227   0.406   5.017  0.00  0.00    -0.267 OA
ATOM     24  C   UNL     1       6.181   2.334   4.187  0.00  0.00    +0.065 A 
ATOM     25  C   UNL     1       7.109   3.230   4.714  0.00  0.00    +0.015 A 
ATOM     26  C   UNL     1       6.945   4.581   4.500  0.00  0.00    +0.001 A 
ATOM     27  C   UNL     1       5.865   5.054   3.765  0.00  0.00    +0.002 A 
ATOM     28  C   UNL     1       4.938   4.185   3.236  0.00  0.00    +0.028 A 
ATOM     29  C   UNL     1       5.082   2.811   3.438  0.00  0.00    +0.078 A 
ATOM     30  N   UNL     1       4.195   1.920   2.930  0.00  0.00    -0.233 NA
ENDBRANCH  18  19
ENDBRANCH  17  18
ENDBRANCH   6  17
TORSDOF 5
