REMARK  Name = ZINC14357101
REMARK  10 active torsions:
REMARK  status: ('A' for Active; 'I' for Inactive)
REMARK    1  A    between atoms: C_1  and  C_2
REMARK    2  A    between atoms: C_2  and  O_3
REMARK    3  A    between atoms: O_3  and  C_4
REMARK    4  A    between atoms: C_4  and  C_6
REMARK    5  A    between atoms: C_7  and  C_15
REMARK    6  A    between atoms: C_12  and  C_14
REMARK    7  A    between atoms: C_15  and  S_16
REMARK    8  A    between atoms: S_16  and  C_17
REMARK    9  A    between atoms: C_19  and  C_28
REMARK   10  A    between atoms: C_20  and  C_22
REMARK                            x       y       z     vdW  Elec       q    Type
REMARK                         _______ _______ _______ _____ _____    ______ ____
ROOT
ATOM      1  S   UNL     1       0.017   1.008  -0.662  0.00  0.00    -0.061 S 
ENDROOT
BRANCH   1   2
ATOM      2  C   UNL     1       1.459   0.959  -1.673  0.00  0.00    +0.258 A 
ATOM      3  N   UNL     1       2.648   0.573  -1.279  0.00  0.00    -0.203 NA
ATOM      4  C   UNL     1       3.503   0.666  -2.321  0.00  0.00    +0.118 A 
ATOM      5  C   UNL     1       2.784   1.143  -3.396  0.00  0.00    +0.164 A 
ATOM      6  O   UNL     1       1.512   1.318  -2.966  0.00  0.00    -0.430 OA
BRANCH   5   7
ATOM      7  C   UNL     1       3.301   1.411  -4.751  0.00  0.00    +0.020 A 
ATOM      8  C   UNL     1       4.291   0.593  -5.300  0.00  0.00    +0.011 A 
ATOM      9  C   UNL     1       4.765   0.846  -6.569  0.00  0.00    +0.001 A 
ATOM     10  C   UNL     1       4.271   1.915  -7.296  0.00  0.00    +0.000 A 
ATOM     11  C   UNL     1       3.293   2.734  -6.757  0.00  0.00    +0.001 A 
ATOM     12  C   UNL     1       2.805   2.489  -5.490  0.00  0.00    +0.011 A 
ENDBRANCH   5   7
BRANCH   4  13
ATOM     13  C   UNL     1       4.945   0.325  -2.308  0.00  0.00    +0.004 A 
ATOM     14  C   UNL     1       5.397  -0.779  -1.585  0.00  0.00    +0.010 A 
ATOM     15  C   UNL     1       6.740  -1.095  -1.583  0.00  0.00    +0.001 A 
ATOM     16  C   UNL     1       7.639  -0.313  -2.285  0.00  0.00    +0.000 A 
ATOM     17  C   UNL     1       7.198   0.787  -2.999  0.00  0.00    +0.001 A 
ATOM     18  C   UNL     1       5.856   1.110  -3.014  0.00  0.00    +0.010 A 
ENDBRANCH   4  13
ENDBRANCH   1   2
BRANCH   1  19
ATOM     19  C   UNL     1       0.706   0.398   0.897  0.00  0.00    +0.130 C 
BRANCH  19  21
ATOM     20  C   UNL     1      -0.953  -0.830   2.253  0.00  0.00    +0.074 C 
ATOM     21  C   UNL     1      -0.379   0.352   1.942  0.00  0.00    +0.034 C 
ATOM     22  N   UNL     1      -0.762   1.506   2.563  0.00  0.00    -0.272 N 
ATOM     23  C   UNL     1      -1.718   1.564   3.498  0.00  0.00    +0.304 C 
ATOM     24  O   UNL     1      -1.994   2.640   3.992  0.00  0.00    -0.253 OA
ATOM     25  N   UNL     1      -2.382   0.467   3.914  0.00  0.00    -0.292 N 
ATOM     26  C   UNL     1      -2.039  -0.831   3.309  0.00  0.00    +0.110 C 
ATOM     27  C   UNL     1      -1.604  -1.774   4.433  0.00  0.00    +0.033 C 
ATOM     28  H   UNL     1      -0.319   2.331   2.310  0.00  0.00    +0.156 HD
ATOM     29  H   UNL     1      -3.069   0.531   4.596  0.00  0.00    +0.151 HD
BRANCH  20  30
ATOM     30  C   UNL     1      -0.554  -2.027   1.614  0.00  0.00    +0.338 C 
ATOM     31  O   UNL     1      -0.059  -1.988   0.503  0.00  0.00    -0.245 OA
BRANCH  30  32
ATOM     32  O   UNL     1      -0.721  -3.213   2.236  0.00  0.00    -0.462 OA
BRANCH  32  34
ATOM     33  C   UNL     1      -0.564  -5.620   2.389  0.00  0.00    +0.048 C 
ATOM     34  C   UNL     1      -0.296  -4.381   1.532  0.00  0.00    +0.229 C 
ENDBRANCH  32  34
ENDBRANCH  30  32
ENDBRANCH  20  30
ENDBRANCH  19  21
ENDBRANCH   1  19
TORSDOF 8
