REMARK  Name = ZINC39609074
REMARK  9 active torsions:
REMARK  status: ('A' for Active; 'I' for Inactive)
REMARK    1  A    between atoms: C_1  and  C_2
REMARK    2  A    between atoms: C_2  and  C_3
REMARK    3  A    between atoms: C_3  and  C_5
REMARK    4  A    between atoms: C_3  and  C_11
REMARK    5  A    between atoms: C_15  and  C_24
REMARK    6  A    between atoms: N_26  and  C_27
REMARK    7  A    between atoms: C_32  and  O_34
REMARK    8  A    between atoms: O_34  and  C_35
REMARK    9  A    between atoms: C_35  and  C_36
REMARK                            x       y       z     vdW  Elec       q    Type
REMARK                         _______ _______ _______ _____ _____    ______ ____
ROOT
ATOM      1  C   UNL     1       0.652  -2.129  -1.304  0.00  0.00    +0.223 C 
ATOM      2  O   UNL     1       1.652  -2.813  -1.359  0.00  0.00    -0.275 OA
ATOM      3  N   UNL     1      -0.564  -2.705  -1.384  0.00  0.00    -0.300 N 
ATOM      4  C   UNL     1      -1.888  -2.041  -1.343  0.00  0.00    +0.121 C 
ATOM      5  C   UNL     1      -2.738  -2.801  -2.386  0.00  0.00    +0.100 C 
ATOM      6  C   UNL     1      -2.071  -4.182  -2.504  0.00  0.00    -0.004 C 
ATOM      7  C   UNL     1      -0.878  -4.146  -1.538  0.00  0.00    +0.115 C 
ATOM      8  C   UNL     1      -1.581  -4.412  -3.930  0.00  0.00    -0.010 C 
ATOM      9  C   UNL     1      -0.973  -5.814  -4.036  0.00  0.00    -0.082 C 
ATOM     10  N   UNL     1      -1.984  -6.816  -3.677  0.00  0.00    +0.379 N 
ATOM     11  C   UNL     1      -2.383  -6.645  -2.275  0.00  0.00    -0.082 C 
ATOM     12  C   UNL     1      -3.050  -5.279  -2.094  0.00  0.00    -0.010 C 
ATOM     13  H   UNL     1      -2.792  -6.704  -4.271  0.00  0.00    -0.086 HD
ATOM     14  H   UNL     1      -1.601  -7.740  -3.807  0.00  0.00    -0.086 HD
ENDROOT
BRANCH   5  15
ATOM     15  C   UNL     1      -4.158  -2.942  -1.903  0.00  0.00    +0.218 C 
ATOM     16  O   UNL     1      -4.389  -3.034  -0.716  0.00  0.00    -0.275 OA
ATOM     17  N   UNL     1      -5.173  -2.964  -2.791  0.00  0.00    -0.310 N 
ATOM     18  H   UNL     1      -4.988  -2.890  -3.740  0.00  0.00    +0.149 HD
BRANCH  17  19
ATOM     19  C   UNL     1      -6.554  -3.100  -2.322  0.00  0.00    +0.102 C 
ATOM     20  C   UNL     1      -6.916  -4.588  -2.174  0.00  0.00    +0.025 C 
ATOM     21  C   UNL     1      -8.096  -4.852  -3.132  0.00  0.00    +0.004 C 
ATOM     22  C   UNL     1      -8.750  -3.460  -3.321  0.00  0.00    +0.033 C 
ATOM     23  C   UNL     1      -7.526  -2.510  -3.364  0.00  0.00    +0.139 C 
BRANCH  23  24
ATOM     24  O   UNL     1      -7.909  -1.183  -2.995  0.00  0.00    -0.370 OA
BRANCH  24  25
ATOM     25  C   UNL     1      -8.207  -0.335  -4.106  0.00  0.00    +0.195 C 
BRANCH  25  26
ATOM     26  C   UNL     1      -8.597   1.032  -3.604  0.00  0.00    -0.022 A 
ATOM     27  C   UNL     1      -9.921   1.313  -3.323  0.00  0.00    +0.006 A 
ATOM     28  C   UNL     1     -10.278   2.567  -2.862  0.00  0.00    +0.000 A 
ATOM     29  C   UNL     1      -9.311   3.538  -2.682  0.00  0.00    +0.000 A 
ATOM     30  C   UNL     1      -7.987   3.256  -2.962  0.00  0.00    +0.000 A 
ATOM     31  C   UNL     1      -7.629   2.002  -3.419  0.00  0.00    +0.006 A 
ENDBRANCH  25  26
ENDBRANCH  24  25
ENDBRANCH  23  24
ENDBRANCH  17  19
ENDBRANCH   5  15
BRANCH   1  32
ATOM     32  C   UNL     1       0.769  -0.634  -1.147  0.00  0.00    +0.105 C 
BRANCH  32  33
ATOM     33  C   UNL     1       2.224  -0.248  -1.083  0.00  0.00    -0.036 A 
ATOM     34  C   UNL     1       3.031  -0.757  -0.084  0.00  0.00    +0.004 A 
ATOM     35  C   UNL     1       4.366  -0.403  -0.025  0.00  0.00    +0.000 A 
ATOM     36  C   UNL     1       4.894   0.460  -0.967  0.00  0.00    +0.000 A 
ATOM     37  C   UNL     1       4.087   0.969  -1.967  0.00  0.00    +0.000 A 
ATOM     38  C   UNL     1       2.753   0.611  -2.028  0.00  0.00    +0.004 A 
ENDBRANCH  32  33
BRANCH  32  40
ATOM     39  C   UNL     1       0.079   1.326   0.239  0.00  0.00    +0.005 C 
ATOM     40  C   UNL     1       0.069  -0.201   0.142  0.00  0.00    +0.014 C 
ENDBRANCH  32  40
ENDBRANCH   1  32
TORSDOF 8
