REMARK  Name = ZINC40986732
REMARK  12 active torsions:
REMARK  status: ('A' for Active; 'I' for Inactive)
REMARK    1  A    between atoms: C_1  and  C_2
REMARK    2  A    between atoms: C_2  and  C_3
REMARK    3  A    between atoms: C_3  and  C_4
REMARK    4  A    between atoms: C_4  and  S_5
REMARK    5  A    between atoms: S_5  and  C_6
REMARK    6  A    between atoms: C_11  and  C_20
REMARK    7  A    between atoms: C_13  and  C_17
REMARK    8  A    between atoms: C_14  and  C_16
REMARK    9  A    between atoms: C_22  and  O_29
REMARK   10  A    between atoms: C_23  and  O_27
REMARK   11  A    between atoms: O_27  and  C_28
REMARK   12  A    between atoms: O_29  and  C_30
REMARK                            x       y       z     vdW  Elec       q    Type
REMARK                         _______ _______ _______ _____ _____    ______ ____
ROOT
ATOM      1  C   UNL     1      -2.916  -4.478   0.462  0.00  0.00    +0.210 A 
ATOM      2  N   UNL     1      -1.747  -5.133   0.401  0.00  0.00    -0.187 NA
ATOM      3  C   UNL     1      -1.970  -6.403   0.198  0.00  0.00    +0.219 A 
ATOM      4  N   UNL     1      -3.311  -6.588   0.119  0.00  0.00    -0.220 N 
ATOM      5  N   UNL     1      -3.898  -5.337   0.300  0.00  0.00    -0.141 NA
ATOM      6  C   UNL     1      -3.935  -7.888  -0.113  0.00  0.00    +0.177 C 
ATOM      7  C   UNL     1      -2.906  -8.975   0.052  0.00  0.00    +0.060 C 
ATOM      8  C   UNL     1      -1.590  -8.731   0.129  0.00  0.00    +0.018 C 
ATOM      9  N   UNL     1      -1.077  -7.458   0.073  0.00  0.00    -0.287 N 
ATOM     10  C   UNL     1      -0.642  -9.893   0.282  0.00  0.00    +0.061 C 
ATOM     11  H   UNL     1      -0.127  -7.303  -0.049  0.00  0.00    +0.155 HD
ENDROOT
BRANCH   6  12
ATOM     12  C   UNL     1      -4.494  -7.935  -1.512  0.00  0.00    -0.014 A 
ATOM     13  C   UNL     1      -5.848  -8.138  -1.707  0.00  0.00    +0.055 A 
ATOM     14  C   UNL     1      -6.364  -8.181  -2.992  0.00  0.00    +0.163 A 
ATOM     15  C   UNL     1      -5.517  -8.018  -4.085  0.00  0.00    +0.175 A 
ATOM     16  C   UNL     1      -4.161  -7.815  -3.882  0.00  0.00    +0.063 A 
ATOM     17  C   UNL     1      -3.653  -7.768  -2.596  0.00  0.00    +0.025 A 
ATOM     18 BR   UNL     1      -3.006  -7.594  -5.364  0.00  0.00    -0.046 Br
BRANCH  15  19
ATOM     19  O   UNL     1      -6.019  -8.060  -5.348  0.00  0.00    -0.490 OA
ATOM     20  C   UNL     1      -6.453  -6.822  -5.915  0.00  0.00    +0.277 C 
ENDBRANCH  15  19
BRANCH  14  21
ATOM     21  O   UNL     1      -7.695  -8.381  -3.186  0.00  0.00    -0.491 OA
ATOM     22  C   UNL     1      -8.503  -8.540  -2.018  0.00  0.00    +0.277 C 
ENDBRANCH  14  21
ENDBRANCH   6  12
BRANCH   7  23
ATOM     23  C   UNL     1      -3.349 -10.317   0.131  0.00  0.00    +0.241 C 
ATOM     24  O   UNL     1      -3.885 -10.722   1.147  0.00  0.00    -0.271 OA
ATOM     25  N   UNL     1      -3.178 -11.146  -0.918  0.00  0.00    -0.325 N 
ATOM     26  H   UNL     1      -2.751 -10.822  -1.727  0.00  0.00    +0.145 HD
ATOM     27  H   UNL     1      -3.482 -12.065  -0.864  0.00  0.00    +0.145 HD
ENDBRANCH   7  23
BRANCH   1  28
ATOM     28  S   UNL     1      -3.104  -2.745   0.724  0.00  0.00    -0.084 S 
BRANCH  28  29
ATOM     29  C   UNL     1      -1.402  -2.135   0.868  0.00  0.00    +0.077 C 
BRANCH  29  30
ATOM     30  C   UNL     1      -1.420  -0.623   1.101  0.00  0.00    +0.011 C 
BRANCH  30  32
ATOM     31  C   UNL     1      -0.002   1.403   1.456  0.00  0.00    +0.004 C 
ATOM     32  C   UNL     1       0.016  -0.109   1.223  0.00  0.00    -0.003 C 
ENDBRANCH  30  32
ENDBRANCH  29  30
ENDBRANCH  28  29
ENDBRANCH   1  28
TORSDOF 8
