REMARK  Name = ZINC35897031
REMARK  9 active torsions:
REMARK  status: ('A' for Active; 'I' for Inactive)
REMARK    1  A    between atoms: C_1  and  C_2
REMARK    2  A    between atoms: C_6  and  C_8
REMARK    3  A    between atoms: C_12  and  O_26
REMARK    4  A    between atoms: C_19  and  C_21
REMARK    5  A    between atoms: O_26  and  C_27
REMARK    6  A    between atoms: C_27  and  C_29
REMARK    7  A    between atoms: C_27  and  C_30
REMARK    8  A    between atoms: N_32  and  C_33
REMARK    9  A    between atoms: C_33  and  C_34
REMARK                            x       y       z     vdW  Elec       q    Type
REMARK                         _______ _______ _______ _____ _____    ______ ____
ROOT
ATOM      1  C   UNL     1       0.059  -2.979   2.437  0.00  0.00    +0.137 C 
ATOM      2  C   UNL     1       1.436  -3.539   2.691  0.00  0.00    -0.016 A 
ATOM      3  C   UNL     1       2.518  -2.682   2.555  0.00  0.00    +0.051 A 
ATOM      4  C   UNL     1       3.806  -3.134   2.785  0.00  0.00    +0.122 A 
ATOM      5  C   UNL     1       4.012  -4.456   3.154  0.00  0.00    +0.046 A 
ATOM      6  C   UNL     1       2.935  -5.306   3.284  0.00  0.00    +0.007 A 
ATOM      7  C   UNL     1       1.642  -4.854   3.048  0.00  0.00    -0.040 A 
ATOM      8  C   UNL     1       0.520  -5.849   3.183  0.00  0.00    +0.054 C 
ATOM      9  C   UNL     1      -0.819  -5.137   3.373  0.00  0.00    +0.113 C 
ATOM     10  N   UNL     1      -0.913  -4.075   2.357  0.00  0.00    -0.290 N 
ATOM     11  C   UNL     1      -1.855  -4.108   1.395  0.00  0.00    +0.219 C 
ATOM     12  O   UNL     1      -1.878  -3.249   0.538  0.00  0.00    -0.275 OA
ENDROOT
BRANCH   1  18
ATOM     13  C   UNL     1      -0.809   1.240  -0.111  0.00  0.00    +0.044 C 
ATOM     14  C   UNL     1      -0.356  -0.197  -0.081  0.00  0.00    -0.050 A 
ATOM     15  C   UNL     1       0.061  -0.814  -1.246  0.00  0.00    +0.003 A 
ATOM     16  C   UNL     1       0.476  -2.132  -1.219  0.00  0.00    +0.001 A 
ATOM     17  C   UNL     1       0.476  -2.833  -0.027  0.00  0.00    +0.006 A 
ATOM     18  C   UNL     1       0.060  -2.215   1.138  0.00  0.00    -0.022 A 
ATOM     19  C   UNL     1      -0.352  -0.896   1.111  0.00  0.00    +0.009 A 
ENDBRANCH   1  18
BRANCH  11  20
ATOM     20  C   UNL     1      -2.881  -5.212   1.382  0.00  0.00    +0.075 C 
ATOM     21  C   UNL     1      -2.188  -6.575   1.182  0.00  0.00    +0.013 C 
ATOM     22  C   UNL     1      -3.165  -7.370   0.281  0.00  0.00    +0.001 C 
ATOM     23  C   UNL     1      -3.695  -6.285  -0.690  0.00  0.00    +0.001 C 
ATOM     24  C   UNL     1      -3.839  -5.027   0.192  0.00  0.00    +0.013 C 
ENDBRANCH  11  20
BRANCH   4  25
ATOM     25  O   UNL     1       4.862  -2.290   2.648  0.00  0.00    -0.480 OA
BRANCH  25  26
ATOM     26  C   UNL     1       6.166  -2.849   2.818  0.00  0.00    +0.255 C 
ATOM     27  C   UNL     1       6.618  -3.496   1.508  0.00  0.00    +0.062 C 
BRANCH  26  28
ATOM     28  C   UNL     1       7.134  -1.759   3.200  0.00  0.00    +0.254 C 
ATOM     29  O   UNL     1       6.745  -0.616   3.315  0.00  0.00    -0.272 OA
ATOM     30  N   UNL     1       8.431  -2.054   3.414  0.00  0.00    -0.308 N 
ATOM     31  H   UNL     1       8.742  -2.969   3.321  0.00  0.00    +0.149 HD
BRANCH  30  32
ATOM     32  C   UNL     1       9.373  -0.995   3.785  0.00  0.00    +0.139 C 
BRANCH  32  33
ATOM     33  C   UNL     1      10.748  -1.585   3.964  0.00  0.00    -0.030 A 
ATOM     34  C   UNL     1      11.141  -2.057   5.202  0.00  0.00    +0.008 A 
ATOM     35  C   UNL     1      12.402  -2.598   5.368  0.00  0.00    +0.038 A 
ATOM     36  C   UNL     1      13.271  -2.667   4.293  0.00  0.00    +0.123 A 
ATOM     37  C   UNL     1      12.876  -2.194   3.053  0.00  0.00    +0.038 A 
ATOM     38  C   UNL     1      11.613  -1.658   2.888  0.00  0.00    +0.008 A 
ATOM     39  F   UNL     1      14.504  -3.196   4.453  0.00  0.00    -0.205 F 
ENDBRANCH  32  33
ENDBRANCH  30  32
ENDBRANCH  26  28
ENDBRANCH  25  26
ENDBRANCH   4  25
TORSDOF 7
