REMARK  Name = ZINC45736022
REMARK  9 active torsions:
REMARK  status: ('A' for Active; 'I' for Inactive)
REMARK    1  A    between atoms: C_1  and  C_2
REMARK    2  A    between atoms: C_2  and  O_3
REMARK    3  A    between atoms: O_3  and  C_4
REMARK    4  A    between atoms: C_4  and  C_6
REMARK    5  A    between atoms: N_12  and  C_13
REMARK    6  A    between atoms: C_13  and  C_14
REMARK    7  A    between atoms: C_14  and  N_15
REMARK    8  A    between atoms: C_18  and  C_22
REMARK    9  A    between atoms: C_18  and  C_23
REMARK                            x       y       z     vdW  Elec       q    Type
REMARK                         _______ _______ _______ _____ _____    ______ ____
ROOT
ATOM      1  C   UNL     1       1.342  -2.363  -2.482  0.00  0.00    +0.042 C 
ATOM      2  C   UNL     1       0.544  -2.005  -3.737  0.00  0.00    -0.004 C 
ATOM      3  C   UNL     1       1.327  -2.449  -4.977  0.00  0.00    -0.003 C 
ATOM      4  C   UNL     1       1.611  -3.951  -4.878  0.00  0.00    -0.019 C 
ATOM      5  C   UNL     1       2.369  -4.236  -3.580  0.00  0.00    -0.078 C 
ATOM      6  N   UNL     1       1.557  -3.814  -2.432  0.00  0.00    +0.390 N 
ATOM      7  H   UNL     1       0.666  -4.286  -2.459  0.00  0.00    -0.081 HD
ENDROOT
BRANCH   1   8
ATOM      8  C   UNL     1       0.576  -1.927  -1.259  0.00  0.00    +0.293 C 
ATOM      9  O   UNL     1      -0.186  -2.694  -0.719  0.00  0.00    -0.253 OA
BRANCH   8  10
ATOM     10  O   UNL     1       0.739  -0.688  -0.771  0.00  0.00    -0.466 OA
BRANCH  10  12
ATOM     11  C   UNL     1       0.298   1.098   0.796  0.00  0.00    +0.048 C 
ATOM     12  C   UNL     1      -0.019  -0.342   0.390  0.00  0.00    +0.228 C 
ENDBRANCH  10  12
ENDBRANCH   8  10
ENDBRANCH   1   8
BRANCH   6  13
ATOM     13  C   UNL     1       2.255  -4.162  -1.187  0.00  0.00    -0.058 C 
BRANCH  13  14
ATOM     14  C   UNL     1       2.348  -5.684  -1.063  0.00  0.00    +0.099 C 
BRANCH  14  15
ATOM     15  N   UNL     1       3.044  -6.031   0.179  0.00  0.00    -0.226 N 
ATOM     16  C   UNL     1       4.378  -6.189   0.280  0.00  0.00    +0.246 C 
ATOM     17  O   UNL     1       5.198  -6.075  -0.605  0.00  0.00    -0.273 OA
ATOM     18  C   UNL     1       4.640  -6.537   1.732  0.00  0.00    +0.107 C 
ATOM     19  N   UNL     1       3.297  -6.535   2.337  0.00  0.00    -0.285 N 
ATOM     20  C   UNL     1       2.433  -6.224   1.354  0.00  0.00    +0.309 C 
ATOM     21  O   UNL     1       1.232  -6.132   1.514  0.00  0.00    -0.252 OA
ATOM     22  C   UNL     1       5.279  -7.923   1.846  0.00  0.00    +0.041 C 
ATOM     23  C   UNL     1       5.528  -5.478   2.388  0.00  0.00    +0.041 C 
ATOM     24  H   UNL     1       3.079  -6.719   3.264  0.00  0.00    +0.151 HD
ENDBRANCH  14  15
ENDBRANCH  13  14
ENDBRANCH   6  13
TORSDOF 6
