REMARK  Name = ZINC36802694
REMARK  8 active torsions:
REMARK  status: ('A' for Active; 'I' for Inactive)
REMARK    1  A    between atoms: C_1  and  C_2
REMARK    2  A    between atoms: C_2  and  C_3
REMARK    3  A    between atoms: C_2  and  C_4
REMARK    4  A    between atoms: C_6  and  C_9
REMARK    5  A    between atoms: C_9  and  N_10
REMARK    6  A    between atoms: N_13  and  C_16
REMARK    7  A    between atoms: C_16  and  C_17
REMARK    8  A    between atoms: C_16  and  C_24
REMARK                            x       y       z     vdW  Elec       q    Type
REMARK                         _______ _______ _______ _____ _____    ______ ____
ROOT
ATOM      1  N   UNL     1      -3.499  -3.996  -0.942  0.00  0.00    +0.387 N 
ATOM      2  C   UNL     1      -4.183  -4.016   0.358  0.00  0.00    -0.063 C 
ATOM      3  C   UNL     1      -4.247  -5.454   0.878  0.00  0.00    +0.067 C 
ATOM      4  N   UNL     1      -4.970  -6.291  -0.089  0.00  0.00    -0.295 NA
ATOM      5  C   UNL     1      -4.311  -6.260  -1.402  0.00  0.00    +0.067 C 
ATOM      6  C   UNL     1      -4.247  -4.816  -1.904  0.00  0.00    -0.063 C 
ATOM      7  H   UNL     1      -2.567  -4.367  -0.837  0.00  0.00    -0.081 HD
ENDROOT
BRANCH   1   8
ATOM      8  C   UNL     1      -3.422  -2.613  -1.432  0.00  0.00    +0.022 C 
BRANCH   8  11
ATOM      9  C   UNL     1      -0.812  -0.858   0.370  0.00  0.00    +0.174 A 
ATOM     10  N   UNL     1      -1.262  -1.639  -0.618  0.00  0.00    -0.197 NA
ATOM     11  C   UNL     1      -2.552  -1.800  -0.509  0.00  0.00    +0.211 A 
ATOM     12  O   UNL     1      -2.970  -1.118   0.565  0.00  0.00    -0.340 OA
ATOM     13  N   UNL     1      -1.814  -0.514   1.127  0.00  0.00    -0.061 NA
BRANCH   9  15
ATOM     14  C   UNL     1       0.730   1.078   0.524  0.00  0.00    +0.015 C 
ATOM     15  C   UNL     1       0.623  -0.447   0.577  0.00  0.00    +0.054 C 
ATOM     16  C   UNL     1       1.105  -0.946   1.941  0.00  0.00    +0.015 C 
ENDBRANCH   9  15
ENDBRANCH   8  11
ENDBRANCH   1   8
BRANCH   4  17
ATOM     17  C   UNL     1      -5.102  -7.669   0.402  0.00  0.00    +0.117 C 
BRANCH  17  18
ATOM     18  C   UNL     1      -5.801  -7.662   1.736  0.00  0.00    -0.026 A 
ATOM     19  C   UNL     1      -6.916  -6.867   1.928  0.00  0.00    +0.008 A 
ATOM     20  C   UNL     1      -7.558  -6.861   3.152  0.00  0.00    +0.038 A 
ATOM     21  C   UNL     1      -7.085  -7.651   4.186  0.00  0.00    +0.123 A 
ATOM     22  C   UNL     1      -5.969  -8.447   3.993  0.00  0.00    +0.038 A 
ATOM     23  C   UNL     1      -5.331  -8.456   2.767  0.00  0.00    +0.008 A 
ATOM     24  F   UNL     1      -7.712  -7.644   5.382  0.00  0.00    -0.205 F 
ENDBRANCH  17  18
BRANCH  17  25
ATOM     25  C   UNL     1      -5.907  -8.478  -0.583  0.00  0.00    -0.026 A 
ATOM     26  C   UNL     1      -7.059  -7.949  -1.133  0.00  0.00    +0.008 A 
ATOM     27  C   UNL     1      -7.798  -8.690  -2.036  0.00  0.00    +0.038 A 
ATOM     28  C   UNL     1      -7.382  -9.963  -2.390  0.00  0.00    +0.123 A 
ATOM     29  C   UNL     1      -6.228 -10.491  -1.839  0.00  0.00    +0.038 A 
ATOM     30  C   UNL     1      -5.488  -9.747  -0.940  0.00  0.00    +0.008 A 
ATOM     31  F   UNL     1      -8.104 -10.688  -3.273  0.00  0.00    -0.205 F 
ENDBRANCH  17  25
ENDBRANCH   4  17
TORSDOF 6
