REMARK  Name = ZINC13502436
REMARK  8 active torsions:
REMARK  status: ('A' for Active; 'I' for Inactive)
REMARK    1  A    between atoms: N_9  and  C_10
REMARK    2  A    between atoms: C_10  and  C_11
REMARK    3  A    between atoms: N_13  and  C_14
REMARK    4  A    between atoms: N_13  and  C_21
REMARK    5  A    between atoms: C_21  and  C_23
REMARK    6  A    between atoms: C_21  and  C_28
REMARK    7  A    between atoms: N_30  and  C_31
REMARK    8  A    between atoms: C_31  and  C_32
REMARK                            x       y       z     vdW  Elec       q    Type
REMARK                         _______ _______ _______ _____ _____    ______ ____
ROOT
ATOM      1  C   UNL     1      -4.362   3.929  -1.317  0.00  0.00    +0.242 C 
ATOM      2  O   UNL     1      -3.614   4.277  -2.206  0.00  0.00    -0.273 OA
ATOM      3  N   UNL     1      -5.589   3.459  -1.615  0.00  0.00    -0.248 N 
ENDROOT
BRANCH   3   4
ATOM      4  C   UNL     1      -6.453   3.058  -0.588  0.00  0.00    +0.073 A 
ATOM      5  C   UNL     1      -7.370   3.956  -0.059  0.00  0.00    +0.026 A 
ATOM      6  C   UNL     1      -8.221   3.557   0.954  0.00  0.00    +0.002 A 
ATOM      7  C   UNL     1      -8.162   2.264   1.440  0.00  0.00    +0.003 A 
ATOM      8  C   UNL     1      -7.251   1.366   0.916  0.00  0.00    +0.040 A 
ATOM      9  C   UNL     1      -6.399   1.757  -0.101  0.00  0.00    +0.145 A 
ATOM     10  F   UNL     1      -5.513   0.877  -0.617  0.00  0.00    -0.204 F 
ENDBRANCH   3   4
BRANCH   1  11
ATOM     11  C   UNL     1      -3.919   4.023   0.120  0.00  0.00    +0.242 C 
BRANCH  11  20
ATOM     12  C   UNL     1       1.248   3.000   0.140  0.00  0.00    +0.002 A 
ATOM     13  C   UNL     1       0.215   2.074   0.064  0.00  0.00    +0.002 A 
ATOM     14  C   UNL     1      -1.088   2.484   0.063  0.00  0.00    +0.029 A 
ATOM     15  C   UNL     1      -1.387   3.840   0.150  0.00  0.00    +0.090 A 
ATOM     16  C   UNL     1      -0.347   4.782   0.229  0.00  0.00    +0.113 A 
ATOM     17  C   UNL     1       0.982   4.336   0.222  0.00  0.00    +0.032 A 
ATOM     18  N   UNL     1      -0.908   6.006   0.298  0.00  0.00    -0.129 NA
ATOM     19  N   UNL     1      -2.191   5.911   0.270  0.00  0.00    -0.064 NA
ATOM     20  N   UNL     1      -2.557   4.560   0.177  0.00  0.00    -0.235 N 
ENDBRANCH  11  20
ENDBRANCH   1  11
BRANCH   3  21
ATOM     21  C   UNL     1      -6.020   3.368  -3.012  0.00  0.00    +0.233 C 
BRANCH  21  22
ATOM     22  C   UNL     1      -5.115   2.421  -3.756  0.00  0.00    +0.135 A 
ATOM     23  C   UNL     1      -5.503   1.523  -4.679  0.00  0.00    +0.047 A 
ATOM     24  C   UNL     1      -4.338   0.853  -5.114  0.00  0.00    +0.041 A 
ATOM     25  C   UNL     1      -3.306   1.381  -4.432  0.00  0.00    +0.195 A 
ATOM     26  O   UNL     1      -3.782   2.335  -3.615  0.00  0.00    -0.465 OA
ENDBRANCH  21  22
BRANCH  21  27
ATOM     27  C   UNL     1      -5.952   4.733  -3.648  0.00  0.00    +0.242 C 
ATOM     28  O   UNL     1      -5.445   5.657  -3.049  0.00  0.00    -0.273 OA
ATOM     29  N   UNL     1      -6.455   4.926  -4.884  0.00  0.00    -0.306 N 
ATOM     30  H   UNL     1      -6.861   4.187  -5.363  0.00  0.00    +0.149 HD
BRANCH  29  31
ATOM     31  C   UNL     1      -6.389   6.252  -5.502  0.00  0.00    +0.178 C 
BRANCH  31  32
ATOM     32  C   UNL     1      -7.015   6.199  -6.872  0.00  0.00    +0.122 A 
ATOM     33  C   UNL     1      -8.312   6.422  -7.153  0.00  0.00    +0.046 A 
ATOM     34  C   UNL     1      -8.460   6.270  -8.551  0.00  0.00    +0.041 A 
ATOM     35  C   UNL     1      -7.245   5.963  -9.040  0.00  0.00    +0.195 A 
ATOM     36  O   UNL     1      -6.373   5.927  -8.020  0.00  0.00    -0.466 OA
ENDBRANCH  31  32
ENDBRANCH  29  31
ENDBRANCH  21  27
ENDBRANCH   3  21
TORSDOF 8
