REMARK  Name = ZINC19048040
REMARK  8 active torsions:
REMARK  status: ('A' for Active; 'I' for Inactive)
REMARK    1  A    between atoms: C_1  and  C_2
REMARK    2  A    between atoms: C_2  and  C_4
REMARK    3  A    between atoms: C_2  and  N_14
REMARK    4  A    between atoms: C_15  and  C_17
REMARK    5  A    between atoms: C_17  and  S_18
REMARK    6  A    between atoms: S_18  and  C_19
REMARK    7  A    between atoms: C_22  and  C_25
REMARK    8  A    between atoms: N_23  and  N_24
REMARK                            x       y       z     vdW  Elec       q    Type
REMARK                         _______ _______ _______ _____ _____    ______ ____
ROOT
ATOM      1  C   UNL     1       6.805   4.426  -1.845  0.00  0.00    +0.173 C 
ENDROOT
BRANCH   1   3
ATOM      2  N   UNL     1       4.714   4.018  -0.588  0.00  0.00    -0.308 N 
ATOM      3  C   UNL     1       5.817   3.509  -1.173  0.00  0.00    +0.224 C 
ATOM      4  O   UNL     1       6.013   2.312  -1.157  0.00  0.00    -0.275 OA
ATOM      5  H   UNL     1       4.557   4.976  -0.600  0.00  0.00    +0.149 HD
BRANCH   2   7
ATOM      6  C   UNL     1       4.158   2.925   1.528  0.00  0.00    +0.033 C 
ATOM      7  C   UNL     1       3.753   3.127   0.066  0.00  0.00    +0.101 C 
BRANCH   7   8
ATOM      8  C   UNL     1       2.378   3.740   0.006  0.00  0.00    -0.020 A 
ATOM      9  C   UNL     1       2.233   5.091  -0.069  0.00  0.00    +0.006 A 
ATOM     10  C   UNL     1       0.970   5.676  -0.126  0.00  0.00    +0.001 A 
ATOM     11  C   UNL     1      -0.157   4.912  -0.109  0.00  0.00    +0.008 A 
ATOM     12  C   UNL     1      -0.048   3.513  -0.033  0.00  0.00    -0.018 A 
ATOM     13  C   UNL     1       1.238   2.919   0.025  0.00  0.00    -0.013 A 
ATOM     14  C   UNL     1       1.347   1.520   0.101  0.00  0.00    +0.009 A 
ATOM     15  C   UNL     1       0.220   0.756   0.117  0.00  0.00    +0.001 A 
ATOM     16  C   UNL     1      -1.044   1.341   0.055  0.00  0.00    +0.001 A 
ATOM     17  C   UNL     1      -1.188   2.692  -0.014  0.00  0.00    +0.008 A 
ENDBRANCH   7   8
ENDBRANCH   2   7
ENDBRANCH   1   3
BRANCH   1  18
ATOM     18  S   UNL     1       8.166   3.449  -2.529  0.00  0.00    -0.075 S 
BRANCH  18  19
ATOM     19  C   UNL     1       9.142   4.735  -3.235  0.00  0.00    +0.209 A 
ATOM     20  N   UNL     1       8.867   6.020  -3.221  0.00  0.00    -0.121 NA
ATOM     21  N   UNL     1       9.793   6.676  -3.823  0.00  0.00    -0.127 NA
ATOM     22  C   UNL     1      10.712   5.851  -4.266  0.00  0.00    +0.183 A 
ATOM     23  N   UNL     1      10.323   4.582  -3.904  0.00  0.00    -0.224 N 
BRANCH  22  24
ATOM     24  C   UNL     1      11.933   6.215  -5.015  0.00  0.00    +0.035 A 
ATOM     25  C   UNL     1      12.279   5.518  -6.174  0.00  0.00    +0.013 A 
ATOM     26  C   UNL     1      13.420   5.864  -6.868  0.00  0.00    +0.001 A 
ATOM     27  C   UNL     1      14.221   6.899  -6.418  0.00  0.00    +0.001 A 
ATOM     28  C   UNL     1      13.885   7.594  -5.271  0.00  0.00    +0.016 A 
ATOM     29  C   UNL     1      12.742   7.262  -4.569  0.00  0.00    +0.029 A 
ATOM     30 BR   UNL     1      12.279   8.219  -3.006  0.00  0.00    -0.050 Br
ENDBRANCH  22  24
BRANCH  23  31
ATOM     31  N   UNL     1      10.981   3.412  -4.160  0.00  0.00    -0.295 N 
ATOM     32  H   UNL     1      10.748   3.059  -5.075  0.00  0.00    +0.163 HD
ATOM     33  H   UNL     1      11.978   3.529  -4.061  0.00  0.00    +0.163 HD
ENDBRANCH  23  31
ENDBRANCH  18  19
ENDBRANCH   1  18
TORSDOF 7
