REMARK  Name = ZINC39665962
REMARK  9 active torsions:
REMARK  status: ('A' for Active; 'I' for Inactive)
REMARK    1  A    between atoms: C_1  and  C_2
REMARK    2  A    between atoms: C_5  and  O_8
REMARK    3  A    between atoms: O_8  and  C_9
REMARK    4  A    between atoms: C_9  and  C_11
REMARK    5  A    between atoms: C_9  and  C_12
REMARK    6  A    between atoms: C_12  and  N_13
REMARK    7  A    between atoms: C_14  and  C_16
REMARK    8  A    between atoms: C_27  and  C_29
REMARK    9  A    between atoms: C_34  and  C_35
REMARK                            x       y       z     vdW  Elec       q    Type
REMARK                         _______ _______ _______ _____ _____    ______ ____
ROOT
ATOM      1  C   UNL     1       4.001  -7.374   0.402  0.00  0.00    +0.100 C 
ATOM      2  C   UNL     1       4.926  -6.472   1.248  0.00  0.00    +0.121 C 
ATOM      3  N   UNL     1       5.902  -7.405   1.860  0.00  0.00    -0.296 N 
ATOM      4  C   UNL     1       6.198  -8.385   0.787  0.00  0.00    +0.115 C 
ATOM      5  C   UNL     1       4.840  -8.627   0.099  0.00  0.00    -0.004 C 
ATOM      6  C   UNL     1       4.168  -9.867   0.681  0.00  0.00    -0.010 C 
ATOM      7  C   UNL     1       4.991 -11.106   0.317  0.00  0.00    -0.082 C 
ATOM      8  N   UNL     1       5.091 -11.218  -1.143  0.00  0.00    +0.379 N 
ATOM      9  C   UNL     1       5.820 -10.066  -1.686  0.00  0.00    -0.082 C 
ATOM     10  C   UNL     1       5.032  -8.783  -1.407  0.00  0.00    -0.010 C 
ATOM     11  C   UNL     1       6.406  -7.371   3.110  0.00  0.00    +0.247 C 
ATOM     12  O   UNL     1       7.144  -8.258   3.491  0.00  0.00    -0.270 OA
ATOM     13  H   UNL     1       5.581 -12.068  -1.381  0.00  0.00    -0.086 HD
ATOM     14  H   UNL     1       4.164 -11.246  -1.540  0.00  0.00    -0.086 HD
ENDROOT
BRANCH  11  15
ATOM     15  C   UNL     1       6.060  -6.255   4.016  0.00  0.00    +0.049 A 
ATOM     16  C   UNL     1       6.046  -4.944   3.539  0.00  0.00    +0.013 A 
ATOM     17  C   UNL     1       5.722  -3.907   4.390  0.00  0.00    +0.001 A 
ATOM     18  C   UNL     1       5.413  -4.166   5.714  0.00  0.00    +0.001 A 
ATOM     19  C   UNL     1       5.425  -5.463   6.193  0.00  0.00    +0.013 A 
ATOM     20  C   UNL     1       5.742  -6.510   5.351  0.00  0.00    +0.067 A 
BRANCH  20  21
ATOM     21  C   UNL     1       5.749  -7.923   5.873  0.00  0.00    +0.418 C 
ATOM     22  F   UNL     1       5.399  -7.922   7.228  0.00  0.00    -0.166 F 
ATOM     23  F   UNL     1       4.826  -8.691   5.154  0.00  0.00    -0.166 F 
ATOM     24  F   UNL     1       7.028  -8.470   5.722  0.00  0.00    -0.166 F 
ENDBRANCH  20  21
ENDBRANCH  11  15
BRANCH   1  26
ATOM     25  N   UNL     1       1.624  -8.046   0.542  0.00  0.00    -0.312 N 
ATOM     26  C   UNL     1       2.769  -7.745   1.187  0.00  0.00    +0.218 C 
ATOM     27  O   UNL     1       2.808  -7.773   2.399  0.00  0.00    -0.275 OA
ATOM     28  H   UNL     1       1.593  -8.024  -0.427  0.00  0.00    +0.149 HD
BRANCH  25  29
ATOM     29  C   UNL     1       0.427  -8.407   1.305  0.00  0.00    +0.148 C 
BRANCH  29  30
ATOM     30  C   UNL     1      -0.724  -8.700   0.340  0.00  0.00    +0.187 C 
ATOM     31  C   UNL     1      -2.005  -8.955   1.137  0.00  0.00    +0.053 C 
BRANCH  30  32
ATOM     32  O   UNL     1      -0.410  -9.856  -0.439  0.00  0.00    -0.488 OA
BRANCH  32  37
ATOM     33  C   UNL     1      -2.957 -10.337  -5.439  0.00  0.00    +0.044 C 
ATOM     34  C   UNL     1      -2.276 -10.209  -4.101  0.00  0.00    -0.050 A 
ATOM     35  C   UNL     1      -2.619  -9.175  -3.249  0.00  0.00    +0.007 A 
ATOM     36  C   UNL     1      -1.995  -9.055  -2.022  0.00  0.00    +0.046 A 
ATOM     37  C   UNL     1      -1.025  -9.972  -1.645  0.00  0.00    +0.121 A 
ATOM     38  C   UNL     1      -0.683 -11.008  -2.502  0.00  0.00    +0.046 A 
ATOM     39  C   UNL     1      -1.313 -11.127  -3.726  0.00  0.00    +0.007 A 
ENDBRANCH  32  37
ENDBRANCH  30  32
ENDBRANCH  29  30
ENDBRANCH  25  29
ENDBRANCH   1  26
TORSDOF 7
