REMARK  Name = ZINC13044385
REMARK  11 active torsions:
REMARK  status: ('A' for Active; 'I' for Inactive)
REMARK    1  A    between atoms: C_1  and  C_2
REMARK    2  A    between atoms: C_2  and  C_3
REMARK    3  A    between atoms: C_3  and  C_4
REMARK    4  A    between atoms: C_4  and  N_5
REMARK    5  A    between atoms: C_11  and  C_35
REMARK    6  A    between atoms: C_15  and  S_16
REMARK    7  A    between atoms: S_16  and  C_17
REMARK    8  A    between atoms: C_17  and  C_18
REMARK    9  A    between atoms: N_23  and  C_24
REMARK   10  A    between atoms: C_29  and  C_34
REMARK   11  A    between atoms: C_31  and  C_33
REMARK                            x       y       z     vdW  Elec       q    Type
REMARK                         _______ _______ _______ _____ _____    ______ ____
ROOT
ATOM      1  N   UNL     1      -6.123   3.257   0.050  0.00  0.00    -0.287 N 
ATOM      2  C   UNL     1      -5.003   4.016   0.049  0.00  0.00    +0.262 A 
ATOM      3  O   UNL     1      -5.066   5.232   0.056  0.00  0.00    -0.267 OA
ATOM      4  C   UNL     1      -3.708   3.319   0.038  0.00  0.00    +0.065 A 
ATOM      5  C   UNL     1      -2.500   4.017   0.035  0.00  0.00    +0.016 A 
ATOM      6  C   UNL     1      -1.319   3.333   0.032  0.00  0.00    +0.016 A 
ATOM      7  C   UNL     1      -1.306   1.933   0.019  0.00  0.00    +0.065 A 
ATOM      8  C   UNL     1      -2.496   1.217   0.021  0.00  0.00    +0.043 A 
ATOM      9  C   UNL     1      -3.712   1.906   0.030  0.00  0.00    +0.080 A 
ATOM     10  N   UNL     1      -4.896   1.250   0.033  0.00  0.00    -0.223 NA
ATOM     11  C   UNL     1      -6.037   1.894   0.042  0.00  0.00    +0.173 A 
ENDROOT
BRANCH   7  12
ATOM     12  C   UNL     1      -0.014   1.210   0.009  0.00  0.00    +0.387 C 
ATOM     13  O   UNL     1       0.002  -0.004   0.002  0.00  0.00    -0.241 OA
ATOM     14  O   UNL     1       1.143   1.899   0.001  0.00  0.00    -0.241 OA
ENDBRANCH   7  12
BRANCH   1  15
ATOM     15  C   UNL     1      -7.439   3.902   0.060  0.00  0.00    +0.127 C 
BRANCH  15  16
ATOM     16  C   UNL     1      -7.889   4.118   1.506  0.00  0.00    +0.021 C 
BRANCH  16  18
ATOM     17  C   UNL     1      -9.714   5.008   2.963  0.00  0.00    +0.004 C 
ATOM     18  C   UNL     1      -9.263   4.792   1.517  0.00  0.00    -0.002 C 
ENDBRANCH  16  18
ENDBRANCH  15  16
ENDBRANCH   1  15
BRANCH  11  19
ATOM     19  S   UNL     1      -7.530   0.958   0.044  0.00  0.00    -0.078 S 
BRANCH  19  20
ATOM     20  C   UNL     1      -6.850  -0.719   0.032  0.00  0.00    +0.173 C 
BRANCH  20  21
ATOM     21  C   UNL     1      -7.978  -1.719   0.032  0.00  0.00    +0.231 C 
ATOM     22  O   UNL     1      -9.127  -1.335   0.040  0.00  0.00    -0.274 OA
ATOM     23  N   UNL     1      -7.708  -3.039   0.024  0.00  0.00    -0.239 N 
ATOM     24  C   UNL     1      -8.716  -3.933   0.024  0.00  0.00    +0.306 C 
ATOM     25  O   UNL     1      -9.869  -3.549   0.032  0.00  0.00    -0.252 OA
ATOM     26  N   UNL     1      -8.446  -5.254   0.015  0.00  0.00    -0.296 N 
ATOM     27  H   UNL     1      -6.787  -3.346   0.017  0.00  0.00    +0.159 HD
ATOM     28  H   UNL     1      -7.526  -5.561   0.009  0.00  0.00    +0.151 HD
BRANCH  26  29
ATOM     29  C   UNL     1      -9.543  -6.225   0.016  0.00  0.00    +0.078 C 
ATOM     30  C   UNL     1     -10.000  -6.477   1.454  0.00  0.00    +0.022 C 
ATOM     31  C   UNL     1      -8.831  -7.028   2.272  0.00  0.00    +0.002 C 
ATOM     32  C   UNL     1      -8.348  -8.341   1.653  0.00  0.00    +0.003 C 
ATOM     33  C   UNL     1      -7.891  -8.089   0.215  0.00  0.00    -0.009 C 
ATOM     34  C   UNL     1      -9.060  -7.539  -0.603  0.00  0.00    +0.009 C 
ATOM     35  C   UNL     1      -8.602  -7.287  -2.041  0.00  0.00    +0.009 C 
ATOM     36  C   UNL     1      -7.408  -9.402  -0.404  0.00  0.00    +0.008 C 
ENDBRANCH  26  29
ENDBRANCH  20  21
ENDBRANCH  19  20
ENDBRANCH  11  19
TORSDOF 8
