REMARK  Name = ZINC36558429
REMARK  14 active torsions:
REMARK  status: ('A' for Active; 'I' for Inactive)
REMARK    1  A    between atoms: C_1  and  C_2
REMARK    2  A    between atoms: C_2  and  C_3
REMARK    3  A    between atoms: C_3  and  C_5
REMARK    4  A    between atoms: C_3  and  C_11
REMARK    5  A    between atoms: N_13  and  C_14
REMARK    6  A    between atoms: N_13  and  C_21
REMARK    7  A    between atoms: C_14  and  C_15
REMARK    8  A    between atoms: C_18  and  C_20
REMARK    9  A    between atoms: C_21  and  C_23
REMARK   10  A    between atoms: C_21  and  C_32
REMARK   11  A    between atoms: C_24  and  O_31
REMARK   12  A    between atoms: C_26  and  O_30
REMARK   13  A    between atoms: C_28  and  O_29
REMARK   14  A    between atoms: N_34  and  C_35
REMARK                            x       y       z     vdW  Elec       q    Type
REMARK                         _______ _______ _______ _____ _____    ______ ____
ROOT
ATOM      1  C   UNL     1       4.189   1.941  -0.959  0.00  0.00    +0.200 C 
ENDROOT
BRANCH   1   2
ATOM      2  C   UNL     1       4.325   2.445   0.455  0.00  0.00    +0.065 A 
ATOM      3  C   UNL     1       3.264   3.099   1.063  0.00  0.00    +0.129 A 
ATOM      4  C   UNL     1       3.389   3.562   2.364  0.00  0.00    +0.091 A 
ATOM      5  C   UNL     1       4.575   3.372   3.057  0.00  0.00    +0.124 A 
ATOM      6  C   UNL     1       5.636   2.717   2.449  0.00  0.00    +0.091 A 
ATOM      7  C   UNL     1       5.509   2.250   1.149  0.00  0.00    +0.129 A 
BRANCH   7   8
ATOM      8  O   UNL     1       6.547   1.604   0.555  0.00  0.00    -0.506 OA
ATOM      9  H   UNL     1       7.153   2.189   0.080  0.00  0.00    +0.292 HD
ENDBRANCH   7   8
BRANCH   5  10
ATOM     10  O   UNL     1       4.698   3.826   4.332  0.00  0.00    -0.507 OA
ATOM     11  H   UNL     1       4.431   3.186   5.005  0.00  0.00    +0.292 HD
ENDBRANCH   5  10
BRANCH   3  12
ATOM     12  O   UNL     1       2.102   3.285   0.384  0.00  0.00    -0.506 OA
ATOM     13  H   UNL     1       1.430   2.612   0.560  0.00  0.00    +0.292 HD
ENDBRANCH   3  12
ENDBRANCH   1   2
BRANCH   1  14
ATOM     14  C   UNL     1       4.194   3.110  -1.911  0.00  0.00    +0.239 C 
ATOM     15  O   UNL     1       3.206   3.360  -2.569  0.00  0.00    -0.273 OA
ATOM     16  N   UNL     1       5.295   3.876  -2.032  0.00  0.00    -0.311 N 
ATOM     17  H   UNL     1       6.086   3.676  -1.506  0.00  0.00    +0.149 HD
BRANCH  16  18
ATOM     18  C   UNL     1       5.300   5.012  -2.957  0.00  0.00    +0.073 C 
ATOM     19  C   UNL     1       5.664   4.525  -4.361  0.00  0.00    +0.022 C 
ATOM     20  C   UNL     1       5.668   5.711  -5.328  0.00  0.00    +0.002 C 
ATOM     21  C   UNL     1       6.697   6.743  -4.864  0.00  0.00    +0.000 C 
ATOM     22  C   UNL     1       6.333   7.231  -3.460  0.00  0.00    +0.002 C 
ATOM     23  C   UNL     1       6.329   6.044  -2.493  0.00  0.00    +0.022 C 
ENDBRANCH  16  18
ENDBRANCH   1  14
BRANCH   1  26
ATOM     24  C   UNL     1       2.869  -0.095  -0.743  0.00  0.00    +0.224 C 
ATOM     25  O   UNL     1       3.835  -0.636  -0.249  0.00  0.00    -0.275 OA
ATOM     26  N   UNL     1       2.931   1.204  -1.096  0.00  0.00    -0.278 N 
BRANCH  24  27
ATOM     27  C   UNL     1       1.598  -0.875  -0.963  0.00  0.00    +0.105 C 
BRANCH  27  28
ATOM     28  C   UNL     1       1.913  -2.148  -1.707  0.00  0.00    -0.036 A 
ATOM     29  C   UNL     1       2.782  -3.072  -1.158  0.00  0.00    +0.004 A 
ATOM     30  C   UNL     1       3.071  -4.240  -1.840  0.00  0.00    +0.000 A 
ATOM     31  C   UNL     1       2.490  -4.483  -3.070  0.00  0.00    +0.000 A 
ATOM     32  C   UNL     1       1.621  -3.559  -3.619  0.00  0.00    +0.000 A 
ATOM     33  C   UNL     1       1.329  -2.394  -2.935  0.00  0.00    +0.004 A 
ENDBRANCH  27  28
BRANCH  27  35
ATOM     34  C   UNL     1       0.560   0.073   1.102  0.00  0.00    +0.005 C 
ATOM     35  C   UNL     1       0.969  -1.217   0.389  0.00  0.00    +0.014 C 
ENDBRANCH  27  35
ENDBRANCH  24  27
BRANCH  26  36
ATOM     36  C   UNL     1       1.739   1.880  -1.617  0.00  0.00    +0.183 C 
BRANCH  36  37
ATOM     37  C   UNL     1       1.577   1.556  -3.080  0.00  0.00    +0.122 A 
ATOM     38  C   UNL     1       0.583   0.828  -3.619  0.00  0.00    +0.046 A 
ATOM     39  C   UNL     1       0.822   0.775  -5.011  0.00  0.00    +0.045 A 
ATOM     40  C   UNL     1       1.948   1.474  -5.240  0.00  0.00    +0.102 A 
ATOM     41  O   UNL     1       2.398   1.949  -4.067  0.00  0.00    -0.463 OA
ATOM     42  C   UNL     1       2.592   1.692  -6.585  0.00  0.00    +0.086 C 
ENDBRANCH  36  37
ENDBRANCH  26  36
ENDBRANCH   1  26
TORSDOF 12
