REMARK  Name = ZINC11787457
REMARK  5 active torsions:
REMARK  status: ('A' for Active; 'I' for Inactive)
REMARK    1  A    between atoms: C_5  and  N_7
REMARK    2  A    between atoms: C_10  and  C_13
REMARK    3  A    between atoms: C_10  and  O_33
REMARK    4  A    between atoms: C_23  and  C_24
REMARK    5  A    between atoms: C_23  and  N_64
REMARK                            x       y       z     vdW  Elec       q    Type
REMARK                         _______ _______ _______ _____ _____    ______ ____
ROOT
ATOM      1  C   UNL     1      -5.095   3.653   0.854  0.00  0.00    -0.016 A 
ATOM      2  C   UNL     1      -5.040   4.885   0.229  0.00  0.00    +0.010 A 
ATOM      3  C   UNL     1      -6.187   5.640   0.078  0.00  0.00    +0.046 A 
ATOM      4  C   UNL     1      -7.396   5.156   0.557  0.00  0.00    +0.122 A 
ATOM      5  C   UNL     1      -7.443   3.930   1.194  0.00  0.00    -0.022 A 
ATOM      6  C   UNL     1      -6.300   3.171   1.333  0.00  0.00    +0.011 A 
ATOM      7  C   UNL     1      -8.764   3.429   1.745  0.00  0.00    -0.039 C 
ATOM      8  C   UNL     1     -10.369   4.296   0.133  0.00  0.00    -0.036 C 
ATOM      9  C   UNL     1      -9.474   5.304  -0.554  0.00  0.00    +0.210 C 
ATOM     10  O   UNL     1      -8.540   5.870   0.374  0.00  0.00    -0.494 OA
ATOM     11  N   UNL     1      -9.639   3.097   0.595  0.00  0.00    +0.387 N 
ATOM     12  H   UNL     1      -9.054   2.750  -0.174  0.00  0.00    -0.081 HD
ENDROOT
BRANCH   1  16
ATOM     13  N   UNL     1      -1.236   2.071   0.019  0.00  0.00    -0.327 N 
ATOM     14  C   UNL     1      -2.365   1.137  -0.081  0.00  0.00    +0.108 C 
ATOM     15  C   UNL     1      -3.670   1.924  -0.214  0.00  0.00    +0.058 C 
ATOM     16  C   UNL     1      -3.841   2.830   1.008  0.00  0.00    +0.094 C 
ATOM     17  C   UNL     1      -2.629   3.760   1.117  0.00  0.00    +0.058 C 
ATOM     18  C   UNL     1      -1.354   2.920   1.212  0.00  0.00    +0.108 C 
BRANCH  13  23
ATOM     19  C   UNL     1       2.381   1.415  -0.013  0.00  0.00    +0.002 A 
ATOM     20  C   UNL     1       2.397   0.032  -0.021  0.00  0.00    +0.003 A 
ATOM     21  C   UNL     1       1.210  -0.677  -0.013  0.00  0.00    +0.040 A 
ATOM     22  C   UNL     1       0.002  -0.004   0.002  0.00  0.00    +0.144 A 
ATOM     23  C   UNL     1      -0.017   1.387   0.010  0.00  0.00    +0.065 A 
ATOM     24  C   UNL     1       1.178   2.094   0.002  0.00  0.00    +0.026 A 
ATOM     25  F   UNL     1      -1.158  -0.697   0.009  0.00  0.00    -0.204 F 
ENDBRANCH  13  23
BRANCH  16  26
ATOM     26  O   UNL     1      -3.937   2.030   2.188  0.00  0.00    -0.384 OA
ATOM     27  H   UNL     1      -4.683   1.416   2.187  0.00  0.00    +0.211 HD
ENDBRANCH  16  26
ENDBRANCH   1  16
BRANCH  11  28
ATOM     28  C   UNL     1     -10.595   2.046   0.978  0.00  0.00    -0.039 C 
BRANCH  28  29
ATOM     29  C   UNL     1     -11.646   1.923  -0.095  0.00  0.00    -0.018 A 
ATOM     30  C   UNL     1     -12.893   2.490   0.091  0.00  0.00    +0.005 A 
ATOM     31  C   UNL     1     -13.860   2.380  -0.890  0.00  0.00    +0.004 A 
ATOM     32  C   UNL     1     -13.584   1.702  -2.063  0.00  0.00    +0.049 A 
ATOM     33  C   UNL     1     -12.337   1.131  -2.257  0.00  0.00    +0.166 A 
ATOM     34  C   UNL     1     -11.361   1.246  -1.269  0.00  0.00    +0.168 A 
ATOM     35  O   UNL     1     -10.234   0.604  -1.693  0.00  0.00    -0.452 OA
ATOM     36  C   UNL     1     -10.658  -0.247  -2.775  0.00  0.00    +0.466 C 
ATOM     37  O   UNL     1     -11.818   0.424  -3.303  0.00  0.00    -0.453 OA
ENDBRANCH  28  29
ENDBRANCH  11  28
TORSDOF 5
