REMARK  Name = ZINC65750174
REMARK  9 active torsions:
REMARK  status: ('A' for Active; 'I' for Inactive)
REMARK    1  A    between atoms: C_1  and  C_2
REMARK    2  A    between atoms: C_4  and  C_14
REMARK    3  A    between atoms: C_8  and  C_13
REMARK    4  A    between atoms: C_9  and  C_12
REMARK    5  A    between atoms: C_14  and  N_15
REMARK    6  A    between atoms: N_15  and  C_16
REMARK    7  A    between atoms: C_19  and  S_25
REMARK    8  A    between atoms: C_21  and  N_22
REMARK    9  A    between atoms: S_25  and  N_28
REMARK                            x       y       z     vdW  Elec       q    Type
REMARK                         _______ _______ _______ _____ _____    ______ ____
ROOT
ATOM      1  N   UNL     1      -1.505  -2.842  -3.129  0.00  0.00    -0.338 N 
ATOM      2  H   UNL     1      -2.245  -2.656  -2.530  0.00  0.00    +0.146 HD
ENDROOT
BRANCH   1   3
ATOM      3  C   UNL     1      -1.665  -3.754  -4.175  0.00  0.00    +0.058 A 
ATOM      4  C   UNL     1      -0.649  -3.932  -5.105  0.00  0.00    +0.027 A 
ATOM      5  C   UNL     1      -0.810  -4.834  -6.138  0.00  0.00    +0.030 A 
ATOM      6  C   UNL     1      -1.982  -5.561  -6.246  0.00  0.00    +0.107 A 
ATOM      7  C   UNL     1      -2.996  -5.387  -5.322  0.00  0.00    +0.063 A 
ATOM      8  C   UNL     1      -2.838  -4.490  -4.283  0.00  0.00    +0.149 A 
BRANCH   8   9
ATOM      9  N   UNL     1      -3.921  -4.308  -3.291  0.00  0.00    +0.058 N 
ATOM     10  O   UNL     1      -3.650  -4.129  -2.126  0.00  0.00    -0.126 OA
ATOM     11  O   UNL     1      -5.077  -4.338  -3.645  0.00  0.00    -0.126 OA
ENDBRANCH   8   9
BRANCH   6  12
ATOM     12  S   UNL     1      -2.184  -6.712  -7.565  0.00  0.00    +0.056 S 
ATOM     13  O   UNL     1      -3.583  -6.867  -7.758  0.00  0.00    -0.153 OA
ATOM     14  O   UNL     1      -1.313  -6.293  -8.606  0.00  0.00    -0.153 OA
BRANCH  12  15
ATOM     15  N   UNL     1      -1.615  -8.173  -7.031  0.00  0.00    -0.204 NA
ATOM     16  H   UNL     1      -1.258  -8.256  -6.133  0.00  0.00    +0.144 HD
ATOM     17  H   UNL     1      -1.639  -8.946  -7.617  0.00  0.00    +0.144 HD
ENDBRANCH  12  15
ENDBRANCH   6  12
ENDBRANCH   1   3
BRANCH   1  18
ATOM     18  C   UNL     1      -0.220  -2.167  -2.936  0.00  0.00    +0.139 C 
BRANCH  18  22
ATOM     19  C   UNL     1      -0.809   2.443  -1.086  0.00  0.00    +0.044 C 
ATOM     20  C   UNL     1      -0.593   0.970  -0.854  0.00  0.00    -0.049 A 
ATOM     21  C   UNL     1      -0.507   0.108  -1.939  0.00  0.00    +0.010 A 
ATOM     22  C   UNL     1      -0.310  -1.242  -1.750  0.00  0.00    -0.006 A 
ATOM     23  C   UNL     1      -0.197  -1.750  -0.459  0.00  0.00    +0.052 A 
ATOM     24  C   UNL     1      -0.285  -0.872   0.636  0.00  0.00    +0.003 A 
ATOM     25  C   UNL     1      -0.479   0.494   0.421  0.00  0.00    +0.013 A 
ATOM     26  C   UNL     1      -0.129  -1.702   1.833  0.00  0.00    -0.022 A 
ATOM     27  C   UNL     1       0.035  -2.967   1.415  0.00  0.00    +0.017 A 
ATOM     28  N   UNL     1      -0.002  -3.015   0.048  0.00  0.00    -0.358 N 
ATOM     29  H   UNL     1       0.094  -3.820  -0.484  0.00  0.00    +0.166 HD
ATOM     30  C   UNL     1       0.232  -4.158   2.317  0.00  0.00    +0.063 C 
ATOM     31  C   UNL     1      -0.149  -1.226   3.263  0.00  0.00    +0.046 C 
ENDBRANCH  18  22
ENDBRANCH   1  18
TORSDOF 6
