REMARK  Name = ZINC09242784
REMARK  12 active torsions:
REMARK  status: ('A' for Active; 'I' for Inactive)
REMARK    1  A    between atoms: C_1  and  C_2
REMARK    2  A    between atoms: C_4  and  O_39
REMARK    3  A    between atoms: C_5  and  C_9
REMARK    4  A    between atoms: N_17  and  C_27
REMARK    5  A    between atoms: C_18  and  C_20
REMARK    6  A    between atoms: C_24  and  O_26
REMARK    7  A    between atoms: C_27  and  C_28
REMARK    8  A    between atoms: C_28  and  C_29
REMARK    9  A    between atoms: C_32  and  O_37
REMARK   10  A    between atoms: C_33  and  O_35
REMARK   11  A    between atoms: O_35  and  C_36
REMARK   12  A    between atoms: O_37  and  C_38
REMARK                            x       y       z     vdW  Elec       q    Type
REMARK                         _______ _______ _______ _____ _____    ______ ____
ROOT
ATOM      1  C   UNL     1      -0.190  -4.648  -0.085  0.00  0.00    +0.102 A 
ATOM      2  C   UNL     1       0.060  -5.307   1.123  0.00  0.00    +0.035 A 
ATOM      3  C   UNL     1       0.107  -6.653   0.815  0.00  0.00    +0.126 A 
ATOM      4  N   UNL     1      -0.112  -6.742  -0.530  0.00  0.00    -0.272 N 
ATOM      5  H   UNL     1      -0.137  -7.569  -1.036  0.00  0.00    +0.189 HD
ATOM      6  N   UNL     1      -0.286  -5.568  -1.024  0.00  0.00    -0.173 NA
ATOM      7  C   UNL     1       0.367  -7.404   2.048  0.00  0.00    +0.265 C 
ATOM      8  O   UNL     1       0.467  -8.615   2.115  0.00  0.00    -0.268 OA
ATOM      9  N   UNL     1       0.481  -6.565   3.093  0.00  0.00    -0.285 N 
ATOM     10  C   UNL     1       0.299  -5.193   2.604  0.00  0.00    +0.141 C 
ENDROOT
BRANCH   1  15
ATOM     11  C   UNL     1      -0.726   1.044  -0.817  0.00  0.00    +0.045 C 
ATOM     12  C   UNL     1      -0.588  -0.444  -0.627  0.00  0.00    -0.029 A 
ATOM     13  C   UNL     1      -1.508  -1.300  -1.204  0.00  0.00    +0.050 A 
ATOM     14  C   UNL     1      -1.385  -2.669  -1.032  0.00  0.00    +0.126 A 
ATOM     15  C   UNL     1      -0.329  -3.182  -0.275  0.00  0.00    +0.045 A 
ATOM     16  C   UNL     1       0.594  -2.313   0.302  0.00  0.00    +0.034 A 
ATOM     17  C   UNL     1       0.463  -0.950   0.119  0.00  0.00    +0.045 A 
ATOM     18 CL   UNL     1       1.617   0.134   0.832  0.00  0.00    -0.083 Cl
BRANCH  14  19
ATOM     19  O   UNL     1      -2.290  -3.510  -1.597  0.00  0.00    -0.506 OA
ATOM     20  H   UNL     1      -2.054  -3.801  -2.489  0.00  0.00    +0.292 HD
ENDBRANCH  14  19
ENDBRANCH   1  15
BRANCH  10  21
ATOM     21  C   UNL     1      -0.891  -4.556   3.274  0.00  0.00    -0.019 A 
ATOM     22  C   UNL     1      -2.056  -5.280   3.445  0.00  0.00    +0.006 A 
ATOM     23  C   UNL     1      -3.150  -4.699   4.059  0.00  0.00    +0.004 A 
ATOM     24  C   UNL     1      -3.081  -3.393   4.504  0.00  0.00    +0.045 A 
ATOM     25  C   UNL     1      -1.913  -2.665   4.334  0.00  0.00    +0.117 A 
ATOM     26  C   UNL     1      -0.815  -3.252   3.722  0.00  0.00    +0.051 A 
BRANCH  25  27
ATOM     27  O   UNL     1      -1.843  -1.379   4.770  0.00  0.00    -0.507 OA
ATOM     28  H   UNL     1      -1.532  -1.290   5.681  0.00  0.00    +0.292 HD
ENDBRANCH  25  27
ENDBRANCH  10  21
BRANCH   9  29
ATOM     29  C   UNL     1       0.741  -6.954   4.482  0.00  0.00    +0.114 C 
BRANCH  29  30
ATOM     30  C   UNL     1       2.250  -6.986   4.729  0.00  0.00    +0.054 C 
BRANCH  30  31
ATOM     31  C   UNL     1       2.518  -7.386   6.157  0.00  0.00    -0.042 A 
ATOM     32  C   UNL     1       2.605  -6.417   7.139  0.00  0.00    +0.007 A 
ATOM     33  C   UNL     1       2.850  -6.779   8.451  0.00  0.00    +0.049 A 
ATOM     34  C   UNL     1       3.008  -8.115   8.783  0.00  0.00    +0.161 A 
ATOM     35  C   UNL     1       2.920  -9.090   7.794  0.00  0.00    +0.162 A 
ATOM     36  C   UNL     1       2.669  -8.721   6.482  0.00  0.00    +0.053 A 
BRANCH  35  37
ATOM     37  O   UNL     1       3.074 -10.402   8.115  0.00  0.00    -0.491 OA
ATOM     38  C   UNL     1       2.971 -11.348   7.049  0.00  0.00    +0.277 C 
ENDBRANCH  35  37
BRANCH  34  39
ATOM     39  O   UNL     1       3.250  -8.473  10.073  0.00  0.00    -0.491 OA
ATOM     40  C   UNL     1       3.328  -7.418  11.034  0.00  0.00    +0.277 C 
ENDBRANCH  34  39
ENDBRANCH  30  31
ENDBRANCH  29  30
ENDBRANCH   9  29
TORSDOF 9
