REMARK  Name = ZINC63175523
REMARK  6 active torsions:
REMARK  status: ('A' for Active; 'I' for Inactive)
REMARK    1  A    between atoms: C_1  and  C_2
REMARK    2  A    between atoms: C_4  and  N_20
REMARK    3  A    between atoms: C_7  and  S_8
REMARK    4  A    between atoms: S_8  and  N_11
REMARK    5  A    between atoms: N_11  and  C_12
REMARK    6  A    between atoms: C_17  and  N_19
REMARK                            x       y       z     vdW  Elec       q    Type
REMARK                         _______ _______ _______ _____ _____    ______ ____
ROOT
ATOM      1  S   UNL     1      -0.044  -0.070   2.706  0.00  0.00    +0.059 S 
ATOM      2  O   UNL     1      -1.259   0.667   2.701  0.00  0.00    -0.153 OA
ATOM      3  O   UNL     1       0.201  -1.129   3.622  0.00  0.00    -0.153 OA
ENDROOT
BRANCH   1  10
ATOM      4  C   UNL     1       2.294  -1.781   1.837  0.00  0.00    +0.046 C 
ATOM      5  C   UNL     1       1.245  -1.521   0.787  0.00  0.00    -0.022 A 
ATOM      6  C   UNL     1       1.386  -2.058  -0.479  0.00  0.00    +0.038 A 
ATOM      7  C   UNL     1       0.424  -1.820  -1.442  0.00  0.00    +0.127 A 
ATOM      8  C   UNL     1      -0.679  -1.044  -1.140  0.00  0.00    +0.034 A 
ATOM      9  C   UNL     1      -0.821  -0.507   0.126  0.00  0.00    +0.031 A 
ATOM     10  C   UNL     1       0.139  -0.749   1.091  0.00  0.00    +0.108 A 
BRANCH   7  11
ATOM     11  N   UNL     1       0.576  -2.395  -2.798  0.00  0.00    +0.056 N 
ATOM     12  O   UNL     1       1.541  -3.073  -3.063  0.00  0.00    -0.126 OA
ATOM     13  O   UNL     1      -0.266  -2.186  -3.641  0.00  0.00    -0.126 OA
ENDBRANCH   7  11
ENDBRANCH   1  10
BRANCH   1  14
ATOM     14  N   UNL     1       1.176   1.029   2.916  0.00  0.00    -0.188 NA
ATOM     15  H   UNL     1       1.864   0.869   3.581  0.00  0.00    +0.148 HD
BRANCH  14  16
ATOM     16  C   UNL     1       1.217   2.244   2.098  0.00  0.00    +0.062 C 
ATOM     17  C   UNL     1       0.614   3.425   2.878  0.00  0.00    +0.019 C 
ATOM     18  C   UNL     1       1.731   4.481   3.013  0.00  0.00    -0.000 C 
ATOM     19  C   UNL     1       3.041   3.667   2.872  0.00  0.00    -0.015 C 
ATOM     20  C   UNL     1       2.680   2.622   1.786  0.00  0.00    -0.056 C 
BRANCH  20  21
ATOM     21  N   UNL     1       3.550   1.443   1.895  0.00  0.00    +0.381 N 
ATOM     22  H   UNL     1       3.246   0.739   1.239  0.00  0.00    -0.090 HD
ATOM     23  H   UNL     1       4.501   1.707   1.688  0.00  0.00    -0.090 HD
ATOM     24  H   UNL     1       3.500   1.074   2.832  0.00  0.00    -0.090 HD
ENDBRANCH  20  21
ENDBRANCH  14  16
ENDBRANCH   1  14
TORSDOF 5
