REMARK  Name = ZINC51951931
REMARK  10 active torsions:
REMARK  status: ('A' for Active; 'I' for Inactive)
REMARK    1  A    between atoms: C_1  and  C_2
REMARK    2  A    between atoms: C_2  and  C_3
REMARK    3  A    between atoms: C_3  and  C_4
REMARK    4  A    between atoms: C_4  and  C_6
REMARK    5  A    between atoms: C_4  and  C_7
REMARK    6  A    between atoms: C_7  and  C_9
REMARK    7  A    between atoms: C_7  and  N_22
REMARK    8  A    between atoms: N_16  and  C_21
REMARK    9  A    between atoms: N_19  and  C_20
REMARK   10  A    between atoms: N_22  and  C_23
REMARK                            x       y       z     vdW  Elec       q    Type
REMARK                         _______ _______ _______ _____ _____    ______ ____
ROOT
ATOM      1  C   UNL     1       1.730  -4.046   2.325  0.00  0.00    -0.045 A 
ATOM      2  C   UNL     1       0.855  -4.845   3.034  0.00  0.00    +0.031 A 
ATOM      3  C   UNL     1       0.967  -6.225   2.961  0.00  0.00    +0.070 A 
ATOM      4  C   UNL     1       1.965  -6.801   2.172  0.00  0.00    +0.071 A 
ATOM      5  C   UNL     1       2.840  -5.992   1.465  0.00  0.00    +0.043 A 
ATOM      6  C   UNL     1       2.716  -4.617   1.538  0.00  0.00    +0.022 A 
ATOM      7 BR   UNL     1       3.904  -3.511   0.567  0.00  0.00    -0.050 Br
ATOM      8  N   UNL     1       1.830  -8.182   2.297  0.00  0.00    -0.295 N 
ATOM      9  C   UNL     1       0.798  -8.434   3.124  0.00  0.00    +0.330 A 
ATOM     10  O   UNL     1       0.412  -9.543   3.446  0.00  0.00    -0.246 OA
ATOM     11  N   UNL     1       0.257  -7.274   3.541  0.00  0.00    -0.295 N 
ATOM     12  C   UNL     1      -0.884  -7.138   4.450  0.00  0.00    +0.154 C 
ATOM     13  C   UNL     1       2.668  -9.188   1.641  0.00  0.00    +0.154 C 
ENDROOT
BRANCH   1  14
ATOM     14  C   UNL     1       1.608  -2.546   2.404  0.00  0.00    -0.037 C 
BRANCH  14  15
ATOM     15  N   UNL     1       0.964  -2.173   3.670  0.00  0.00    +0.382 N 
ATOM     16  C   UNL     1       1.833  -2.551   4.792  0.00  0.00    -0.100 C 
ATOM     17  H   UNL     1       0.807  -1.176   3.687  0.00  0.00    -0.085 HD
ATOM     18  H   UNL     1       0.080  -2.653   3.752  0.00  0.00    -0.085 HD
ENDBRANCH  14  15
BRANCH  14  19
ATOM     19  C   UNL     1       0.763  -2.041   1.233  0.00  0.00    -0.024 C 
ATOM     20  C   UNL     1      -0.666  -2.571   1.370  0.00  0.00    +0.006 C 
BRANCH  19  21
ATOM     21  C   UNL     1       0.742  -0.511   1.242  0.00  0.00    +0.002 C 
BRANCH  21  23
ATOM     22  C   UNL     1      -0.019   1.526   0.010  0.00  0.00    +0.004 C 
ATOM     23  C   UNL     1       0.002  -0.004   0.002  0.00  0.00    -0.003 C 
ENDBRANCH  21  23
ENDBRANCH  19  21
ENDBRANCH  14  19
ENDBRANCH   1  14
TORSDOF 5
