REMARK  Name = ZINC39556195
REMARK  4 active torsions:
REMARK  status: ('A' for Active; 'I' for Inactive)
REMARK    1  A    between atoms: C_1  and  C_2
REMARK    2  A    between atoms: C_8  and  C_10
REMARK    3  A    between atoms: C_13  and  C_26
REMARK    4  A    between atoms: N_15  and  C_19
REMARK                            x       y       z     vdW  Elec       q    Type
REMARK                         _______ _______ _______ _____ _____    ______ ____
ROOT
ATOM      1  C   UNL     1       0.089  -5.902   1.252  0.00  0.00    +0.072 C 
ATOM      2  C   UNL     1       0.110  -7.162   0.721  0.00  0.00    +0.028 C 
ATOM      3  C   UNL     1       0.104  -8.284   1.542  0.00  0.00    +0.004 C 
ATOM      4  C   UNL     1      -0.197  -9.601   1.653  0.00  0.00    +0.025 C 
ATOM      5  N   UNL     1      -0.384  -9.951   2.967  0.00  0.00    -0.267 N 
ATOM      6  N   UNL     1      -0.234  -8.804   3.783  0.00  0.00    -0.236 N 
ATOM      7  C   UNL     1       0.618  -7.943   2.957  0.00  0.00    +0.188 C 
ATOM      8  S   UNL     1       0.101  -6.187   3.021  0.00  0.00    -0.091 S 
ATOM      9  C   UNL     1      -0.311 -10.552   0.489  0.00  0.00    +0.062 C 
ATOM     10  H   UNL     1      -0.588 -10.844   3.286  0.00  0.00    +0.170 HD
ENDROOT
BRANCH   1  18
ATOM     11  C   UNL     1      -0.018   1.503   0.010  0.00  0.00    +0.063 C 
ATOM     12  C   UNL     1       0.002  -0.004   0.002  0.00  0.00    +0.045 C 
ATOM     13  N   UNL     1       0.008  -0.775  -1.034  0.00  0.00    -0.157 NA
ATOM     14  N   UNL     1       0.029  -2.124  -0.696  0.00  0.00    -0.138 NA
ATOM     15  C   UNL     1       0.037  -2.308   0.594  0.00  0.00    +0.130 C 
ATOM     16  C   UNL     1       0.026  -0.921   1.208  0.00  0.00    +0.126 C 
ATOM     17  N   UNL     1       0.056  -3.508   1.260  0.00  0.00    -0.268 N 
ATOM     18  C   UNL     1       0.069  -4.663   0.565  0.00  0.00    +0.256 C 
ATOM     19  O   UNL     1       0.064  -4.642  -0.653  0.00  0.00    -0.269 OA
ATOM     20  H   UNL     1       0.060  -3.525   2.229  0.00  0.00    +0.156 HD
ENDBRANCH   1  18
BRANCH   6  21
ATOM     21  C   UNL     1      -0.762  -8.557   5.053  0.00  0.00    +0.049 A 
ATOM     22  C   UNL     1      -0.500  -7.352   5.693  0.00  0.00    +0.026 A 
ATOM     23  C   UNL     1      -1.024  -7.110   6.947  0.00  0.00    +0.022 A 
ATOM     24  C   UNL     1      -1.810  -8.066   7.567  0.00  0.00    +0.041 A 
ATOM     25  C   UNL     1      -2.073  -9.267   6.932  0.00  0.00    +0.022 A 
ATOM     26  C   UNL     1      -1.556  -9.512   5.675  0.00  0.00    +0.026 A 
ATOM     27 CL   UNL     1      -2.466  -7.758   9.144  0.00  0.00    -0.084 Cl
ENDBRANCH   6  21
TORSDOF 2
