REMARK  Name = ZINC62243087
REMARK  4 active torsions:
REMARK  status: ('A' for Active; 'I' for Inactive)
REMARK    1  A    between atoms: C_4  and  C_6
REMARK    2  A    between atoms: C_4  and  N_10
REMARK    3  A    between atoms: N_7  and  O_8
REMARK    4  A    between atoms: C_11  and  C_13
REMARK                            x       y       z     vdW  Elec       q    Type
REMARK                         _______ _______ _______ _____ _____    ______ ____
ROOT
ATOM      1  C   UNL     1      -0.276   1.077   0.360  0.00  0.00    +0.003 C 
ATOM      2  C   UNL     1       1.182   1.562   0.561  0.00  0.00    +0.003 C 
ATOM      3  C   UNL     1       1.943   0.841  -0.579  0.00  0.00    +0.033 C 
ATOM      4  C   UNL     1       1.282  -0.551  -0.654  0.00  0.00    +0.093 C 
ATOM      5  C   UNL     1      -0.128  -0.401  -0.057  0.00  0.00    +0.033 C 
ENDROOT
BRANCH   4   6
ATOM      6  C   UNL     1       1.190  -1.002  -2.089  0.00  0.00    +0.155 C 
ATOM      7  N   UNL     1       0.435  -0.363  -2.920  0.00  0.00    -0.075 NA
ATOM      8  N   UNL     1       1.911  -2.096  -2.514  0.00  0.00    -0.342 N 
ATOM      9  H   UNL     1       2.551  -2.517  -1.918  0.00  0.00    +0.144 HD
ATOM     10  H   UNL     1       1.780  -2.445  -3.409  0.00  0.00    +0.144 HD
BRANCH   7  11
ATOM     11  O   UNL     1      -0.208   0.832  -2.517  0.00  0.00    -0.408 OA
ATOM     12  H   UNL     1      -0.751   1.238  -3.206  0.00  0.00    +0.328 HD
ENDBRANCH   7  11
ENDBRANCH   4   6
BRANCH   4  13
ATOM     13  N   UNL     1       2.058  -1.517   0.128  0.00  0.00    -0.303 N 
ATOM     14  C   UNL     1       1.598  -2.773   0.295  0.00  0.00    +0.219 C 
ATOM     15  O   UNL     1       0.591  -3.131  -0.278  0.00  0.00    -0.275 OA
ATOM     16  H   UNL     1       2.902  -1.253   0.525  0.00  0.00    +0.150 HD
BRANCH  14  17
ATOM     17  C   UNL     1       2.335  -3.732   1.195  0.00  0.00    +0.101 C 
ATOM     18  C   UNL     1       1.607  -5.079   1.212  0.00  0.00    +0.017 C 
ATOM     19  C   UNL     1       2.320  -6.020   2.189  0.00  0.00    +0.029 C 
ATOM     20  C   UNL     1       2.366  -5.366   3.573  0.00  0.00    +0.160 C 
ATOM     21  O   UNL     1       3.028  -4.103   3.480  0.00  0.00    -0.379 OA
ATOM     22  C   UNL     1       2.382  -3.166   2.617  0.00  0.00    +0.172 C 
ENDBRANCH  14  17
ENDBRANCH   4  13
TORSDOF 4
