REMARK  Name = ZINC13065589
REMARK  9 active torsions:
REMARK  status: ('A' for Active; 'I' for Inactive)
REMARK    1  A    between atoms: C_1  and  C_2
REMARK    2  A    between atoms: C_4  and  C_32
REMARK    3  A    between atoms: C_9  and  C_14
REMARK    4  A    between atoms: C_14  and  N_60
REMARK    5  A    between atoms: C_15  and  C_16
REMARK    6  A    between atoms: C_15  and  N_60
REMARK    7  A    between atoms: N_20  and  C_21
REMARK    8  A    between atoms: C_21  and  C_22
REMARK    9  A    between atoms: C_27  and  N_60
REMARK                            x       y       z     vdW  Elec       q    Type
REMARK                         _______ _______ _______ _____ _____    ______ ____
ROOT
ATOM      1  N   UNL     1      -0.896   1.356  -1.055  0.00  0.00    +0.389 N 
ATOM      2  H   UNL     1      -1.784   0.980  -0.703  0.00  0.00    -0.080 HD
ENDROOT
BRANCH   1   3
ATOM      3  C   UNL     1      -0.964   2.832  -1.049  0.00  0.00    -0.068 C 
ATOM      4  C   UNL     1      -2.308   3.283  -1.657  0.00  0.00    -0.015 C 
ATOM      5  C   UNL     1      -1.958   4.571  -2.442  0.00  0.00    -0.002 C 
ATOM      6  C   UNL     1      -0.569   4.239  -3.042  0.00  0.00    -0.002 C 
ATOM      7  C   UNL     1       0.142   3.440  -1.929  0.00  0.00    -0.015 C 
ENDBRANCH   1   3
BRANCH   1   8
ATOM      8  C   UNL     1       0.201   0.898  -0.176  0.00  0.00    -0.037 C 
BRANCH   8  17
ATOM      9  C   UNL     1      -2.795  -0.866   6.422  0.00  0.00    +0.044 C 
ATOM     10  C   UNL     1      -2.079   0.108   5.522  0.00  0.00    -0.050 A 
ATOM     11  C   UNL     1      -1.722   1.359   6.007  0.00  0.00    +0.008 A 
ATOM     12  C   UNL     1      -1.068   2.266   5.201  0.00  0.00    -0.026 A 
ATOM     13  C   UNL     1      -0.761   1.926   3.887  0.00  0.00    +0.052 A 
ATOM     14  C   UNL     1      -1.124   0.657   3.399  0.00  0.00    -0.001 A 
ATOM     15  C   UNL     1      -1.788  -0.247   4.235  0.00  0.00    +0.013 A 
ATOM     16  C   UNL     1      -0.796   0.308   2.016  0.00  0.00    +0.017 A 
ATOM     17  C   UNL     1      -0.151   1.225   1.252  0.00  0.00    +0.001 A 
ATOM     18  C   UNL     1       0.196   2.482   1.792  0.00  0.00    +0.251 A 
ATOM     19  O   UNL     1       0.779   3.289   1.090  0.00  0.00    -0.268 OA
ATOM     20  N   UNL     1      -0.106   2.813   3.060  0.00  0.00    -0.322 N 
ATOM     21  H   UNL     1       0.143   3.687   3.398  0.00  0.00    +0.169 HD
ATOM     22  C   UNL     1      -0.687   3.620   5.741  0.00  0.00    +0.046 C 
ENDBRANCH   8  17
ENDBRANCH   1   8
BRANCH   1  23
ATOM     23  C   UNL     1      -0.678   0.866  -2.432  0.00  0.00    +0.001 C 
BRANCH  23  24
ATOM     24  C   UNL     1      -1.975   0.967  -3.192  0.00  0.00    +0.136 A 
ATOM     25  N   UNL     1      -2.314   1.906  -4.041  0.00  0.00    -0.115 NA
ATOM     26  N   UNL     1      -3.496   1.639  -4.478  0.00  0.00    -0.023 NA
ATOM     27  N   UNL     1      -3.921   0.555  -3.930  0.00  0.00    -0.044 NA
ATOM     28  N   UNL     1      -3.009   0.106  -3.135  0.00  0.00    -0.224 N 
BRANCH  28  29
ATOM     29  C   UNL     1      -3.087  -1.108  -2.319  0.00  0.00    +0.221 C 
BRANCH  29  30
ATOM     30  C   UNL     1      -3.679  -0.774  -0.975  0.00  0.00    +0.126 A 
ATOM     31  C   UNL     1      -4.987  -0.793  -0.665  0.00  0.00    +0.046 A 
ATOM     32  C   UNL     1      -5.092  -0.417   0.694  0.00  0.00    +0.041 A 
ATOM     33  C   UNL     1      -3.842  -0.183   1.131  0.00  0.00    +0.195 A 
ATOM     34  O   UNL     1      -2.990  -0.401   0.116  0.00  0.00    -0.466 OA
ENDBRANCH  29  30
ENDBRANCH  28  29
ENDBRANCH  23  24
ENDBRANCH   1  23
TORSDOF 7
