REMARK  Name = ZINC59992920
REMARK  8 active torsions:
REMARK  status: ('A' for Active; 'I' for Inactive)
REMARK    1  A    between atoms: C_1  and  C_2
REMARK    2  A    between atoms: C_5  and  C_33
REMARK    3  A    between atoms: N_8  and  C_10
REMARK    4  A    between atoms: C_10  and  C_11
REMARK    5  A    between atoms: C_10  and  C_12
REMARK    6  A    between atoms: C_10  and  C_13
REMARK    7  A    between atoms: C_13  and  N_14
REMARK    8  A    between atoms: C_21  and  C_23
REMARK                            x       y       z     vdW  Elec       q    Type
REMARK                         _______ _______ _______ _____ _____    ______ ____
ROOT
ATOM      1  N   UNL     1       0.625  -0.480   3.560  0.00  0.00    -0.301 N 
ATOM      2  C   UNL     1      -0.331  -0.065   4.415  0.00  0.00    +0.303 C 
ATOM      3  O   UNL     1      -0.086   0.811   5.222  0.00  0.00    -0.253 OA
ATOM      4  N   UNL     1      -1.558  -0.621   4.375  0.00  0.00    -0.279 N 
ATOM      5  C   UNL     1      -1.987  -1.691   3.456  0.00  0.00    +0.110 C 
ATOM      6  C   UNL     1      -3.170  -2.383   4.178  0.00  0.00    +0.021 C 
ATOM      7  C   UNL     1      -3.872  -1.175   4.854  0.00  0.00    +0.029 C 
ATOM      8  C   UNL     1      -2.688  -0.265   5.245  0.00  0.00    +0.108 C 
ATOM      9  H   UNL     1       0.430  -1.178   2.916  0.00  0.00    +0.150 HD
ENDROOT
BRANCH   8  10
ATOM     10  C   UNL     1      -3.064   1.179   5.033  0.00  0.00    -0.023 A 
ATOM     11  C   UNL     1      -3.037   1.719   3.761  0.00  0.00    +0.009 A 
ATOM     12  C   UNL     1      -3.380   3.043   3.562  0.00  0.00    +0.050 A 
ATOM     13  C   UNL     1      -3.752   3.833   4.639  0.00  0.00    +0.162 A 
ATOM     14  C   UNL     1      -3.781   3.290   5.918  0.00  0.00    +0.162 A 
ATOM     15  C   UNL     1      -3.441   1.959   6.110  0.00  0.00    +0.055 A 
ATOM     16  O   UNL     1      -4.151   4.045   6.988  0.00  0.00    -0.485 OA
ATOM     17  C   UNL     1      -4.131   5.466   6.810  0.00  0.00    +0.270 C 
ATOM     18  C   UNL     1      -4.810   5.793   5.473  0.00  0.00    +0.270 C 
ATOM     19  O   UNL     1      -4.083   5.137   4.429  0.00  0.00    -0.485 OA
ENDBRANCH   8  10
BRANCH   1  20
ATOM     20  C   UNL     1       1.959   0.125   3.603  0.00  0.00    +0.093 C 
BRANCH  20  21
ATOM     21  C   UNL     1       2.882  -0.607   2.627  0.00  0.00    -0.055 C 
ATOM     22  C   UNL     1       4.296  -0.031   2.733  0.00  0.00    -0.008 C 
ATOM     23  C   UNL     1       2.363  -0.425   1.199  0.00  0.00    -0.008 C 
BRANCH  21  29
ATOM     24  C   UNL     1       1.895  -4.204   4.600  0.00  0.00    +0.005 C 
ATOM     25  C   UNL     1       3.332  -3.691   4.717  0.00  0.00    -0.031 C 
ATOM     26  C   UNL     1       4.237  -4.483   3.768  0.00  0.00    +0.003 C 
ATOM     27  C   UNL     1       3.785  -4.237   2.326  0.00  0.00    -0.031 C 
ATOM     28  C   UNL     1       3.814  -2.735   2.036  0.00  0.00    -0.075 C 
ATOM     29  N   UNL     1       2.910  -2.038   2.959  0.00  0.00    +0.384 N 
ATOM     30  C   UNL     1       3.378  -2.209   4.341  0.00  0.00    -0.075 C 
ATOM     31  C   UNL     1       4.729  -4.962   1.364  0.00  0.00    +0.005 C 
ATOM     32  H   UNL     1       1.980  -2.420   2.870  0.00  0.00    -0.081 HD
ENDBRANCH  21  29
ENDBRANCH  20  21
ENDBRANCH   1  20
TORSDOF 4
