REMARK  Name = ZINC38819100
REMARK  8 active torsions:
REMARK  status: ('A' for Active; 'I' for Inactive)
REMARK    1  A    between atoms: C_1  and  C_2
REMARK    2  A    between atoms: C_7  and  C_12
REMARK    3  A    between atoms: C_13  and  N_23
REMARK    4  A    between atoms: N_14  and  C_18
REMARK    5  A    between atoms: C_18  and  C_19
REMARK    6  A    between atoms: C_19  and  C_20
REMARK    7  A    between atoms: C_20  and  O_21
REMARK    8  A    between atoms: O_21  and  C_22
REMARK                            x       y       z     vdW  Elec       q    Type
REMARK                         _______ _______ _______ _____ _____    ______ ____
ROOT
ATOM      1  C   UNL     1       1.313  -5.080   1.946  0.00  0.00    +0.074 C 
ATOM      2  C   UNL     1       1.329  -6.293   2.594  0.00  0.00    +0.095 C 
ATOM      3  N   UNL     1       2.602  -6.723   2.829  0.00  0.00    -0.311 N 
ATOM      4  C   UNL     1       3.519  -5.706   2.291  0.00  0.00    +0.185 C 
ATOM      5  C   UNL     1       2.611  -4.641   1.712  0.00  0.00    +0.183 C 
ATOM      6  O   UNL     1       2.949  -3.612   1.158  0.00  0.00    -0.290 OA
ENDROOT
BRANCH   1  13
ATOM      7  C   UNL     1      -0.018   1.503   0.010  0.00  0.00    +0.044 C 
ATOM      8  C   UNL     1       0.002  -0.004   0.002  0.00  0.00    -0.048 A 
ATOM      9  C   UNL     1       0.005  -0.672  -1.235  0.00  0.00    +0.005 A 
ATOM     10  C   UNL     1       0.022  -2.017  -1.335  0.00  0.00    +0.027 A 
ATOM     11  C   UNL     1       0.040  -2.834  -0.114  0.00  0.00    +0.060 A 
ATOM     12  N   UNL     1       0.057  -4.120   0.090  0.00  0.00    -0.359 N 
ATOM     13  C   UNL     1       0.067  -4.335   1.542  0.00  0.00    +0.212 C 
ATOM     14  N   UNL     1       0.053  -3.002   2.159  0.00  0.00    -0.359 N 
ATOM     15  C   UNL     1       0.037  -2.127   1.195  0.00  0.00    +0.061 A 
ATOM     16  C   UNL     1       0.022  -0.657   1.181  0.00  0.00    +0.030 A 
ATOM     17  H   UNL     1       0.062  -4.809  -0.593  0.00  0.00    +0.162 HD
ATOM     18  H   UNL     1       0.055  -2.810   3.109  0.00  0.00    +0.162 HD
ENDBRANCH   1  13
BRANCH   2  19
ATOM     19  N   UNL     1       0.205  -6.984   2.958  0.00  0.00    -0.346 N 
ATOM     20  H   UNL     1      -0.672  -6.621   2.761  0.00  0.00    +0.143 HD
ATOM     21  H   UNL     1       0.287  -7.836   3.414  0.00  0.00    +0.143 HD
ENDBRANCH   2  19
BRANCH   3  22
ATOM     22  C   UNL     1       2.986  -7.969   3.496  0.00  0.00    +0.109 C 
BRANCH  22  23
ATOM     23  C   UNL     1       3.126  -9.082   2.456  0.00  0.00    +0.047 C 
BRANCH  23  24
ATOM     24  C   UNL     1       3.527 -10.384   3.153  0.00  0.00    +0.161 C 
BRANCH  24  25
ATOM     25  O   UNL     1       3.658 -11.424   2.182  0.00  0.00    -0.383 OA
ATOM     26  C   UNL     1       4.032 -12.689   2.731  0.00  0.00    +0.193 C 
ENDBRANCH  24  25
ENDBRANCH  23  24
ENDBRANCH  22  23
ENDBRANCH   3  22
TORSDOF 6
