REMARK  Name = ZINC27697029
REMARK  14 active torsions:
REMARK  status: ('A' for Active; 'I' for Inactive)
REMARK    1  A    between atoms: C_1  and  C_2
REMARK    2  A    between atoms: C_2  and  C_3
REMARK    3  A    between atoms: C_2  and  N_4
REMARK    4  A    between atoms: N_4  and  C_5
REMARK    5  A    between atoms: N_4  and  C_32
REMARK    6  A    between atoms: C_5  and  C_6
REMARK    7  A    between atoms: C_6  and  C_8
REMARK    8  A    between atoms: C_6  and  O_31
REMARK    9  A    between atoms: C_8  and  N_9
REMARK   10  A    between atoms: C_17  and  C_18
REMARK   11  A    between atoms: C_18  and  C_19
REMARK   12  A    between atoms: C_22  and  C_25
REMARK   13  A    between atoms: C_32  and  C_33
REMARK   14  A    between atoms: C_32  and  C_34
REMARK                            x       y       z     vdW  Elec       q    Type
REMARK                         _______ _______ _______ _____ _____    ______ ____
ROOT
ATOM      1  N   UNL     1       0.655   1.096   0.963  0.00  0.00    -0.325 N 
ATOM      2  C   UNL     1       1.943   1.317   1.406  0.00  0.00    +0.069 A 
ATOM      3  C   UNL     1       2.662   2.450   1.763  0.00  0.00    +0.028 A 
ATOM      4  C   UNL     1       3.972   2.325   2.174  0.00  0.00    +0.002 A 
ATOM      5  C   UNL     1       4.575   1.077   2.233  0.00  0.00    +0.002 A 
ATOM      6  C   UNL     1       3.884  -0.048   1.886  0.00  0.00    +0.030 A 
ATOM      7  C   UNL     1       2.555   0.053   1.466  0.00  0.00    +0.089 A 
ATOM      8  N   UNL     1       1.627  -0.854   1.065  0.00  0.00    -0.232 NA
ATOM      9  C   UNL     1       0.516  -0.243   0.771  0.00  0.00    +0.115 A 
ENDROOT
BRANCH   1  10
ATOM     10  C   UNL     1      -0.372   2.116   0.735  0.00  0.00    +0.153 C 
BRANCH  10  11
ATOM     11  C   UNL     1      -1.179   2.323   2.019  0.00  0.00    +0.118 C 
BRANCH  11  12
ATOM     12  O   UNL     1      -0.330   2.861   3.034  0.00  0.00    -0.392 OA
ATOM     13  H   UNL     1       0.556   2.300   3.365  0.00  0.00    +0.210 HD
ENDBRANCH  11  12
BRANCH  11  14
ATOM     14  C   UNL     1      -2.329   3.295   1.747  0.00  0.00    -0.045 C 
BRANCH  14  15
ATOM     15  N   UNL     1      -3.104   3.493   2.979  0.00  0.00    +0.384 N 
ATOM     16  H   UNL     1      -2.401   3.768   3.780  0.00  0.00    -0.081 HD
BRANCH  15  18
ATOM     17  C   UNL     1      -3.374   5.922   3.137  0.00  0.00    -0.014 C 
ATOM     18  C   UNL     1      -4.065   4.593   2.825  0.00  0.00    -0.074 C 
ATOM     19  C   UNL     1      -4.589   4.615   1.388  0.00  0.00    -0.014 C 
ENDBRANCH  15  18
BRANCH  15  20
ATOM     20  C   UNL     1      -3.782   2.253   3.380  0.00  0.00    -0.074 C 
ATOM     21  C   UNL     1      -4.342   2.413   4.795  0.00  0.00    -0.014 C 
ATOM     22  C   UNL     1      -4.926   1.961   2.408  0.00  0.00    -0.014 C 
ENDBRANCH  15  20
ENDBRANCH  14  15
ENDBRANCH  11  14
ENDBRANCH  10  11
ENDBRANCH   1  10
BRANCH   9  23
ATOM     23  C   UNL     1      -0.740  -0.922   0.288  0.00  0.00    +0.109 C 
BRANCH  23  24
ATOM     24  C   UNL     1      -0.721  -1.000  -1.216  0.00  0.00    -0.040 A 
ATOM     25  C   UNL     1      -1.268   0.025  -1.967  0.00  0.00    +0.004 A 
ATOM     26  C   UNL     1      -1.250  -0.040  -3.345  0.00  0.00    +0.009 A 
ATOM     27  C   UNL     1      -0.688  -1.146  -3.981  0.00  0.00    -0.018 A 
ATOM     28  C   UNL     1      -0.143  -2.178  -3.220  0.00  0.00    +0.009 A 
ATOM     29  C   UNL     1      -0.163  -2.100  -1.842  0.00  0.00    +0.004 A 
BRANCH  27  30
ATOM     30  C   UNL     1      -0.671  -1.224  -5.463  0.00  0.00    -0.018 A 
ATOM     31  C   UNL     1      -0.104  -2.327  -6.098  0.00  0.00    +0.008 A 
ATOM     32  C   UNL     1      -0.095  -2.397  -7.476  0.00  0.00    +0.001 A 
ATOM     33  C   UNL     1      -0.637  -1.369  -8.227  0.00  0.00    +0.000 A 
ATOM     34  C   UNL     1      -1.196  -0.270  -7.601  0.00  0.00    +0.001 A 
ATOM     35  C   UNL     1      -1.215  -0.192  -6.224  0.00  0.00    +0.008 A 
ENDBRANCH  27  30
ENDBRANCH  23  24
ENDBRANCH   9  23
TORSDOF 10
