REMARK  Name = ZINC21727846
REMARK  8 active torsions:
REMARK  status: ('A' for Active; 'I' for Inactive)
REMARK    1  A    between atoms: C_1  and  C_2
REMARK    2  A    between atoms: C_2  and  C_4
REMARK    3  A    between atoms: C_2  and  O_11
REMARK    4  A    between atoms: N_9  and  C_10
REMARK    5  A    between atoms: O_11  and  C_12
REMARK    6  A    between atoms: C_12  and  C_14
REMARK    7  A    between atoms: N_17  and  S_20
REMARK    8  A    between atoms: S_20  and  C_23
REMARK                            x       y       z     vdW  Elec       q    Type
REMARK                         _______ _______ _______ _____ _____    ______ ____
ROOT
ATOM      1  C   UNL     1       0.618  -1.196   3.521  0.00  0.00    +0.100 C 
ATOM      2  C   UNL     1       1.286  -2.546   3.245  0.00  0.00    +0.032 C 
ATOM      3  C   UNL     1       1.985  -3.034   4.518  0.00  0.00    +0.110 C 
ATOM      4  N   UNL     1       1.008  -3.057   5.615  0.00  0.00    -0.177 NA
ATOM      5  C   UNL     1       0.243  -1.836   5.906  0.00  0.00    +0.110 C 
ATOM      6  C   UNL     1      -0.436  -1.361   4.618  0.00  0.00    +0.032 C 
ENDROOT
BRANCH   4   7
ATOM      7  S   UNL     1       0.772  -4.432   6.507  0.00  0.00    +0.061 S 
ATOM      8  O   UNL     1      -0.535  -4.341   7.057  0.00  0.00    -0.153 OA
ATOM      9  O   UNL     1       1.180  -5.521   5.689  0.00  0.00    -0.153 OA
BRANCH   7  10
ATOM     10  C   UNL     1       1.895  -4.372   7.863  0.00  0.00    +0.106 A 
ATOM     11  C   UNL     1       3.163  -4.910   7.739  0.00  0.00    +0.029 A 
ATOM     12  C   UNL     1       4.035  -4.862   8.806  0.00  0.00    +0.006 A 
ATOM     13  C   UNL     1       3.651  -4.276  10.006  0.00  0.00    -0.044 A 
ATOM     14  C   UNL     1       2.391  -3.736  10.128  0.00  0.00    -0.042 A 
ATOM     15  C   UNL     1       1.514  -3.784   9.051  0.00  0.00    +0.032 A 
ATOM     16  C   UNL     1       1.913  -3.071  11.392  0.00  0.00    +0.035 C 
ATOM     17  C   UNL     1       2.794  -3.469  12.575  0.00  0.00    +0.005 C 
ATOM     18  C   UNL     1       4.258  -3.233  12.188  0.00  0.00    +0.005 C 
ATOM     19  C   UNL     1       4.650  -4.265  11.133  0.00  0.00    +0.035 C 
ENDBRANCH   7  10
ENDBRANCH   4   7
BRANCH   1  20
ATOM     20  C   UNL     1      -0.042  -0.697   2.261  0.00  0.00    +0.311 C 
ATOM     21  O   UNL     1      -1.233  -0.493   2.243  0.00  0.00    -0.251 OA
BRANCH  20  22
ATOM     22  O   UNL     1       0.693  -0.477   1.160  0.00  0.00    -0.452 OA
BRANCH  22  24
ATOM     23  C   UNL     1      -0.019   1.526   0.010  0.00  0.00    +0.062 C 
ATOM     24  C   UNL     1       0.002  -0.004   0.002  0.00  0.00    +0.259 C 
BRANCH  24  25
ATOM     25  C   UNL     1       0.707  -0.490  -1.238  0.00  0.00    +0.261 C 
ATOM     26  O   UNL     1       1.753  -1.097  -1.142  0.00  0.00    -0.271 OA
ATOM     27  N   UNL     1       0.176  -0.250  -2.453  0.00  0.00    -0.237 N 
ATOM     28  C   UNL     1       0.807  -0.685  -3.562  0.00  0.00    +0.306 C 
ATOM     29  O   UNL     1       1.855  -1.293  -3.466  0.00  0.00    -0.252 OA
ATOM     30  N   UNL     1       0.276  -0.445  -4.777  0.00  0.00    -0.302 N 
ATOM     31  C   UNL     1       0.962  -0.917  -5.983  0.00  0.00    +0.129 C 
ATOM     32  H   UNL     1      -0.660   0.235  -2.530  0.00  0.00    +0.159 HD
ATOM     33  H   UNL     1      -0.560   0.041  -4.854  0.00  0.00    +0.150 HD
ENDBRANCH  24  25
ENDBRANCH  22  24
ENDBRANCH  20  22
ENDBRANCH   1  20
TORSDOF 6
