REMARK  Name = ZINC63772582
REMARK  8 active torsions:
REMARK  status: ('A' for Active; 'I' for Inactive)
REMARK    1  A    between atoms: C_1  and  C_2
REMARK    2  A    between atoms: C_7  and  S_12
REMARK    3  A    between atoms: S_12  and  C_13
REMARK    4  A    between atoms: C_13  and  C_14
REMARK    5  A    between atoms: N_16  and  C_17
REMARK    6  A    between atoms: C_19  and  C_24
REMARK    7  A    between atoms: C_24  and  O_26
REMARK    8  A    between atoms: O_26  and  C_27
REMARK                            x       y       z     vdW  Elec       q    Type
REMARK                         _______ _______ _______ _____ _____    ______ ____
ROOT
ATOM      1  C   UNL     1       2.920  -4.166   1.458  0.00  0.00    +0.168 C 
ENDROOT
BRANCH   1   2
ATOM      2  C   UNL     1       4.241  -4.802   1.804  0.00  0.00    +0.224 C 
ATOM      3  O   UNL     1       4.268  -5.870   2.379  0.00  0.00    -0.275 OA
ATOM      4  N   UNL     1       5.393  -4.186   1.474  0.00  0.00    -0.301 N 
ATOM      5  H   UNL     1       5.372  -3.332   1.014  0.00  0.00    +0.150 HD
BRANCH   4   6
ATOM      6  C   UNL     1       6.678  -4.804   1.810  0.00  0.00    +0.153 C 
ATOM      7  C   UNL     1       7.629  -4.842   0.585  0.00  0.00    +0.151 C 
ATOM      8  C   UNL     1       8.400  -6.122   0.552  0.00  0.00    -0.003 C 
ATOM      9  C   UNL     1       7.980  -7.159   1.251  0.00  0.00    +0.039 C 
ATOM     10  S   UNL     1       6.502  -6.617   2.091  0.00  0.00    -0.110 S 
BRANCH   7  11
ATOM     11  C   UNL     1       6.817  -4.721  -0.678  0.00  0.00    +0.316 C 
ATOM     12  O   UNL     1       5.615  -4.616  -0.616  0.00  0.00    -0.250 OA
BRANCH  11  13
ATOM     13  O   UNL     1       7.429  -4.729  -1.873  0.00  0.00    -0.467 OA
ATOM     14  C   UNL     1       6.597  -4.611  -3.029  0.00  0.00    +0.280 C 
ENDBRANCH  11  13
ENDBRANCH   7  11
ENDBRANCH   4   6
ENDBRANCH   1   2
BRANCH   1  15
ATOM     15  S   UNL     1       1.567  -5.231   2.029  0.00  0.00    -0.106 S 
BRANCH  15  22
ATOM     16  C   UNL     1      -0.018   1.503   0.010  0.00  0.00    +0.044 C 
ATOM     17  C   UNL     1       0.002  -0.004   0.002  0.00  0.00    -0.048 A 
ATOM     18  C   UNL     1       0.005  -0.672  -1.235  0.00  0.00    +0.005 A 
ATOM     19  C   UNL     1       0.022  -2.017  -1.335  0.00  0.00    +0.028 A 
ATOM     20  C   UNL     1       0.040  -2.834  -0.114  0.00  0.00    +0.061 A 
ATOM     21  N   UNL     1       0.057  -4.120   0.090  0.00  0.00    -0.355 N 
ATOM     22  C   UNL     1       0.067  -4.335   1.542  0.00  0.00    +0.236 C 
ATOM     23  N   UNL     1       0.053  -3.002   2.159  0.00  0.00    -0.355 N 
ATOM     24  C   UNL     1       0.037  -2.127   1.195  0.00  0.00    +0.061 A 
ATOM     25  C   UNL     1       0.022  -0.657   1.181  0.00  0.00    +0.030 A 
ATOM     26  H   UNL     1       0.062  -4.809  -0.593  0.00  0.00    +0.162 HD
ATOM     27  H   UNL     1       0.055  -2.810   3.109  0.00  0.00    +0.162 HD
ENDBRANCH  15  22
ENDBRANCH   1  15
TORSDOF 6
