REMARK  Name = ZINC09892608
REMARK  5 active torsions:
REMARK  status: ('A' for Active; 'I' for Inactive)
REMARK    1  A    between atoms: C_3  and  C_9
REMARK    2  A    between atoms: C_6  and  C_7
REMARK    3  A    between atoms: C_12  and  C_14
REMARK    4  A    between atoms: N_18  and  C_22
REMARK    5  A    between atoms: C_22  and  C_23
REMARK                            x       y       z     vdW  Elec       q    Type
REMARK                         _______ _______ _______ _____ _____    ______ ____
ROOT
ATOM      1  C   UNL     1       1.461   8.883   0.035  0.00  0.00    +0.074 C 
ATOM      2  C   UNL     1       2.814   8.717   0.021  0.00  0.00    +0.101 C 
ATOM      3  C   UNL     1       3.841   9.765   0.011  0.00  0.00    +0.269 C 
ATOM      4  O   UNL     1       3.656  10.969   0.013  0.00  0.00    -0.268 OA
ATOM      5  N   UNL     1       5.030   9.129   0.003  0.00  0.00    -0.216 N 
ATOM      6  C   UNL     1       4.834   7.801  -0.003  0.00  0.00    +0.313 C 
ATOM      7  O   UNL     1       5.726   6.973  -0.017  0.00  0.00    -0.252 OA
ATOM      8  N   UNL     1       3.522   7.508   0.008  0.00  0.00    -0.265 N 
ATOM      9  H   UNL     1       3.135   6.618   0.007  0.00  0.00    +0.157 HD
ENDROOT
BRANCH   1  13
ATOM     10  C   UNL     1      -0.075   5.666   0.033  0.00  0.00    +0.136 A 
ATOM     11  C   UNL     1      -1.204   6.455   0.048  0.00  0.00    +0.050 A 
ATOM     12  C   UNL     1      -0.773   7.784   0.051  0.00  0.00    +0.050 A 
ATOM     13  C   UNL     1       0.610   7.756   0.037  0.00  0.00    +0.131 A 
ATOM     14  O   UNL     1       1.007   6.466   0.033  0.00  0.00    -0.455 OA
BRANCH  10  17
ATOM     15  C   UNL     1      -1.238   2.110   0.019  0.00  0.00    +0.019 A 
ATOM     16  C   UNL     1      -1.257   3.476   0.033  0.00  0.00    +0.013 A 
ATOM     17  C   UNL     1      -0.055   4.192   0.025  0.00  0.00    +0.017 A 
ATOM     18  C   UNL     1       1.166   3.509   0.009  0.00  0.00    +0.013 A 
ATOM     19  C   UNL     1       1.184   2.143   0.002  0.00  0.00    +0.019 A 
ATOM     20  C   UNL     1      -0.017   1.428   0.010  0.00  0.00    +0.052 A 
BRANCH  20  21
ATOM     21  C   UNL     1       0.002  -0.004   0.002  0.00  0.00    +0.099 C 
ATOM     22  N   UNL     1       0.018  -1.140  -0.004  0.00  0.00    -0.191 NA
ENDBRANCH  20  21
ENDBRANCH  10  17
ENDBRANCH   1  13
BRANCH   5  23
ATOM     23  C   UNL     1       6.338   9.788  -0.006  0.00  0.00    +0.153 C 
BRANCH  23  24
ATOM     24  C   UNL     1       6.773  10.021  -1.429  0.00  0.00    -0.028 A 
ATOM     25  C   UNL     1       7.517   9.061  -2.091  0.00  0.00    +0.007 A 
ATOM     26  C   UNL     1       7.912   9.272  -3.399  0.00  0.00    +0.022 A 
ATOM     27  C   UNL     1       7.573  10.449  -4.043  0.00  0.00    +0.059 A 
ATOM     28  C   UNL     1       6.834  11.412  -3.378  0.00  0.00    +0.060 A 
ATOM     29  C   UNL     1       6.434  11.197  -2.071  0.00  0.00    +0.026 A 
ATOM     30 CL   UNL     1       6.408  12.889  -4.185  0.00  0.00    -0.082 Cl
ATOM     31 CL   UNL     1       8.075  10.717  -5.683  0.00  0.00    -0.082 Cl
ENDBRANCH  23  24
ENDBRANCH   5  23
TORSDOF 5
