REMARK  Name = ZINC26919992
REMARK  7 active torsions:
REMARK  status: ('A' for Active; 'I' for Inactive)
REMARK    1  A    between atoms: C_1  and  C_2
REMARK    2  A    between atoms: C_5  and  C_30
REMARK    3  A    between atoms: C_6  and  N_8
REMARK    4  A    between atoms: C_9  and  C_11
REMARK    5  A    between atoms: C_12  and  C_29
REMARK    6  A    between atoms: C_17  and  C_19
REMARK    7  A    between atoms: C_23  and  N_25
REMARK                            x       y       z     vdW  Elec       q    Type
REMARK                         _______ _______ _______ _____ _____    ______ ____
ROOT
ATOM      1  C   UNL     1       2.119  -0.531   0.110  0.00  0.00    +0.056 C 
ATOM      2  C   UNL     1       1.775   0.745  -0.163  0.00  0.00    +0.019 C 
ATOM      3  N   UNL     1       0.475   1.158  -0.079  0.00  0.00    -0.273 N 
ATOM      4  C   UNL     1      -0.538   0.355   0.271  0.00  0.00    +0.304 C 
ATOM      5  O   UNL     1      -1.663   0.813   0.314  0.00  0.00    -0.252 OA
ATOM      6  N   UNL     1      -0.351  -0.945   0.573  0.00  0.00    -0.288 N 
ATOM      7  C   UNL     1       1.016  -1.489   0.513  0.00  0.00    +0.142 C 
ATOM      8  C   UNL     1       2.841   1.730  -0.567  0.00  0.00    +0.061 C 
ATOM      9  H   UNL     1       0.214   2.202  -0.305  0.00  0.00    +0.156 HD
ATOM     10  H   UNL     1      -1.190  -1.596   0.860  0.00  0.00    +0.151 HD
ENDROOT
BRANCH   7  11
ATOM     11  C   UNL     1       1.356  -2.044   1.872  0.00  0.00    -0.020 A 
ATOM     12  C   UNL     1       1.090  -1.302   3.008  0.00  0.00    +0.007 A 
ATOM     13  C   UNL     1       1.400  -1.811   4.255  0.00  0.00    +0.018 A 
ATOM     14  C   UNL     1       1.978  -3.063   4.366  0.00  0.00    +0.048 A 
ATOM     15  C   UNL     1       2.245  -3.804   3.230  0.00  0.00    +0.140 A 
ATOM     16  C   UNL     1       1.929  -3.297   1.983  0.00  0.00    +0.039 A 
ATOM     17 BR   UNL     1       2.404  -3.759   6.072  0.00  0.00    -0.048 Br
BRANCH  15  18
ATOM     18  N   UNL     1       2.863  -5.144   3.348  0.00  0.00    +0.058 N 
ATOM     19  O   UNL     1       3.203  -5.749   2.347  0.00  0.00    -0.126 OA
ATOM     20  O   UNL     1       3.033  -5.641   4.447  0.00  0.00    -0.126 OA
ENDBRANCH  15  18
ENDBRANCH   7  11
BRANCH   1  22
ATOM     21  N   UNL     1       4.346  -0.620   0.986  0.00  0.00    -0.281 N 
ATOM     22  C   UNL     1       3.466  -0.961   0.023  0.00  0.00    +0.248 C 
ATOM     23  O   UNL     1       3.830  -1.637  -0.922  0.00  0.00    -0.270 OA
ATOM     24  H   UNL     1       4.051   0.087   1.775  0.00  0.00    +0.155 HD
BRANCH  21  30
ATOM     25  C   UNL     1       8.147  -2.474  -1.520  0.00  0.00    +0.044 C 
ATOM     26  C   UNL     1       7.501  -2.073  -0.220  0.00  0.00    -0.049 A 
ATOM     27  C   UNL     1       8.182  -2.244   0.972  0.00  0.00    +0.004 A 
ATOM     28  C   UNL     1       7.593  -1.877   2.168  0.00  0.00    +0.005 A 
ATOM     29  C   UNL     1       6.322  -1.334   2.175  0.00  0.00    -0.029 A 
ATOM     30  C   UNL     1       5.634  -1.166   0.981  0.00  0.00    +0.037 A 
ATOM     31  C   UNL     1       6.229  -1.535  -0.218  0.00  0.00    +0.027 A 
ATOM     32  C   UNL     1       5.683  -0.929   3.478  0.00  0.00    +0.045 C 
ENDBRANCH  21  30
ENDBRANCH   1  22
TORSDOF 4
