REMARK  Name = ZINC29142850
REMARK  6 active torsions:
REMARK  status: ('A' for Active; 'I' for Inactive)
REMARK    1  A    between atoms: N_7  and  C_20
REMARK    2  A    between atoms: C_9  and  C_12
REMARK    3  A    between atoms: C_20  and  C_21
REMARK    4  A    between atoms: N_26  and  C_27
REMARK    5  A    between atoms: C_27  and  C_28
REMARK    6  A    between atoms: C_28  and  C_29
REMARK                            x       y       z     vdW  Elec       q    Type
REMARK                         _______ _______ _______ _____ _____    ______ ____
ROOT
ATOM      1  C   UNL     1       0.338  -1.821  -5.412  0.00  0.00    +0.002 A 
ATOM      2  C   UNL     1       0.355  -2.703  -6.476  0.00  0.00    +0.004 A 
ATOM      3  C   UNL     1       0.105  -2.247  -7.757  0.00  0.00    +0.047 A 
ATOM      4  C   UNL     1      -0.165  -0.904  -7.979  0.00  0.00    +0.143 A 
ATOM      5  C   UNL     1      -0.179  -0.015  -6.912  0.00  0.00    +0.073 A 
ATOM      6  C   UNL     1       0.072  -0.482  -5.626  0.00  0.00    +0.027 A 
ATOM      7  N   UNL     1      -0.441   1.348  -7.089  0.00  0.00    -0.314 N 
ATOM      8  C   UNL     1      -1.130   1.618  -8.356  0.00  0.00    +0.160 C 
ATOM      9  C   UNL     1      -0.362   0.923  -9.488  0.00  0.00    +0.276 C 
ATOM     10  O   UNL     1      -0.412  -0.488  -9.252  0.00  0.00    -0.476 OA
ENDROOT
BRANCH   9  11
ATOM     11  C   UNL     1      -1.007   1.243 -10.812  0.00  0.00    +0.258 C 
ATOM     12  O   UNL     1      -1.523   0.360 -11.464  0.00  0.00    -0.271 OA
ATOM     13  N   UNL     1      -1.011   2.510 -11.272  0.00  0.00    -0.294 N 
ATOM     14  C   UNL     1      -0.397   3.599 -10.496  0.00  0.00    +0.136 C 
ATOM     15  C   UNL     1       0.553   4.373 -11.424  0.00  0.00    +0.179 C 
ATOM     16  O   UNL     1      -0.156   4.757 -12.605  0.00  0.00    -0.377 OA
ATOM     17  C   UNL     1      -0.629   3.657 -13.387  0.00  0.00    +0.179 C 
ATOM     18  C   UNL     1      -1.634   2.846 -12.562  0.00  0.00    +0.136 C 
ENDBRANCH   9  11
BRANCH   7  19
ATOM     19  C   UNL     1      -1.196   1.891  -5.952  0.00  0.00    +0.201 C 
BRANCH  19  20
ATOM     20  C   UNL     1      -2.457   1.090  -5.758  0.00  0.00    +0.238 C 
ATOM     21  O   UNL     1      -2.752   0.222  -6.551  0.00  0.00    -0.274 OA
ATOM     22  N   UNL     1      -3.259   1.340  -4.703  0.00  0.00    -0.239 N 
ATOM     23  C   UNL     1      -4.387   0.623  -4.530  0.00  0.00    +0.306 C 
ATOM     24  O   UNL     1      -4.682  -0.247  -5.325  0.00  0.00    -0.252 OA
ATOM     25  N   UNL     1      -5.188   0.872  -3.475  0.00  0.00    -0.299 N 
ATOM     26  H   UNL     1      -2.991   2.128  -3.984  0.00  0.00    +0.159 HD
ATOM     27  H   UNL     1      -4.921   1.660  -2.756  0.00  0.00    +0.150 HD
BRANCH  25  28
ATOM     28  C   UNL     1      -6.414   0.094  -3.287  0.00  0.00    +0.111 C 
BRANCH  28  29
ATOM     29  C   UNL     1      -7.134   0.573  -2.025  0.00  0.00    +0.061 C 
BRANCH  29  30
ATOM     30  C   UNL     1      -8.396  -0.228  -1.831  0.00  0.00    -0.009 A 
ATOM     31  C   UNL     1      -8.576  -1.385  -1.149  0.00  0.00    +0.011 A 
ATOM     32  C   UNL     1      -9.838  -1.947  -1.104  0.00  0.00    +0.008 A 
ATOM     33  C   UNL     1     -10.858  -1.325  -1.743  0.00  0.00    +0.045 A 
ATOM     34  S   UNL     1     -10.043   0.106  -2.433  0.00  0.00    -0.102 S 
ENDBRANCH  29  30
ENDBRANCH  28  29
ENDBRANCH  25  28
ENDBRANCH  19  20
ENDBRANCH   7  19
TORSDOF 6
