REMARK  Name = ZINC06785461
REMARK  7 active torsions:
REMARK  status: ('A' for Active; 'I' for Inactive)
REMARK    1  A    between atoms: C_1  and  C_2
REMARK    2  A    between atoms: C_2  and  C_3
REMARK    3  A    between atoms: C_10  and  N_27
REMARK    4  A    between atoms: C_11  and  C_25
REMARK    5  A    between atoms: C_12  and  C_14
REMARK    6  A    between atoms: C_17  and  O_20
REMARK    7  A    between atoms: O_20  and  C_21
REMARK                            x       y       z     vdW  Elec       q    Type
REMARK                         _______ _______ _______ _____ _____    ______ ____
ROOT
ATOM      1  C   UNL     1       0.707  -0.490  -1.238  0.00  0.00    +0.044 A 
ATOM      2  C   UNL     1       2.031  -0.651  -1.384  0.00  0.00    +0.049 A 
ATOM      3  C   UNL     1       2.274  -1.122  -2.693  0.00  0.00    +0.245 A 
ATOM      4  N   UNL     1       1.128  -1.235  -3.299  0.00  0.00    -0.135 NA
ATOM      5  N   UNL     1       0.119  -0.848  -2.403  0.00  0.00    -0.278 N 
ATOM      6  H   UNL     1      -0.833  -0.837  -2.587  0.00  0.00    +0.189 HD
ATOM      7  O   UNL     1       3.531  -1.379  -3.146  0.00  0.00    -0.421 OA
ATOM      8  C   UNL     1       4.562  -0.920  -2.409  0.00  0.00    +0.201 C 
ATOM      9  C   UNL     1       4.453  -0.458  -1.145  0.00  0.00    +0.098 C 
ATOM     10  C   UNL     1       3.145  -0.406  -0.398  0.00  0.00    +0.101 C 
ENDROOT
BRANCH  10  11
ATOM     11  C   UNL     1       3.125  -1.472   0.667  0.00  0.00    -0.034 A 
ATOM     12  C   UNL     1       3.286  -2.800   0.317  0.00  0.00    +0.008 A 
ATOM     13  C   UNL     1       3.268  -3.779   1.291  0.00  0.00    +0.046 A 
ATOM     14  C   UNL     1       3.089  -3.429   2.622  0.00  0.00    +0.130 A 
ATOM     15  C   UNL     1       2.929  -2.096   2.970  0.00  0.00    +0.046 A 
ATOM     16  C   UNL     1       2.953  -1.120   1.993  0.00  0.00    +0.008 A 
BRANCH  14  17
ATOM     17  O   UNL     1       3.071  -4.391   3.582  0.00  0.00    -0.406 OA
BRANCH  17  18
ATOM     18  C   UNL     1       2.883  -3.957   4.931  0.00  0.00    +0.575 C 
ATOM     19  F   UNL     1       1.656  -3.293   5.040  0.00  0.00    -0.133 F 
ATOM     20  F   UNL     1       2.890  -5.067   5.782  0.00  0.00    -0.133 F 
ATOM     21  F   UNL     1       3.918  -3.087   5.290  0.00  0.00    -0.133 F 
ENDBRANCH  17  18
ENDBRANCH  14  17
ENDBRANCH  10  11
BRANCH   8  22
ATOM     22  N   UNL     1       5.808  -0.922  -2.983  0.00  0.00    -0.328 N 
ATOM     23  H   UNL     1       5.924  -1.247  -3.890  0.00  0.00    +0.145 HD
ATOM     24  H   UNL     1       6.574  -0.599  -2.482  0.00  0.00    +0.145 HD
ENDBRANCH   8  22
BRANCH   1  26
ATOM     25  C   UNL     1      -0.019   1.526   0.010  0.00  0.00    +0.010 C 
ATOM     26  C   UNL     1       0.002  -0.004   0.002  0.00  0.00    +0.052 C 
ENDBRANCH   1  26
BRANCH   9  27
ATOM     27  C   UNL     1       5.636   0.004  -0.483  0.00  0.00    +0.101 C 
ATOM     28  N   UNL     1       6.575   0.370   0.042  0.00  0.00    -0.191 NA
ENDBRANCH   9  27
TORSDOF 6
