REMARK  Name = ZINC27248260
REMARK  6 active torsions:
REMARK  status: ('A' for Active; 'I' for Inactive)
REMARK    1  A    between atoms: C_6  and  C_7
REMARK    2  A    between atoms: C_7  and  C_8
REMARK    3  A    between atoms: N_10  and  N_11
REMARK    4  A    between atoms: C_12  and  C_14
REMARK    5  A    between atoms: C_14  and  C_15
REMARK    6  A    between atoms: C_15  and  N_16
REMARK                            x       y       z     vdW  Elec       q    Type
REMARK                         _______ _______ _______ _____ _____    ______ ____
ROOT
ATOM      1  N   UNL     1      -0.288   1.272  -2.443  0.00  0.00    -0.234 N 
ATOM      2  C   UNL     1      -0.742   1.585  -1.213  0.00  0.00    +0.231 C 
ATOM      3  O   UNL     1      -1.736   2.268  -1.088  0.00  0.00    -0.274 OA
ATOM      4  H   UNL     1       0.614   0.653  -2.556  0.00  0.00    +0.173 HD
ENDROOT
BRANCH   1   7
ATOM      5  C   UNL     1      -0.513   1.424  -4.808  0.00  0.00    +0.233 C 
ATOM      6  O   UNL     1       0.481   0.741  -4.933  0.00  0.00    -0.274 OA
ATOM      7  N   UNL     1      -0.966   1.736  -3.578  0.00  0.00    -0.234 N 
ATOM      8  H   UNL     1      -1.868   2.356  -3.465  0.00  0.00    +0.173 HD
BRANCH   5   9
ATOM      9  C   UNL     1      -1.242   1.923  -6.029  0.00  0.00    +0.132 C 
BRANCH   9  15
ATOM     10  C   UNL     1       0.461   2.204  -7.842  0.00  0.00    +0.005 A 
ATOM     11  C   UNL     1       1.112   1.756  -8.976  0.00  0.00    +0.020 A 
ATOM     12  C   UNL     1       0.758   0.545  -9.544  0.00  0.00    +0.041 A 
ATOM     13  C   UNL     1      -0.244  -0.219  -8.973  0.00  0.00    +0.020 A 
ATOM     14  C   UNL     1      -0.891   0.227  -7.836  0.00  0.00    +0.005 A 
ATOM     15  C   UNL     1      -0.536   1.437  -7.269  0.00  0.00    -0.038 A 
ATOM     16 CL   UNL     1       1.571  -0.015 -10.972  0.00  0.00    -0.084 Cl
ENDBRANCH   9  15
ENDBRANCH   5   9
ENDBRANCH   1   7
BRANCH   2  17
ATOM     17  C   UNL     1      -0.013   1.086   0.008  0.00  0.00    +0.117 C 
BRANCH  17  18
ATOM     18  C   UNL     1      -0.729   1.579   1.267  0.00  0.00    +0.127 C 
BRANCH  18  19
ATOM     19  N   UNL     1      -0.020   1.094   2.454  0.00  0.00    -0.224 N 
ATOM     20  C   UNL     1       0.978   1.762   3.067  0.00  0.00    +0.247 C 
ATOM     21  O   UNL     1       1.442   2.838   2.753  0.00  0.00    -0.273 OA
ATOM     22  C   UNL     1       1.396   0.889   4.227  0.00  0.00    +0.113 C 
ATOM     23  C   UNL     1       1.179   1.619   5.548  0.00  0.00    +0.035 C 
ATOM     24  C   UNL     1       1.581   0.709   6.710  0.00  0.00    +0.003 C 
ATOM     25  C   UNL     1       3.052   0.314   6.563  0.00  0.00    +0.000 C 
ATOM     26  C   UNL     1       3.249  -0.439   5.245  0.00  0.00    +0.003 C 
ATOM     27  C   UNL     1       2.854   0.467   4.077  0.00  0.00    +0.035 C 
ATOM     28  N   UNL     1       0.510  -0.278   4.132  0.00  0.00    -0.285 N 
ATOM     29  C   UNL     1      -0.287  -0.065   3.068  0.00  0.00    +0.309 C 
ATOM     30  O   UNL     1      -1.150  -0.840   2.704  0.00  0.00    -0.252 OA
ATOM     31  H   UNL     1       0.596  -1.095   4.863  0.00  0.00    +0.151 HD
ENDBRANCH  18  19
ENDBRANCH  17  18
ENDBRANCH   2  17
TORSDOF 6
