REMARK  Name = ZINC23340546
REMARK  10 active torsions:
REMARK  status: ('A' for Active; 'I' for Inactive)
REMARK    1  A    between atoms: C_1  and  C_2
REMARK    2  A    between atoms: C_2  and  O_3
REMARK    3  A    between atoms: O_3  and  C_4
REMARK    4  A    between atoms: C_9  and  N_10
REMARK    5  A    between atoms: N_13  and  C_16
REMARK    6  A    between atoms: C_16  and  C_17
REMARK    7  A    between atoms: C_20  and  C_25
REMARK    8  A    between atoms: N_27  and  C_28
REMARK    9  A    between atoms: C_28  and  C_30
REMARK   10  A    between atoms: C_28  and  C_31
REMARK                            x       y       z     vdW  Elec       q    Type
REMARK                         _______ _______ _______ _____ _____    ______ ____
ROOT
ATOM      1  C   UNL     1      -7.304   0.405   1.342  0.00  0.00    +0.033 A 
ATOM      2  C   UNL     1      -7.655   1.258   2.338  0.00  0.00    +0.023 A 
ATOM      3  C   UNL     1      -8.453   0.812   3.392  0.00  0.00    +0.020 A 
ATOM      4  C   UNL     1      -8.869  -0.517   3.408  0.00  0.00    +0.101 A 
ATOM      5  C   UNL     1      -8.472  -1.371   2.347  0.00  0.00    +0.261 A 
ATOM      6  O   UNL     1      -8.822  -2.539   2.338  0.00  0.00    -0.267 OA
ATOM      7  N   UNL     1      -7.705  -0.888   1.351  0.00  0.00    -0.324 N 
ATOM      8  H   UNL     1      -7.405  -1.563   0.535  0.00  0.00    +0.169 HD
ENDROOT
BRANCH   4   9
ATOM      9  C   UNL     1      -9.707  -1.026   4.505  0.00  0.00    +0.250 C 
ATOM     10  O   UNL     1      -9.949  -0.318   5.464  0.00  0.00    -0.270 OA
ATOM     11  N   UNL     1     -10.205  -2.277   4.447  0.00  0.00    -0.305 N 
ATOM     12  H   UNL     1      -9.918  -2.946   3.623  0.00  0.00    +0.150 HD
BRANCH  11  13
ATOM     13  C   UNL     1     -11.130  -2.745   5.483  0.00  0.00    +0.101 C 
ATOM     14  C   UNL     1     -12.566  -2.421   5.068  0.00  0.00    +0.033 C 
BRANCH  13  15
ATOM     15  C   UNL     1     -10.981  -4.235   5.653  0.00  0.00    -0.020 A 
ATOM     16  C   UNL     1     -10.536  -5.001   4.619  0.00  0.00    +0.006 A 
ATOM     17  C   UNL     1     -10.392  -6.380   4.757  0.00  0.00    +0.001 A 
ATOM     18  C   UNL     1     -10.691  -7.001   5.931  0.00  0.00    +0.008 A 
ATOM     19  C   UNL     1     -11.153  -6.244   7.021  0.00  0.00    -0.018 A 
ATOM     20  C   UNL     1     -11.295  -4.841   6.881  0.00  0.00    -0.013 A 
ATOM     21  C   UNL     1     -11.751  -4.082   7.973  0.00  0.00    +0.009 A 
ATOM     22  C   UNL     1     -12.045  -4.703   9.148  0.00  0.00    +0.001 A 
ATOM     23  C   UNL     1     -11.901  -6.083   9.287  0.00  0.00    +0.001 A 
ATOM     24  C   UNL     1     -11.471  -6.850   8.248  0.00  0.00    +0.008 A 
ENDBRANCH  13  15
ENDBRANCH  11  13
ENDBRANCH   4   9
BRANCH   1  25
ATOM     25  C   UNL     1      -6.446   0.906   0.208  0.00  0.00    +0.137 C 
BRANCH  25  29
ATOM     26  N   UNL     1      -2.304   0.079   0.254  0.00  0.00    -0.325 N 
ATOM     27  C   UNL     1      -3.076  -0.204   1.472  0.00  0.00    +0.120 C 
ATOM     28  C   UNL     1      -4.384   0.589   1.438  0.00  0.00    +0.103 C 
ATOM     29  N   UNL     1      -5.147   0.221   0.238  0.00  0.00    -0.294 NA
ATOM     30  C   UNL     1      -4.375   0.503  -0.980  0.00  0.00    +0.103 C 
ATOM     31  C   UNL     1      -3.067  -0.290  -0.947  0.00  0.00    +0.120 C 
BRANCH  26  37
ATOM     32  C   UNL     1       0.114   0.166   0.299  0.00  0.00    +0.141 A 
ATOM     33  C   UNL     1       1.336  -0.485   0.321  0.00  0.00    +0.047 A 
ATOM     34  C   UNL     1       1.383  -1.867   0.336  0.00  0.00    +0.004 A 
ATOM     35  C   UNL     1       0.213  -2.603   0.319  0.00  0.00    +0.002 A 
ATOM     36  C   UNL     1      -1.011  -1.960   0.291  0.00  0.00    +0.027 A 
ATOM     37  C   UNL     1      -1.066  -0.574   0.282  0.00  0.00    +0.072 A 
BRANCH  32  38
ATOM     38  O   UNL     1       0.066   1.526   0.290  0.00  0.00    -0.490 OA
BRANCH  38  40
ATOM     39  C   UNL     1       1.061   3.728   0.296  0.00  0.00    +0.048 C 
ATOM     40  C   UNL     1       1.315   2.219   0.310  0.00  0.00    +0.226 C 
ENDBRANCH  38  40
ENDBRANCH  32  38
ENDBRANCH  26  37
ENDBRANCH  25  29
ENDBRANCH   1  25
TORSDOF 8
