REMARK  Name = ZINC17163364
REMARK  10 active torsions:
REMARK  status: ('A' for Active; 'I' for Inactive)
REMARK    1  A    between atoms: C_1  and  C_2
REMARK    2  A    between atoms: C_2  and  O_3
REMARK    3  A    between atoms: O_3  and  C_4
REMARK    4  A    between atoms: C_6  and  C_20
REMARK    5  A    between atoms: C_9  and  O_10
REMARK    6  A    between atoms: O_10  and  C_11
REMARK    7  A    between atoms: C_11  and  C_13
REMARK    8  A    between atoms: C_16  and  C_19
REMARK    9  A    between atoms: C_31  and  N_61
REMARK   10  A    between atoms: C_32  and  O_34
REMARK                            x       y       z     vdW  Elec       q    Type
REMARK                         _______ _______ _______ _____ _____    ______ ____
ROOT
ATOM      1  C   UNL     1       6.376   3.961   4.236  0.00  0.00    +0.163 A 
ATOM      2  C   UNL     1       6.479   3.481   2.940  0.00  0.00    +0.056 A 
ATOM      3  C   UNL     1       5.883   4.168   1.900  0.00  0.00    -0.002 A 
ATOM      4  C   UNL     1       5.189   5.338   2.147  0.00  0.00    +0.011 A 
ATOM      5  C   UNL     1       5.078   5.819   3.438  0.00  0.00    +0.050 A 
ATOM      6  C   UNL     1       5.673   5.135   4.486  0.00  0.00    +0.173 A 
ENDROOT
BRANCH   3   7
ATOM      7  C   UNL     1       5.996   3.645   0.491  0.00  0.00    +0.224 C 
ATOM      8  N   UNL     1       4.819   4.086  -0.281  0.00  0.00    -0.313 N 
ATOM      9  C   UNL     1       3.692   3.309  -0.169  0.00  0.00    +0.080 A 
ATOM     10  C   UNL     1       3.745   1.954   0.187  0.00  0.00    +0.067 A 
ATOM     11  C   UNL     1       2.470   1.268   0.251  0.00  0.00    -0.027 A 
ATOM     12  C   UNL     1       1.381   2.023  -0.030  0.00  0.00    -0.021 A 
ATOM     13  S   UNL     1       2.026   3.635  -0.388  0.00  0.00    -0.080 S 
ATOM     14  C   UNL     1      -0.043   1.566  -0.033  0.00  0.00    -0.036 C 
ATOM     15  C   UNL     1       0.840  -0.437   1.005  0.00  0.00    -0.074 C 
ATOM     16  C   UNL     1       2.301  -0.205   0.609  0.00  0.00    +0.018 C 
ATOM     17  C   UNL     1      -1.419  -0.425   0.134  0.00  0.00    -0.096 C 
ATOM     18  C   UNL     1       5.088   1.372   0.442  0.00  0.00    +0.220 C 
ATOM     19  N   UNL     1       6.100   2.192   0.530  0.00  0.00    -0.223 NA
ATOM     20  H   UNL     1       4.840   4.880  -0.837  0.00  0.00    +0.149 HD
ATOM     21  N   UNL     1      -0.044   0.083  -0.058  0.00  0.00    +0.381 N 
ATOM     22  H   UNL     1       0.305  -0.236  -0.970  0.00  0.00    -0.082 HD
BRANCH  18  23
ATOM     23  O   UNL     1       5.257   0.037   0.578  0.00  0.00    -0.492 OA
ATOM     24  H   UNL     1       6.172  -0.230   0.741  0.00  0.00    +0.294 HD
ENDBRANCH  18  23
ENDBRANCH   3   7
BRANCH   1  25
ATOM     25  O   UNL     1       6.962   3.286   5.261  0.00  0.00    -0.489 OA
BRANCH  25  27
ATOM     26  C   UNL     1       8.254   1.473   6.203  0.00  0.00    +0.048 C 
ATOM     27  C   UNL     1       7.668   2.088   4.930  0.00  0.00    +0.226 C 
ENDBRANCH  25  27
ENDBRANCH   1  25
BRANCH   6  28
ATOM     28  O   UNL     1       5.569   5.610   5.756  0.00  0.00    -0.419 OA
BRANCH  28  29
ATOM     29  C   UNL     1       6.617   6.309   6.235  0.00  0.00    +0.345 C 
ATOM     30  O   UNL     1       7.553   6.574   5.508  0.00  0.00    -0.245 OA
BRANCH  29  31
ATOM     31  C   UNL     1       6.627   6.753   7.644  0.00  0.00    +0.059 A 
ATOM     32  C   UNL     1       5.549   6.455   8.480  0.00  0.00    +0.015 A 
ATOM     33  C   UNL     1       5.567   6.869   9.796  0.00  0.00    +0.004 A 
ATOM     34  C   UNL     1       6.645   7.587  10.284  0.00  0.00    -0.050 A 
ATOM     35  C   UNL     1       7.713   7.890   9.459  0.00  0.00    +0.004 A 
ATOM     36  C   UNL     1       7.711   7.478   8.143  0.00  0.00    +0.015 A 
ATOM     37  C   UNL     1       6.655   8.040  11.722  0.00  0.00    +0.044 C 
ENDBRANCH  29  31
ENDBRANCH  28  29
ENDBRANCH   6  28
TORSDOF 7
