REMARK  Name = ZINC11376582
REMARK  11 active torsions:
REMARK  status: ('A' for Active; 'I' for Inactive)
REMARK    1  A    between atoms: C_1  and  C_2
REMARK    2  A    between atoms: C_2  and  C_4
REMARK    3  A    between atoms: C_2  and  N_10
REMARK    4  A    between atoms: C_11  and  C_13
REMARK    5  A    between atoms: C_18  and  N_19
REMARK    6  A    between atoms: C_20  and  C_22
REMARK    7  A    between atoms: C_22  and  N_23
REMARK    8  A    between atoms: C_26  and  C_30
REMARK    9  A    between atoms: C_26  and  C_31
REMARK   10  A    between atoms: C_31  and  C_32
REMARK   11  A    between atoms: C_32  and  C_33
REMARK                            x       y       z     vdW  Elec       q    Type
REMARK                         _______ _______ _______ _____ _____    ______ ____
ROOT
ATOM      1  N   UNL     1       2.127   6.374   2.757  0.00  0.00    -0.284 N 
ATOM      2  C   UNL     1       1.635   5.161   2.438  0.00  0.00    +0.235 C 
ATOM      3  O   UNL     1       2.271   4.418   1.720  0.00  0.00    -0.274 OA
ATOM      4  H   UNL     1       1.591   6.993   3.277  0.00  0.00    +0.155 HD
ENDROOT
BRANCH   1  10
ATOM      5  C   UNL     1       4.213   7.537   3.162  0.00  0.00    +0.058 A 
ATOM      6  C   UNL     1       5.493   7.896   2.732  0.00  0.00    +0.015 A 
ATOM      7  C   UNL     1       5.951   7.467   1.505  0.00  0.00    +0.001 A 
ATOM      8  C   UNL     1       5.149   6.680   0.695  0.00  0.00    +0.002 A 
ATOM      9  C   UNL     1       3.885   6.313   1.108  0.00  0.00    +0.024 A 
ATOM     10  C   UNL     1       3.404   6.740   2.339  0.00  0.00    +0.046 A 
BRANCH   5  12
ATOM     11  N   UNL     1       4.452   8.845   5.214  0.00  0.00    -0.305 N 
ATOM     12  C   UNL     1       3.717   7.992   4.475  0.00  0.00    +0.246 C 
ATOM     13  O   UNL     1       2.644   7.597   4.889  0.00  0.00    -0.270 OA
ATOM     14  H   UNL     1       5.308   9.161   4.884  0.00  0.00    +0.150 HD
BRANCH  11  16
ATOM     15  C   UNL     1       4.338   8.273   7.589  0.00  0.00    +0.033 C 
ATOM     16  C   UNL     1       3.959   9.297   6.518  0.00  0.00    +0.100 C 
BRANCH  16  17
ATOM     17  C   UNL     1       4.578  10.629   6.855  0.00  0.00    -0.027 A 
ATOM     18  C   UNL     1       5.910  10.865   6.568  0.00  0.00    +0.005 A 
ATOM     19  C   UNL     1       6.476  12.088   6.873  0.00  0.00    +0.000 A 
ATOM     20  C   UNL     1       5.714  13.073   7.474  0.00  0.00    +0.000 A 
ATOM     21  C   UNL     1       4.384  12.835   7.765  0.00  0.00    +0.000 A 
ATOM     22  C   UNL     1       3.816  11.613   7.456  0.00  0.00    +0.005 A 
ENDBRANCH  16  17
ENDBRANCH  11  16
ENDBRANCH   5  12
ENDBRANCH   1  10
BRANCH   2  23
ATOM     23  C   UNL     1       0.295   4.726   2.973  0.00  0.00    +0.214 C 
BRANCH  23  24
ATOM     24  N   UNL     1      -0.012   3.379   2.486  0.00  0.00    -0.215 N 
ATOM     25  C   UNL     1      -0.670   3.120   1.339  0.00  0.00    +0.247 C 
ATOM     26  O   UNL     1      -1.103   3.928   0.545  0.00  0.00    -0.273 OA
ATOM     27  C   UNL     1      -0.755   1.610   1.246  0.00  0.00    +0.110 C 
ATOM     28  N   UNL     1      -0.071   1.149   2.467  0.00  0.00    -0.285 N 
ATOM     29  C   UNL     1       0.327   2.253   3.125  0.00  0.00    +0.310 C 
ATOM     30  O   UNL     1       0.927   2.231   4.181  0.00  0.00    -0.252 OA
ATOM     31  C   UNL     1      -0.027   1.105  -0.001  0.00  0.00    +0.041 C 
ATOM     32  H   UNL     1       0.067   0.230   2.743  0.00  0.00    +0.151 HD
BRANCH  27  33
ATOM     33  C   UNL     1      -2.214   1.149   1.241  0.00  0.00    +0.039 C 
BRANCH  33  34
ATOM     34  C   UNL     1      -2.266  -0.378   1.329  0.00  0.00    +0.037 C 
BRANCH  34  35
ATOM     35  C   UNL     1      -3.703  -0.832   1.323  0.00  0.00    -0.047 A 
ATOM     36  C   UNL     1      -4.388  -0.976   2.515  0.00  0.00    +0.003 A 
ATOM     37  C   UNL     1      -5.707  -1.388   2.510  0.00  0.00    +0.000 A 
ATOM     38  C   UNL     1      -6.339  -1.666   1.312  0.00  0.00    +0.000 A 
ATOM     39  C   UNL     1      -5.654  -1.527   0.120  0.00  0.00    +0.000 A 
ATOM     40  C   UNL     1      -4.335  -1.110   0.125  0.00  0.00    +0.003 A 
ENDBRANCH  34  35
ENDBRANCH  33  34
ENDBRANCH  27  33
ENDBRANCH  23  24
ENDBRANCH   2  23
TORSDOF 9
