REMARK  Name = ZINC19891145
REMARK  6 active torsions:
REMARK  status: ('A' for Active; 'I' for Inactive)
REMARK    1  A    between atoms: C_1  and  N_2
REMARK    2  A    between atoms: C_6  and  C_7
REMARK    3  A    between atoms: C_12  and  N_14
REMARK    4  A    between atoms: N_14  and  C_15
REMARK    5  A    between atoms: C_18  and  C_22
REMARK    6  A    between atoms: C_19  and  O_21
REMARK                            x       y       z     vdW  Elec       q    Type
REMARK                         _______ _______ _______ _____ _____    ______ ____
ROOT
ATOM      1  C   UNL     1       0.136   1.579  -0.250  0.00  0.00    +0.046 C 
ATOM      2  C   UNL     1       0.172   0.216  -0.230  0.00  0.00    +0.081 C 
ATOM      3  C   UNL     1       1.323  -0.702  -0.350  0.00  0.00    +0.276 C 
ATOM      4  O   UNL     1       2.464  -0.289  -0.492  0.00  0.00    -0.267 OA
ATOM      5  N   UNL     1       1.054  -1.988  -0.295  0.00  0.00    -0.152 NA
ATOM      6  C   UNL     1      -0.177  -2.449  -0.142  0.00  0.00    +0.175 C 
ATOM      7  S   UNL     1      -1.161  -0.962  -0.044  0.00  0.00    -0.050 S 
ENDROOT
BRANCH   1  13
ATOM      8  C   UNL     1      -0.241   4.608  -0.575  0.00  0.00    +0.149 C 
ATOM      9  N   UNL     1      -1.298   3.611  -0.388  0.00  0.00    -0.350 N 
ATOM     10  C   UNL     1      -2.630   3.869  -0.327  0.00  0.00    +0.086 A 
ATOM     11  C   UNL     1      -3.296   2.703  -0.146  0.00  0.00    +0.020 A 
ATOM     12  C   UNL     1      -2.354   1.672  -0.097  0.00  0.00    +0.027 A 
ATOM     13  C   UNL     1      -1.106   2.254  -0.243  0.00  0.00    +0.043 A 
ENDBRANCH   1  13
BRANCH   6  14
ATOM     14  N   UNL     1      -0.596  -3.755  -0.070  0.00  0.00    -0.192 NA
BRANCH  14  15
ATOM     15  C   UNL     1       0.338  -4.787  -0.075  0.00  0.00    +0.059 A 
ATOM     16  C   UNL     1       1.531  -4.641  -0.781  0.00  0.00    +0.026 A 
ATOM     17  C   UNL     1       2.456  -5.644  -0.788  0.00  0.00    +0.020 A 
ATOM     18  C   UNL     1       2.207  -6.833  -0.094  0.00  0.00    +0.105 A 
ATOM     19  C   UNL     1       1.004  -6.988   0.614  0.00  0.00    +0.133 A 
ATOM     20  C   UNL     1       0.076  -5.962   0.619  0.00  0.00    +0.071 A 
BRANCH  18  21
ATOM     21  C   UNL     1       3.201  -7.918  -0.107  0.00  0.00    +0.390 C 
ATOM     22  O   UNL     1       2.982  -8.950   0.496  0.00  0.00    -0.240 OA
ATOM     23  O   UNL     1       4.355  -7.766  -0.787  0.00  0.00    -0.240 OA
ENDBRANCH  18  21
BRANCH  19  24
ATOM     24  O   UNL     1       0.754  -8.137   1.290  0.00  0.00    -0.506 OA
ATOM     25  H   UNL     1      -0.189  -8.256   1.843  0.00  0.00    +0.292 HD
ENDBRANCH  19  24
ENDBRANCH  14  15
ENDBRANCH   6  14
TORSDOF 5
