REMARK  Name = ZINC19083219
REMARK  6 active torsions:
REMARK  status: ('A' for Active; 'I' for Inactive)
REMARK    1  A    between atoms: C_1  and  C_2
REMARK    2  A    between atoms: C_2  and  C_3
REMARK    3  A    between atoms: C_2  and  C_4
REMARK    4  A    between atoms: C_2  and  O_5
REMARK    5  A    between atoms: O_5  and  C_6
REMARK    6  A    between atoms: C_12  and  C_14
REMARK                            x       y       z     vdW  Elec       q    Type
REMARK                         _______ _______ _______ _____ _____    ______ ____
ROOT
ATOM      1  C   UNL     1       5.009   4.396  -1.628  0.00  0.00    +0.404 C 
ATOM      2  O   UNL     1       4.161   4.830  -0.874  0.00  0.00    -0.226 OA
ATOM      3  N   UNL     1       4.932   3.124  -2.068  0.00  0.00    -0.264 N 
ATOM      4  C   UNL     1       5.940   2.439  -2.898  0.00  0.00    +0.111 C 
ATOM      5  C   UNL     1       5.159   1.316  -3.624  0.00  0.00    +0.021 C 
ATOM      6  C   UNL     1       4.162   0.868  -2.523  0.00  0.00    +0.025 C 
ATOM      7  C   UNL     1       3.829   2.190  -1.800  0.00  0.00    +0.093 C 
ENDROOT
BRANCH   7   8
ATOM      8  C   UNL     1       3.710   1.944  -0.294  0.00  0.00    +0.118 C 
ATOM      9  C   UNL     1       2.465   1.096   0.001  0.00  0.00    +0.242 C 
ATOM     10  O   UNL     1       2.583  -0.164  -0.659  0.00  0.00    -0.490 OA
ATOM     11  C   UNL     1       3.702  -0.900  -0.462  0.00  0.00    +0.131 A 
ATOM     12  C   UNL     1       3.679  -2.271  -0.679  0.00  0.00    +0.046 A 
ATOM     13  C   UNL     1       4.823  -3.020  -0.490  0.00  0.00    +0.004 A 
ATOM     14  C   UNL     1       6.005  -2.419  -0.087  0.00  0.00    +0.001 A 
ATOM     15  C   UNL     1       6.048  -1.060   0.143  0.00  0.00    +0.015 A 
ATOM     16  C   UNL     1       4.897  -0.293  -0.043  0.00  0.00    +0.059 A 
ATOM     17  C   UNL     1       4.913   1.161   0.200  0.00  0.00    +0.175 C 
ATOM     18  O   UNL     1       5.840   1.703   0.765  0.00  0.00    -0.291 OA
ENDBRANCH   7   8
BRANCH   1  19
ATOM     19  O   UNL     1       6.026   5.185  -2.024  0.00  0.00    -0.445 OA
BRANCH  19  21
ATOM     20  C   UNL     1       6.122   6.509   0.017  0.00  0.00    +0.055 C 
ATOM     21  C   UNL     1       6.045   6.543  -1.511  0.00  0.00    +0.107 C 
ATOM     22  C   UNL     1       7.265   7.281  -2.067  0.00  0.00    +0.055 C 
ATOM     23  C   UNL     1       4.769   7.269  -1.942  0.00  0.00    +0.055 C 
ENDBRANCH  19  21
ENDBRANCH   1  19
TORSDOF 3
