REMARK  Name = ZINC09498399
REMARK  7 active torsions:
REMARK  status: ('A' for Active; 'I' for Inactive)
REMARK    1  A    between atoms: C_1  and  S_2
REMARK    2  A    between atoms: S_2  and  N_5
REMARK    3  A    between atoms: C_12  and  C_14
REMARK    4  A    between atoms: C_14  and  C_16
REMARK    5  A    between atoms: C_16  and  S_17
REMARK    6  A    between atoms: S_17  and  C_18
REMARK    7  A    between atoms: N_22  and  C_27
REMARK                            x       y       z     vdW  Elec       q    Type
REMARK                         _______ _______ _______ _____ _____    ______ ____
ROOT
ATOM      1  C   UNL     1      -0.141   4.285   0.027  0.00  0.00    +0.155 C 
ENDROOT
BRANCH   1   2
ATOM      2  C   UNL     1       1.171   3.544   0.010  0.00  0.00    +0.173 C 
ATOM      3  O   UNL     1       2.216   4.161   0.004  0.00  0.00    -0.291 OA
BRANCH   2  11
ATOM      4  N   UNL     1       1.444  -2.069  -0.023  0.00  0.00    -0.207 N 
ATOM      5  C   UNL     1       2.882  -2.346  -0.038  0.00  0.00    +0.136 C 
ATOM      6  C   UNL     1       3.560  -0.966  -0.037  0.00  0.00    +0.058 C 
ATOM      7  C   UNL     1       2.411   0.017  -0.021  0.00  0.00    -0.023 A 
ATOM      8  C   UNL     1       1.218  -0.699  -0.013  0.00  0.00    +0.054 A 
ATOM      9  C   UNL     1       0.002  -0.004   0.002  0.00  0.00    +0.026 A 
ATOM     10  C   UNL     1      -0.016   1.359   0.009  0.00  0.00    +0.013 A 
ATOM     11  C   UNL     1       1.186   2.077   0.002  0.00  0.00    +0.019 A 
ATOM     12  C   UNL     1       2.403   1.383  -0.012  0.00  0.00    +0.017 A 
BRANCH   4  14
ATOM     13  C   UNL     1      -0.094  -3.540  -1.768  0.00  0.00    +0.218 C 
ATOM     14  S   UNL     1       0.257  -3.224  -0.017  0.00  0.00    +0.043 S 
ATOM     15  O   UNL     1       0.864  -4.365   0.574  0.00  0.00    -0.155 OA
ATOM     16  O   UNL     1      -0.858  -2.595   0.600  0.00  0.00    -0.155 OA
ENDBRANCH   4  14
ENDBRANCH   2  11
ENDBRANCH   1   2
BRANCH   1  17
ATOM     17  S   UNL     1       0.172   6.067   0.034  0.00  0.00    -0.097 S 
BRANCH  17  18
ATOM     18  C   UNL     1      -1.484   6.668   0.053  0.00  0.00    +0.111 A 
ATOM     19  C   UNL     1      -1.750   8.052   0.064  0.00  0.00    +0.071 A 
ATOM     20  C   UNL     1      -0.952   9.216   0.063  0.00  0.00    +0.147 A 
ATOM     21  N   UNL     1      -1.736  10.257   0.077  0.00  0.00    -0.172 NA
ATOM     22  N   UNL     1      -3.073   9.839   0.087  0.00  0.00    -0.214 N 
ATOM     23  C   UNL     1      -3.094   8.473   0.079  0.00  0.00    +0.167 A 
ATOM     24  N   UNL     1      -4.056   7.552   0.083  0.00  0.00    -0.216 NA
ATOM     25  C   UNL     1      -3.759   6.271   0.073  0.00  0.00    +0.224 A 
ATOM     26  N   UNL     1      -2.514   5.828   0.053  0.00  0.00    -0.228 NA
BRANCH  22  27
ATOM     27  C   UNL     1      -4.195  10.677   0.103  0.00  0.00    +0.068 A 
ATOM     28  C   UNL     1      -5.347  10.312  -0.581  0.00  0.00    +0.028 A 
ATOM     29  C   UNL     1      -6.453  11.138  -0.559  0.00  0.00    +0.002 A 
ATOM     30  C   UNL     1      -6.412  12.333   0.135  0.00  0.00    +0.000 A 
ATOM     31  C   UNL     1      -5.265  12.702   0.814  0.00  0.00    +0.002 A 
ATOM     32  C   UNL     1      -4.157  11.878   0.800  0.00  0.00    +0.028 A 
ENDBRANCH  22  27
ENDBRANCH  17  18
ENDBRANCH   1  17
TORSDOF 6
