REMARK  Name = ZINC36348095
REMARK  6 active torsions:
REMARK  status: ('A' for Active; 'I' for Inactive)
REMARK    1  A    between atoms: C_1  and  C_2
REMARK    2  A    between atoms: C_2  and  C_3
REMARK    3  A    between atoms: C_6  and  C_9
REMARK    4  A    between atoms: N_19  and  C_20
REMARK    5  A    between atoms: C_20  and  C_21
REMARK    6  A    between atoms: C_24  and  O_27
REMARK                            x       y       z     vdW  Elec       q    Type
REMARK                         _______ _______ _______ _____ _____    ______ ____
ROOT
ATOM      1  C   UNL     1       2.740  -1.896  -4.672  0.00  0.00    +0.011 C 
ATOM      2  C   UNL     1       3.130  -3.347  -4.525  0.00  0.00    +0.009 A 
ATOM      3  C   UNL     1       2.484  -4.274  -3.792  0.00  0.00    +0.021 A 
ATOM      4  C   UNL     1       3.176  -5.492  -3.948  0.00  0.00    +0.019 A 
ATOM      5  C   UNL     1       4.222  -5.261  -4.767  0.00  0.00    +0.086 A 
ATOM      6  N   UNL     1       4.206  -3.945  -5.118  0.00  0.00    -0.352 N 
ATOM      7  C   UNL     1       5.178  -3.260  -5.976  0.00  0.00    +0.119 C 
ATOM      8  C   UNL     1       4.424  -2.393  -6.989  0.00  0.00    +0.003 C 
ATOM      9  C   UNL     1       4.166  -1.014  -6.395  0.00  0.00    -0.075 C 
ATOM     10  N   UNL     1       3.941  -1.096  -4.950  0.00  0.00    +0.391 N 
ATOM     11  H   UNL     1       4.740  -1.528  -4.511  0.00  0.00    -0.080 HD
ENDROOT
BRANCH   1  15
ATOM     12  C   UNL     1       0.926  -0.531  -1.053  0.00  0.00    -0.048 A 
ATOM     13  C   UNL     1       2.232  -0.983  -1.044  0.00  0.00    +0.004 A 
ATOM     14  C   UNL     1       2.819  -1.425  -2.215  0.00  0.00    +0.002 A 
ATOM     15  C   UNL     1       2.100  -1.415  -3.395  0.00  0.00    -0.055 A 
ATOM     16  C   UNL     1       0.793  -0.965  -3.405  0.00  0.00    +0.002 A 
ATOM     17  C   UNL     1       0.205  -0.527  -2.233  0.00  0.00    +0.004 A 
BRANCH  12  19
ATOM     18  C   UNL     1      -0.390  -1.226   0.930  0.00  0.00    +0.009 C 
ATOM     19  C   UNL     1       0.286  -0.050   0.223  0.00  0.00    +0.032 C 
ENDBRANCH  12  19
ENDBRANCH   1  15
BRANCH  10  20
ATOM     20  C   UNL     1       3.762   0.257  -4.406  0.00  0.00    -0.042 C 
BRANCH  20  21
ATOM     21  C   UNL     1       5.027   1.051  -4.608  0.00  0.00    -0.064 A 
ATOM     22  C   UNL     1       6.013   1.036  -3.639  0.00  0.00    +0.005 A 
ATOM     23  C   UNL     1       7.173   1.764  -3.821  0.00  0.00    +0.045 A 
ATOM     24  C   UNL     1       7.349   2.509  -4.977  0.00  0.00    +0.117 A 
ATOM     25  C   UNL     1       6.358   2.522  -5.949  0.00  0.00    +0.045 A 
ATOM     26  C   UNL     1       5.202   1.788  -5.764  0.00  0.00    +0.005 A 
BRANCH  24  27
ATOM     27  O   UNL     1       8.489   3.225  -5.159  0.00  0.00    -0.507 OA
ATOM     28  H   UNL     1       9.195   2.736  -5.603  0.00  0.00    +0.292 HD
ENDBRANCH  24  27
ENDBRANCH  20  21
ENDBRANCH  10  20
TORSDOF 5
