REMARK  Name = ZINC01632056
REMARK  5 active torsions:
REMARK  status: ('A' for Active; 'I' for Inactive)
REMARK    1  A    between atoms: C_4  and  C_7
REMARK    2  A    between atoms: C_7  and  C_8
REMARK    3  A    between atoms: N_10  and  N_11
REMARK    4  A    between atoms: C_12  and  C_19
REMARK    5  A    between atoms: C_24  and  O_25
REMARK                            x       y       z     vdW  Elec       q    Type
REMARK                         _______ _______ _______ _____ _____    ______ ____
ROOT
ATOM      1  N   UNL     1       2.433   1.050  -0.234  0.00  0.00    -0.210 N 
ATOM      2  C   UNL     1       3.421   0.891   0.826  0.00  0.00    +0.157 C 
ATOM      3  C   UNL     1       4.342   0.248  -0.203  0.00  0.00    +0.194 C 
ATOM      4  C   UNL     1       3.218   0.495  -1.165  0.00  0.00    +0.252 C 
ATOM      5  O   UNL     1       3.074   0.274  -2.349  0.00  0.00    -0.272 OA
ATOM      6 CL   UNL     1       4.679  -1.497   0.096  0.00  0.00    -0.109 Cl
ENDROOT
BRANCH   2   7
ATOM      7  C   UNL     1       2.985  -0.055   1.915  0.00  0.00    +0.018 A 
ATOM      8  C   UNL     1       1.990  -0.982   1.669  0.00  0.00    +0.009 A 
ATOM      9  C   UNL     1       1.593  -1.853   2.666  0.00  0.00    +0.001 A 
ATOM     10  C   UNL     1       2.183  -1.793   3.915  0.00  0.00    +0.004 A 
ATOM     11  C   UNL     1       3.174  -0.865   4.168  0.00  0.00    +0.046 A 
ATOM     12  C   UNL     1       3.578   0.007   3.168  0.00  0.00    +0.122 A 
BRANCH  12  13
ATOM     13  O   UNL     1       4.553   0.921   3.414  0.00  0.00    -0.506 OA
ATOM     14  H   UNL     1       4.224   1.768   3.746  0.00  0.00    +0.292 HD
ENDBRANCH  12  13
ENDBRANCH   2   7
BRANCH   1  17
ATOM     15  C   UNL     1       0.969   2.928  -0.247  0.00  0.00    +0.234 C 
ATOM     16  O   UNL     1       1.926   3.660  -0.111  0.00  0.00    -0.274 OA
ATOM     17  N   UNL     1       1.141   1.591  -0.267  0.00  0.00    -0.231 N 
ATOM     18  H   UNL     1       0.370   1.003  -0.304  0.00  0.00    +0.173 HD
BRANCH  15  19
ATOM     19  C   UNL     1      -0.413   3.511  -0.388  0.00  0.00    +0.132 C 
BRANCH  19  23
ATOM     20  C   UNL     1      -0.183   7.774  -0.216  0.00  0.00    +0.000 A 
ATOM     21  C   UNL     1      -0.081   7.124  -1.432  0.00  0.00    +0.000 A 
ATOM     22  C   UNL     1      -0.156   5.745  -1.488  0.00  0.00    +0.004 A 
ATOM     23  C   UNL     1      -0.332   5.015  -0.327  0.00  0.00    -0.039 A 
ATOM     24  C   UNL     1      -0.438   5.665   0.888  0.00  0.00    +0.004 A 
ATOM     25  C   UNL     1      -0.359   7.043   0.945  0.00  0.00    +0.000 A 
ENDBRANCH  19  23
ENDBRANCH  15  19
ENDBRANCH   1  17
TORSDOF 5
