REMARK  Name = ZINC27839790
REMARK  5 active torsions:
REMARK  status: ('A' for Active; 'I' for Inactive)
REMARK    1  A    between atoms: C_4  and  C_7
REMARK    2  A    between atoms: C_10  and  C_25
REMARK    3  A    between atoms: N_12  and  C_13
REMARK    4  A    between atoms: C_16  and  C_19
REMARK    5  A    between atoms: N_20  and  N_21
REMARK                            x       y       z     vdW  Elec       q    Type
REMARK                         _______ _______ _______ _____ _____    ______ ____
ROOT
ATOM      1  C   UNL     1      -3.772   1.627   0.028  0.00  0.00    +0.134 C 
ATOM      2  C   UNL     1      -4.703   0.398   0.025  0.00  0.00    +0.087 C 
ATOM      3  C   UNL     1      -3.752  -0.778   0.013  0.00  0.00    +0.069 C 
ATOM      4  N   UNL     1      -2.537  -0.350   0.005  0.00  0.00    -0.183 NA
ATOM      5  N   UNL     1      -2.423   1.039   0.019  0.00  0.00    -0.216 N 
ENDROOT
BRANCH   1   9
ATOM      6  C   UNL     1      -4.372   3.956   3.558  0.00  0.00    +0.000 A 
ATOM      7  C   UNL     1      -4.883   4.390   2.349  0.00  0.00    +0.000 A 
ATOM      8  C   UNL     1      -4.688   3.636   1.207  0.00  0.00    +0.005 A 
ATOM      9  C   UNL     1      -3.984   2.449   1.274  0.00  0.00    -0.025 A 
ATOM     10  C   UNL     1      -3.478   2.012   2.484  0.00  0.00    +0.005 A 
ATOM     11  C   UNL     1      -3.668   2.768   3.625  0.00  0.00    +0.000 A 
ENDBRANCH   1   9
BRANCH   5  12
ATOM     12  C   UNL     1      -1.228   1.754   0.017  0.00  0.00    +0.052 A 
ATOM     13  C   UNL     1      -0.013   1.076   0.008  0.00  0.00    +0.025 A 
ATOM     14  C   UNL     1       1.171   1.780   0.000  0.00  0.00    +0.011 A 
ATOM     15  C   UNL     1       1.151   3.178   0.008  0.00  0.00    -0.005 A 
ATOM     16  C   UNL     1      -0.071   3.856   0.023  0.00  0.00    +0.011 A 
ATOM     17  C   UNL     1      -1.251   3.146   0.031  0.00  0.00    +0.025 A 
BRANCH  15  18
ATOM     18  C   UNL     1       2.416   3.934  -0.000  0.00  0.00    +0.140 C 
ATOM     19  N   UNL     1       2.396   5.232   0.007  0.00  0.00    -0.179 NA
BRANCH  19  20
ATOM     20  N   UNL     1       3.598   5.951  -0.001  0.00  0.00    -0.249 N 
ATOM     21  C   UNL     1       3.577   7.327   0.006  0.00  0.00    +0.187 C 
ATOM     22  N   UNL     1       2.438   7.961   0.021  0.00  0.00    -0.370 N 
ATOM     23  N   UNL     1       4.757   8.033  -0.002  0.00  0.00    -0.370 N 
ATOM     24  H   UNL     1       4.559   5.416  -0.014  0.00  0.00    +0.192 HD
ATOM     25  H   UNL     1       2.421   9.061   0.027  0.00  0.00    +0.159 HD
ATOM     26  H   UNL     1       4.740   9.133   0.004  0.00  0.00    +0.159 HD
ATOM     27  H   UNL     1       5.718   7.498  -0.014  0.00  0.00    +0.159 HD
ATOM     28  H   UNL     1       1.494   7.397   0.027  0.00  0.00    +0.159 HD
ENDBRANCH  19  20
ENDBRANCH  15  18
ENDBRANCH   5  12
BRANCH   3  29
ATOM     29  C   UNL     1      -4.154  -2.197   0.007  0.00  0.00    -0.002 A 
ATOM     30  C   UNL     1      -5.508  -2.543   0.017  0.00  0.00    +0.010 A 
ATOM     31  C   UNL     1      -5.877  -3.872   0.005  0.00  0.00    +0.001 A 
ATOM     32  C   UNL     1      -4.909  -4.862  -0.005  0.00  0.00    +0.000 A 
ATOM     33  C   UNL     1      -3.567  -4.526  -0.010  0.00  0.00    +0.001 A 
ATOM     34  C   UNL     1      -3.183  -3.201  -0.004  0.00  0.00    +0.010 A 
ENDBRANCH   3  29
TORSDOF 5
