REMARK  Name = ZINC32180833
REMARK  6 active torsions:
REMARK  status: ('A' for Active; 'I' for Inactive)
REMARK    1  A    between atoms: C_3  and  N_36
REMARK    2  A    between atoms: C_6  and  C_7
REMARK    3  A    between atoms: C_18  and  S_23
REMARK    4  A    between atoms: S_23  and  N_26
REMARK    5  A    between atoms: N_26  and  C_27
REMARK    6  A    between atoms: C_30  and  C_33
REMARK                            x       y       z     vdW  Elec       q    Type
REMARK                         _______ _______ _______ _____ _____    ______ ____
ROOT
ATOM      1  C   UNL     1      -7.431   4.383   0.120  0.00  0.00    +0.105 C 
ATOM      2  C   UNL     1      -6.420   3.254   0.026  0.00  0.00    +0.029 C 
ATOM      3  C   UNL     1      -6.902   1.931  -0.584  0.00  0.00    +0.033 C 
ATOM      4  C   UNL     1      -5.611   1.384  -1.194  0.00  0.00    -0.030 C 
ATOM      5  C   UNL     1      -4.783   2.384  -1.477  0.00  0.00    -0.023 C 
ATOM      6  C   UNL     1      -5.447   3.664  -1.120  0.00  0.00    +0.049 C 
ATOM      7  C   UNL     1      -4.679   4.843  -0.664  0.00  0.00    -0.018 A 
ATOM      8  C   UNL     1      -3.367   5.057  -1.027  0.00  0.00    +0.034 A 
ATOM      9  C   UNL     1      -2.696   6.184  -0.588  0.00  0.00    +0.109 A 
ATOM     10  C   UNL     1      -3.346   7.107   0.211  0.00  0.00    +0.030 A 
ATOM     11  C   UNL     1      -4.659   6.900   0.582  0.00  0.00    +0.025 A 
ATOM     12  C   UNL     1      -5.340   5.767   0.152  0.00  0.00    +0.031 A 
ATOM     13  N   UNL     1      -6.665   5.570   0.558  0.00  0.00    -0.336 N 
ATOM     14  H   UNL     1      -7.135   6.316   1.214  0.00  0.00    +0.147 HD
ENDROOT
BRANCH   1  20
ATOM     15  C   UNL     1      -8.215   4.138   2.484  0.00  0.00    +0.008 A 
ATOM     16  C   UNL     1      -9.191   3.833   3.414  0.00  0.00    +0.033 A 
ATOM     17  C   UNL     1     -10.444   3.428   2.994  0.00  0.00    +0.126 A 
ATOM     18  C   UNL     1     -10.722   3.331   1.643  0.00  0.00    +0.033 A 
ATOM     19  C   UNL     1      -9.747   3.640   0.713  0.00  0.00    +0.008 A 
ATOM     20  C   UNL     1      -8.494   4.046   1.134  0.00  0.00    -0.027 A 
BRANCH  17  21
ATOM     21  N   UNL     1     -11.488   3.097   3.990  0.00  0.00    +0.056 N 
ATOM     22  O   UNL     1     -12.591   2.740   3.619  0.00  0.00    -0.126 OA
ATOM     23  O   UNL     1     -11.243   3.183   5.180  0.00  0.00    -0.126 OA
ENDBRANCH  17  21
ENDBRANCH   1  20
BRANCH   9  24
ATOM     24  S   UNL     1      -1.017   6.447  -1.053  0.00  0.00    +0.072 S 
ATOM     25  O   UNL     1      -0.768   7.838  -0.902  0.00  0.00    -0.150 OA
ATOM     26  O   UNL     1      -0.826   5.768  -2.287  0.00  0.00    -0.150 OA
BRANCH  24  27
ATOM     27  N   UNL     1      -0.073   5.673   0.065  0.00  0.00    -0.216 N 
ATOM     28  H   UNL     1       0.607   6.252   0.707  0.00  0.00    +0.174 HD
BRANCH  27  29
ATOM     29  C   UNL     1      -0.138   4.290   0.192  0.00  0.00    +0.048 A 
ATOM     30  C   UNL     1       0.455   3.475  -0.769  0.00  0.00    +0.025 A 
ATOM     31  C   UNL     1       0.392   2.111  -0.646  0.00  0.00    +0.017 A 
ATOM     32  C   UNL     1      -0.268   1.538   0.445  0.00  0.00    +0.063 A 
ATOM     33  C   UNL     1      -0.868   2.359   1.405  0.00  0.00    +0.017 A 
ATOM     34  C   UNL     1      -0.797   3.723   1.280  0.00  0.00    +0.025 A 
BRANCH  32  35
ATOM     35  C   UNL     1      -0.338   0.072   0.580  0.00  0.00    +0.387 C 
ATOM     36  O   UNL     1       0.179  -0.640  -0.258  0.00  0.00    -0.241 OA
ATOM     37  O   UNL     1      -0.975  -0.479   1.632  0.00  0.00    -0.241 OA
ENDBRANCH  32  35
ENDBRANCH  27  29
ENDBRANCH  24  27
ENDBRANCH   9  24
TORSDOF 6
