REMARK  Name = ZINC22209983
REMARK  3 active torsions:
REMARK  status: ('A' for Active; 'I' for Inactive)
REMARK    1  A    between atoms: C_3  and  N_17
REMARK    2  A    between atoms: C_4  and  N_8
REMARK    3  A    between atoms: C_11  and  C_14
REMARK                            x       y       z     vdW  Elec       q    Type
REMARK                         _______ _______ _______ _____ _____    ______ ____
ROOT
ATOM      1  N   UNL     1      -0.017   1.397   0.010  0.00  0.00    -0.327 N 
ATOM      2  C   UNL     1      -0.806   1.919  -1.114  0.00  0.00    +0.106 C 
ATOM      3  C   UNL     1      -0.926   3.439  -0.992  0.00  0.00    +0.031 C 
ATOM      4  C   UNL     1       0.474   4.059  -0.995  0.00  0.00    +0.078 C 
ATOM      5  C   UNL     1       1.291   3.463   0.155  0.00  0.00    +0.031 C 
ATOM      6  C   UNL     1       1.347   1.942  -0.000  0.00  0.00    +0.106 C 
ENDROOT
BRANCH   1  10
ATOM      7  C   UNL     1       0.040  -2.776  -0.014  0.00  0.00    +0.003 A 
ATOM      8  C   UNL     1      -0.560  -2.103   1.035  0.00  0.00    +0.024 A 
ATOM      9  C   UNL     1      -0.582  -0.717   1.049  0.00  0.00    +0.047 A 
ATOM     10  C   UNL     1       0.002  -0.004   0.002  0.00  0.00    +0.069 A 
ATOM     11  C   UNL     1       0.597  -0.686  -1.050  0.00  0.00    +0.064 A 
ATOM     12  C   UNL     1       0.619  -2.070  -1.052  0.00  0.00    +0.022 A 
ATOM     13 CL   UNL     1       1.319   0.196  -2.359  0.00  0.00    -0.082 Cl
BRANCH   9  14
ATOM     14  N   UNL     1      -1.188  -0.035   2.111  0.00  0.00    -0.356 N 
ATOM     15  H   UNL     1      -1.204   1.065   2.120  0.00  0.00    +0.142 HD
ATOM     16  H   UNL     1      -1.647  -0.599   2.936  0.00  0.00    +0.142 HD
ENDBRANCH   9  14
ENDBRANCH   1  10
BRANCH   4  17
ATOM     17  C   UNL     1       0.366   5.551  -0.816  0.00  0.00    +0.214 C 
ATOM     18  O   UNL     1       0.890   6.087   0.138  0.00  0.00    -0.276 OA
ATOM     19  N   UNL     1      -0.312   6.291  -1.715  0.00  0.00    -0.329 N 
ATOM     20  H   UNL     1      -0.391   7.380  -1.584  0.00  0.00    +0.145 HD
ATOM     21  H   UNL     1      -0.788   5.805  -2.580  0.00  0.00    +0.145 HD
ENDBRANCH   4  17
TORSDOF 3
