REMARK  Name = ZINC04090996
REMARK  9 active torsions:
REMARK  status: ('A' for Active; 'I' for Inactive)
REMARK    1  A    between atoms: C_1  and  N_2
REMARK    2  A    between atoms: N_2  and  C_3
REMARK    3  A    between atoms: N_2  and  C_4
REMARK    4  A    between atoms: C_4  and  C_10
REMARK    5  A    between atoms: C_5  and  C_6
REMARK    6  A    between atoms: C_5  and  C_8
REMARK    7  A    between atoms: C_10  and  C_11
REMARK    8  A    between atoms: N_12  and  N_13
REMARK    9  A    between atoms: C_17  and  C_20
REMARK                            x       y       z     vdW  Elec       q    Type
REMARK                         _______ _______ _______ _____ _____    ______ ____
ROOT
ATOM      1  N   UNL     1       0.530   2.245   0.341  0.00  0.00    -0.220 N 
ATOM      2  C   UNL     1       0.296   3.613   0.429  0.00  0.00    +0.156 A 
ATOM      3  C   UNL     1       1.371   4.493   0.529  0.00  0.00    +0.083 A 
ATOM      4  C   UNL     1       1.122   5.851   0.611  0.00  0.00    +0.037 A 
ATOM      5  C   UNL     1      -0.198   6.285   0.600  0.00  0.00    +0.074 A 
ATOM      6  C   UNL     1      -1.214   5.357   0.503  0.00  0.00    +0.125 A 
ATOM      7  N   UNL     1      -0.948   4.067   0.421  0.00  0.00    -0.237 NA
ATOM      8 CL   UNL     1       3.000   3.893   0.546  0.00  0.00    -0.080 Cl
ATOM      9  H   UNL     1       1.440   1.908   0.346  0.00  0.00    +0.176 HD
ENDROOT
BRANCH   5  10
ATOM     10  C   UNL     1      -0.516   7.756   0.692  0.00  0.00    +0.419 C 
ATOM     11  F   UNL     1      -1.903   7.935   0.660  0.00  0.00    -0.166 F 
ATOM     12  F   UNL     1      -0.006   8.269   1.889  0.00  0.00    -0.166 F 
ATOM     13  F   UNL     1       0.066   8.427  -0.389  0.00  0.00    -0.166 F 
ENDBRANCH   5  10
BRANCH   1  15
ATOM     14  C   UNL     1      -0.330   0.095   0.164  0.00  0.00    +0.109 C 
ATOM     15  N   UNL     1      -0.546   1.354   0.245  0.00  0.00    -0.193 NA
BRANCH  14  16
ATOM     16  C   UNL     1      -1.489  -0.864   0.061  0.00  0.00    +0.101 C 
BRANCH  16  17
ATOM     17  C   UNL     1      -1.318  -1.728  -1.161  0.00  0.00    +0.039 C 
ATOM     18  C   UNL     1      -0.729  -2.968  -1.050  0.00  0.00    +0.145 C 
BRANCH  17  20
ATOM     19  C   UNL     1      -2.844  -1.971  -3.058  0.00  0.00    +0.128 C 
ATOM     20  N   UNL     1      -1.746  -1.285  -2.373  0.00  0.00    -0.337 N 
ATOM     21  C   UNL     1      -1.109  -0.121  -2.994  0.00  0.00    +0.128 C 
ENDBRANCH  17  20
BRANCH  18  22
ATOM     22  C   UNL     1      -0.450  -3.736  -2.227  0.00  0.00    +0.112 C 
ATOM     23  N   UNL     1      -0.230  -4.346  -3.159  0.00  0.00    -0.190 NA
ENDBRANCH  18  22
BRANCH  18  24
ATOM     24  C   UNL     1      -0.394  -3.489   0.241  0.00  0.00    +0.112 C 
ATOM     25  N   UNL     1      -0.128  -3.902   1.265  0.00  0.00    -0.190 NA
ENDBRANCH  18  24
ENDBRANCH  16  17
ENDBRANCH  14  16
ENDBRANCH   1  15
TORSDOF 7
