REMARK  Name = ZINC23139371
REMARK  6 active torsions:
REMARK  status: ('A' for Active; 'I' for Inactive)
REMARK    1  A    between atoms: C_4  and  C_8
REMARK    2  A    between atoms: N_10  and  C_11
REMARK    3  A    between atoms: N_15  and  C_16
REMARK    4  A    between atoms: C_16  and  C_17
REMARK    5  A    between atoms: N_19  and  C_20
REMARK    6  A    between atoms: C_20  and  C_21
REMARK                            x       y       z     vdW  Elec       q    Type
REMARK                         _______ _______ _______ _____ _____    ______ ____
ROOT
ATOM      1  C   UNL     1       2.333   1.183  -0.108  0.00  0.00    +0.128 A 
ATOM      2  C   UNL     1       3.603   1.712  -0.125  0.00  0.00    +0.026 A 
ATOM      3  C   UNL     1       4.497   0.662  -0.247  0.00  0.00    +0.079 A 
ATOM      4  N   UNL     1       3.806  -0.467  -0.303  0.00  0.00    -0.173 NA
ATOM      5  N   UNL     1       2.447  -0.162  -0.211  0.00  0.00    -0.241 N 
ATOM      6  C   UNL     1       5.981   1.024  -0.288  0.00  0.00    +0.127 C 
ATOM      7  S   UNL     1       5.963   2.756   0.331  0.00  0.00    -0.150 S 
ATOM      8  C   UNL     1       4.199   3.116  -0.044  0.00  0.00    +0.110 C 
ENDROOT
BRANCH   1  11
ATOM      9  C   UNL     1       1.081   3.173  -0.442  0.00  0.00    +0.254 C 
ATOM     10  O   UNL     1       2.080   3.716  -0.872  0.00  0.00    -0.270 OA
ATOM     11  N   UNL     1       1.143   1.901   0.002  0.00  0.00    -0.266 N 
ATOM     12  H   UNL     1       0.256   1.431   0.450  0.00  0.00    +0.157 HD
BRANCH   9  16
ATOM     13  C   UNL     1      -2.603   5.284  -0.321  0.00  0.00    +0.004 A 
ATOM     14  C   UNL     1      -1.746   5.335   0.764  0.00  0.00    +0.039 A 
ATOM     15  C   UNL     1      -0.548   4.647   0.735  0.00  0.00    +0.137 A 
ATOM     16  C   UNL     1      -0.199   3.906  -0.400  0.00  0.00    +0.090 A 
ATOM     17  C   UNL     1      -1.071   3.861  -1.491  0.00  0.00    +0.056 A 
ATOM     18  C   UNL     1      -2.267   4.550  -1.444  0.00  0.00    +0.021 A 
ATOM     19 CL   UNL     1      -0.652   2.940  -2.902  0.00  0.00    -0.083 Cl
ATOM     20  F   UNL     1       0.286   4.693   1.797  0.00  0.00    -0.205 F 
ENDBRANCH   9  16
ENDBRANCH   1  11
BRANCH   5  21
ATOM     21  C   UNL     1       1.343  -1.124  -0.227  0.00  0.00    +0.241 C 
BRANCH  21  22
ATOM     22  C   UNL     1       0.976  -1.445  -1.653  0.00  0.00    +0.235 C 
ATOM     23  O   UNL     1       1.579  -0.921  -2.566  0.00  0.00    -0.274 OA
ATOM     24  N   UNL     1      -0.021  -2.313  -1.913  0.00  0.00    -0.307 N 
ATOM     25  H   UNL     1      -0.567  -2.788  -1.085  0.00  0.00    +0.149 HD
BRANCH  24  26
ATOM     26  C   UNL     1      -0.377  -2.625  -3.300  0.00  0.00    +0.178 C 
BRANCH  26  27
ATOM     27  C   UNL     1      -1.513  -3.615  -3.316  0.00  0.00    +0.122 A 
ATOM     28  C   UNL     1      -2.823  -3.309  -3.325  0.00  0.00    +0.046 A 
ATOM     29  C   UNL     1      -3.530  -4.534  -3.339  0.00  0.00    +0.041 A 
ATOM     30  C   UNL     1      -2.609  -5.515  -3.337  0.00  0.00    +0.195 A 
ATOM     31  O   UNL     1      -1.390  -4.952  -3.329  0.00  0.00    -0.466 OA
ENDBRANCH  26  27
ENDBRANCH  24  26
ENDBRANCH  21  22
ENDBRANCH   5  21
TORSDOF 6
