REMARK  Name = ZINC63456356
REMARK  6 active torsions:
REMARK  status: ('A' for Active; 'I' for Inactive)
REMARK    1  A    between atoms: C_1  and  N_2
REMARK    2  A    between atoms: C_5  and  C_13
REMARK    3  A    between atoms: C_6  and  N_12
REMARK    4  A    between atoms: N_14  and  O_15
REMARK    5  A    between atoms: O_15  and  C_16
REMARK    6  A    between atoms: C_16  and  C_17
REMARK                            x       y       z     vdW  Elec       q    Type
REMARK                         _______ _______ _______ _____ _____    ______ ____
ROOT
ATOM      1  C   UNL     1      -0.010   1.464   0.057  0.00  0.00    +0.133 C 
ATOM      2  N   UNL     1       0.005  -0.001   0.027  0.00  0.00    -0.289 N 
ATOM      3  C   UNL     1       0.010  -0.776  -1.077  0.00  0.00    +0.252 C 
ATOM      4  O   UNL     1       0.003  -0.358  -2.220  0.00  0.00    -0.270 OA
ATOM      5  C   UNL     1       0.027  -2.191  -0.703  0.00  0.00    +0.098 C 
ATOM      6  C   UNL     1       0.031  -2.294   0.663  0.00  0.00    +0.041 C 
ATOM      7  C   UNL     1       0.022  -0.886   1.184  0.00  0.00    +0.076 C 
ATOM      8  C   UNL     1       1.238  -0.613   2.087  0.00  0.00    +0.032 C 
ATOM      9  C   UNL     1       0.788   0.568   2.976  0.00  0.00    +0.003 C 
ATOM     10  C   UNL     1      -0.751   0.551   2.986  0.00  0.00    +0.003 C 
ATOM     11  C   UNL     1      -1.186  -0.639   2.103  0.00  0.00    +0.032 C 
ENDROOT
BRANCH   5  12
ATOM     12  C   UNL     1       0.037  -3.325  -1.646  0.00  0.00    +0.169 C 
ATOM     13  N   UNL     1       0.154  -4.543  -1.199  0.00  0.00    -0.068 NA
ATOM     14  N   UNL     1      -0.079  -3.094  -3.007  0.00  0.00    -0.340 N 
ATOM     15  H   UNL     1      -0.092  -2.185  -3.345  0.00  0.00    +0.144 HD
ATOM     16  H   UNL     1      -0.146  -3.842  -3.621  0.00  0.00    +0.144 HD
BRANCH  13  17
ATOM     17  O   UNL     1       0.164  -5.632  -2.105  0.00  0.00    -0.388 OA
BRANCH  17  18
ATOM     18  C   UNL     1       0.299  -6.909  -1.478  0.00  0.00    +0.298 C 
BRANCH  18  19
ATOM     19  C   UNL     1       0.298  -7.988  -2.530  0.00  0.00    -0.005 A 
ATOM     20  C   UNL     1      -0.895  -8.562  -2.929  0.00  0.00    +0.007 A 
ATOM     21  C   UNL     1      -0.898  -9.552  -3.894  0.00  0.00    +0.003 A 
ATOM     22  C   UNL     1       0.291  -9.969  -4.460  0.00  0.00    +0.038 A 
ATOM     23  C   UNL     1       1.486  -9.395  -4.061  0.00  0.00    +0.124 A 
ATOM     24  C   UNL     1       1.488  -8.399  -3.099  0.00  0.00    +0.045 A 
ATOM     25  F   UNL     1       2.650  -9.803  -4.614  0.00  0.00    -0.205 F 
ENDBRANCH  18  19
ENDBRANCH  17  18
ENDBRANCH  13  17
ENDBRANCH   5  12
BRANCH   6  26
ATOM     26  N   UNL     1       0.045  -3.439   1.397  0.00  0.00    -0.359 N 
ATOM     27  H   UNL     1       0.128  -4.298   0.954  0.00  0.00    +0.142 HD
ATOM     28  H   UNL     1      -0.028  -3.397   2.363  0.00  0.00    +0.142 HD
ENDBRANCH   6  26
TORSDOF 5
