REMARK  Name = ZINC17177143
REMARK  11 active torsions:
REMARK  status: ('A' for Active; 'I' for Inactive)
REMARK    1  A    between atoms: C_1  and  C_2
REMARK    2  A    between atoms: C_2  and  C_3
REMARK    3  A    between atoms: C_3  and  N_4
REMARK    4  A    between atoms: C_8  and  S_31
REMARK    5  A    between atoms: C_12  and  S_13
REMARK    6  A    between atoms: S_13  and  C_14
REMARK    7  A    between atoms: C_14  and  C_15
REMARK    8  A    between atoms: N_17  and  C_18
REMARK    9  A    between atoms: C_18  and  C_20
REMARK   10  A    between atoms: C_18  and  C_21
REMARK   11  A    between atoms: S_31  and  N_34
REMARK                            x       y       z     vdW  Elec       q    Type
REMARK                         _______ _______ _______ _____ _____    ______ ____
ROOT
ATOM      1  N   UNL     1       4.847   2.054   6.705  0.00  0.00    -0.319 N 
ATOM      2  C   UNL     1       5.044   1.152   7.738  0.00  0.00    +0.070 A 
ATOM      3  C   UNL     1       5.958   1.066   8.778  0.00  0.00    +0.030 A 
ATOM      4  C   UNL     1       5.892   0.011   9.664  0.00  0.00    +0.030 A 
ATOM      5  C   UNL     1       4.918  -0.966   9.522  0.00  0.00    +0.107 A 
ATOM      6  C   UNL     1       4.003  -0.897   8.496  0.00  0.00    +0.058 A 
ATOM      7  C   UNL     1       4.056   0.166   7.590  0.00  0.00    +0.092 A 
ATOM      8  N   UNL     1       3.313   0.503   6.503  0.00  0.00    -0.222 NA
ATOM      9  C   UNL     1       3.775   1.614   5.983  0.00  0.00    +0.170 A 
ENDROOT
BRANCH   5  10
ATOM     10  S   UNL     1       4.850  -2.306  10.664  0.00  0.00    +0.056 S 
ATOM     11  O   UNL     1       4.194  -3.376   9.998  0.00  0.00    -0.153 OA
ATOM     12  O   UNL     1       6.154  -2.437  11.214  0.00  0.00    -0.153 OA
BRANCH  10  13
ATOM     13  N   UNL     1       3.858  -1.842  11.906  0.00  0.00    -0.204 NA
ATOM     14  H   UNL     1       3.342  -2.507  12.389  0.00  0.00    +0.144 HD
ATOM     15  H   UNL     1       3.792  -0.906  12.150  0.00  0.00    +0.144 HD
ENDBRANCH  10  13
ENDBRANCH   5  10
BRANCH   1  16
ATOM     16  C   UNL     1       5.640   3.257   6.439  0.00  0.00    +0.124 C 
BRANCH  16  18
ATOM     17  C   UNL     1       5.861   5.700   6.912  0.00  0.00    +0.005 C 
ATOM     18  C   UNL     1       5.033   4.444   7.190  0.00  0.00    +0.018 C 
ENDBRANCH  16  18
ENDBRANCH   1  16
BRANCH   9  19
ATOM     19  S   UNL     1       3.114   2.416   4.560  0.00  0.00    -0.078 S 
BRANCH  19  20
ATOM     20  C   UNL     1       1.761   1.283   4.160  0.00  0.00    +0.173 C 
BRANCH  20  21
ATOM     21  C   UNL     1       1.032   1.782   2.939  0.00  0.00    +0.224 C 
ATOM     22  O   UNL     1       1.392   2.804   2.393  0.00  0.00    -0.275 OA
ATOM     23  N   UNL     1      -0.020   1.094   2.454  0.00  0.00    -0.308 N 
ATOM     24  H   UNL     1      -0.308   0.277   2.890  0.00  0.00    +0.149 HD
BRANCH  23  25
ATOM     25  C   UNL     1      -0.729   1.579   1.267  0.00  0.00    +0.100 C 
ATOM     26  C   UNL     1      -0.013   1.086   0.008  0.00  0.00    +0.033 C 
BRANCH  25  27
ATOM     27  C   UNL     1      -2.143   1.058   1.278  0.00  0.00    -0.027 A 
ATOM     28  C   UNL     1      -2.400  -0.241   1.677  0.00  0.00    +0.006 A 
ATOM     29  C   UNL     1      -3.697  -0.710   1.687  0.00  0.00    +0.004 A 
ATOM     30  C   UNL     1      -4.747   0.108   1.288  0.00  0.00    -0.044 A 
ATOM     31  C   UNL     1      -4.490   1.400   0.888  0.00  0.00    -0.044 A 
ATOM     32  C   UNL     1      -3.184   1.872   0.884  0.00  0.00    +0.009 A 
ATOM     33  C   UNL     1      -5.579   2.345   0.452  0.00  0.00    +0.035 C 
ATOM     34  C   UNL     1      -6.851   1.574   0.103  0.00  0.00    +0.005 C 
ATOM     35  C   UNL     1      -7.184   0.637   1.270  0.00  0.00    +0.005 C 
ATOM     36  C   UNL     1      -6.136  -0.474   1.309  0.00  0.00    +0.035 C 
ENDBRANCH  25  27
ENDBRANCH  23  25
ENDBRANCH  20  21
ENDBRANCH  19  20
ENDBRANCH   9  19
TORSDOF 9
