REMARK  Name = ZINC32104838
REMARK  3 active torsions:
REMARK  status: ('A' for Active; 'I' for Inactive)
REMARK    1  A    between atoms: C_1  and  C_2
REMARK    2  A    between atoms: C_2  and  C_3
REMARK    3  A    between atoms: C_2  and  C_4
REMARK                            x       y       z     vdW  Elec       q    Type
REMARK                         _______ _______ _______ _____ _____    ______ ____
ROOT
ATOM      1  C   UNL     1       2.432   3.592  -0.002  0.00  0.00    +0.158 A 
ATOM      2  N   UNL     1       3.195   2.527  -0.015  0.00  0.00    -0.132 NA
ATOM      3  N   UNL     1       2.470   1.463  -0.014  0.00  0.00    -0.128 NA
ATOM      4  C   UNL     1       1.192   1.805   0.000  0.00  0.00    +0.178 A 
ATOM      5  N   UNL     1       1.147   3.178   0.008  0.00  0.00    -0.195 N 
ATOM      6  N   UNL     1      -0.083   3.838   0.023  0.00  0.00    -0.148 NA
ATOM      7  C   UNL     1      -1.204   3.157   0.030  0.00  0.00    +0.143 A 
ATOM      8  C   UNL     1      -1.194   1.748   0.017  0.00  0.00    +0.049 A 
ATOM      9  C   UNL     1      -0.013   1.076   0.008  0.00  0.00    +0.053 A 
ATOM     10  N   UNL     1      -2.419   3.834   0.045  0.00  0.00    -0.309 N 
ATOM     11  C   UNL     1      -2.211   5.291   0.074  0.00  0.00    +0.111 C 
ATOM     12  C   UNL     1      -3.531   5.977  -0.278  0.00  0.00    +0.054 C 
ATOM     13  C   UNL     1      -4.643   5.420   0.574  0.00  0.00    -0.041 A 
ATOM     14  C   UNL     1      -5.827   6.136   0.666  0.00  0.00    +0.004 A 
ATOM     15  C   UNL     1      -6.873   5.657   1.428  0.00  0.00    +0.000 A 
ATOM     16  C   UNL     1      -6.740   4.457   2.103  0.00  0.00    +0.000 A 
ATOM     17  C   UNL     1      -5.561   3.746   2.014  0.00  0.00    +0.005 A 
ATOM     18  C   UNL     1      -4.508   4.226   1.249  0.00  0.00    -0.027 A 
ATOM     19  C   UNL     1      -3.240   3.416   1.186  0.00  0.00    +0.142 C 
ENDROOT
BRANCH   1  21
ATOM     20  C   UNL     1       3.761   5.276   1.243  0.00  0.00    +0.015 C 
ATOM     21  C   UNL     1       2.904   5.024   0.001  0.00  0.00    +0.053 C 
ATOM     22  C   UNL     1       3.737   5.288  -1.255  0.00  0.00    +0.015 C 
ENDBRANCH   1  21
TORSDOF 1
