REMARK  Name = ZINC05086572
REMARK  1 active torsions:
REMARK  status: ('A' for Active; 'I' for Inactive)
REMARK    1  A    between atoms: C_2  and  C_13
REMARK                            x       y       z     vdW  Elec       q    Type
REMARK                         _______ _______ _______ _____ _____    ______ ____
ROOT
ATOM      1  C   UNL     1      -0.850   3.365   1.460  0.00  0.00    +0.136 C 
ATOM      2  C   UNL     1      -0.722   1.881   1.250  0.00  0.00    +0.132 C 
ATOM      3  N   UNL     1      -1.174   1.013   2.065  0.00  0.00    -0.241 NA
ATOM      4  C   UNL     1      -1.856   1.268   3.211  0.00  0.00    +0.135 A 
ATOM      5  C   UNL     1      -1.922   0.299   4.229  0.00  0.00    +0.148 A 
ATOM      6  N   UNL     1      -2.592   0.584   5.341  0.00  0.00    -0.198 NA
ATOM      7  C   UNL     1      -3.191   1.754   5.503  0.00  0.00    +0.215 A 
ATOM      8  N   UNL     1      -3.157   2.695   4.568  0.00  0.00    -0.206 NA
ATOM      9  C   UNL     1      -2.513   2.488   3.427  0.00  0.00    +0.130 A 
ATOM     10  S   UNL     1      -2.481   3.726   2.172  0.00  0.00    -0.097 S 
ATOM     11  N   UNL     1      -3.872   2.003   6.681  0.00  0.00    -0.327 N 
ATOM     12  N   UNL     1      -1.301  -0.928   4.075  0.00  0.00    -0.341 N 
ATOM     13  H   UNL     1      -4.315   2.856   6.814  0.00  0.00    +0.145 HD
ATOM     14  H   UNL     1      -3.905   1.325   7.374  0.00  0.00    +0.145 HD
ATOM     15  H   UNL     1      -0.815  -1.127   3.259  0.00  0.00    +0.144 HD
ATOM     16  H   UNL     1      -1.352  -1.590   4.782  0.00  0.00    +0.144 HD
ENDROOT
BRANCH   2  17
ATOM     17  C   UNL     1      -0.017   1.395   0.010  0.00  0.00    +0.431 C 
ATOM     18  F   UNL     1       0.002  -0.004   0.002  0.00  0.00    -0.165 F 
ATOM     19  F   UNL     1       1.296   1.879  -0.000  0.00  0.00    -0.165 F 
ATOM     20  F   UNL     1      -0.694   1.858  -1.124  0.00  0.00    -0.165 F 
ENDBRANCH   2  17
TORSDOF 1
