REMARK  Name = ZINC31947224
REMARK  7 active torsions:
REMARK  status: ('A' for Active; 'I' for Inactive)
REMARK    1  A    between atoms: C_1  and  N_2
REMARK    2  A    between atoms: N_2  and  C_3
REMARK    3  A    between atoms: N_2  and  C_4
REMARK    4  A    between atoms: C_4  and  C_5
REMARK    5  A    between atoms: C_5  and  C_6
REMARK    6  A    between atoms: C_6  and  N_7
REMARK    7  A    between atoms: C_11  and  N_18
REMARK                            x       y       z     vdW  Elec       q    Type
REMARK                         _______ _______ _______ _____ _____    ______ ____
ROOT
ATOM      1  N   UNL     1      -5.161  -2.078   0.328  0.00  0.00    -0.266 N 
ATOM      2  C   UNL     1      -3.864  -1.543   0.247  0.00  0.00    +0.078 A 
ATOM      3  C   UNL     1      -3.665  -0.173   0.240  0.00  0.00    +0.029 A 
ATOM      4  C   UNL     1      -2.382   0.337   0.159  0.00  0.00    +0.025 A 
ATOM      5  C   UNL     1      -1.294  -0.523   0.084  0.00  0.00    +0.033 A 
ATOM      6  C   UNL     1      -1.491  -1.898   0.085  0.00  0.00    +0.070 A 
ATOM      7  C   UNL     1      -2.774  -2.409   0.172  0.00  0.00    +0.144 A 
ATOM      8  O   UNL     1      -2.985  -3.753   0.181  0.00  0.00    -0.481 OA
ATOM      9  C   UNL     1      -4.097  -4.224   0.946  0.00  0.00    +0.325 C 
ATOM     10  C   UNL     1      -5.312  -3.382   0.647  0.00  0.00    +0.258 C 
ATOM     11  O   UNL     1      -6.420  -3.873   0.693  0.00  0.00    -0.272 OA
ENDROOT
BRANCH   5  12
ATOM     12  N   UNL     1       0.002  -0.004   0.002  0.00  0.00    -0.333 N 
ATOM     13  C   UNL     1      -0.018   1.465   0.010  0.00  0.00    +0.086 C 
ATOM     14  C   UNL     1       1.419   1.992  -0.001  0.00  0.00    -0.063 C 
ATOM     15  N   UNL     1       2.115   1.485  -1.191  0.00  0.00    +0.381 N 
ATOM     16  C   UNL     1       2.135   0.015  -1.199  0.00  0.00    -0.063 C 
ATOM     17  C   UNL     1       0.698  -0.512  -1.188  0.00  0.00    +0.086 C 
ATOM     18  H   UNL     1       1.599   1.837  -2.096  0.00  0.00    -0.086 HD
ATOM     19  H   UNL     1       3.152   1.853  -1.194  0.00  0.00    -0.086 HD
ENDBRANCH   5  12
BRANCH   1  20
ATOM     20  C   UNL     1      -6.330  -1.235   0.069  0.00  0.00    +0.112 C 
BRANCH  20  21
ATOM     21  C   UNL     1      -6.681  -1.291  -1.419  0.00  0.00    +0.001 C 
BRANCH  21  22
ATOM     22  C   UNL     1      -7.903  -0.410  -1.689  0.00  0.00    -0.078 C 
BRANCH  22  24
ATOM     23  C   UNL     1      -8.685  -1.809  -3.504  0.00  0.00    -0.097 C 
ATOM     24  N   UNL     1      -8.239  -0.463  -3.118  0.00  0.00    +0.376 N 
ATOM     25  C   UNL     1      -9.251   0.545  -3.458  0.00  0.00    -0.097 C 
ATOM     26  H   UNL     1      -7.327  -0.233  -3.688  0.00  0.00    -0.083 HD
ENDBRANCH  22  24
ENDBRANCH  21  22
ENDBRANCH  20  21
ENDBRANCH   1  20
TORSDOF 5
