REMARK  Name = ZINC35314497
REMARK  4 active torsions:
REMARK  status: ('A' for Active; 'I' for Inactive)
REMARK    1  A    between atoms: C_3  and  C_6
REMARK    2  A    between atoms: C_9  and  C_27
REMARK    3  A    between atoms: C_15  and  C_17
REMARK    4  A    between atoms: N_19  and  C_20
REMARK                            x       y       z     vdW  Elec       q    Type
REMARK                         _______ _______ _______ _____ _____    ______ ____
ROOT
ATOM      1  C   UNL     1       3.582   0.600  -0.010  0.00  0.00    +0.149 C 
ATOM      2  C   UNL     1       4.103   0.346   1.405  0.00  0.00    +0.065 C 
ATOM      3  C   UNL     1       5.638   0.272   1.387  0.00  0.00    +0.202 C 
ATOM      4  N   UNL     1       6.012  -0.710   0.363  0.00  0.00    -0.226 N 
ATOM      5  C   UNL     1       5.188  -1.026  -0.710  0.00  0.00    +0.114 C 
ATOM      6  N   UNL     1       4.035  -0.458  -0.922  0.00  0.00    -0.362 N 
ATOM      7  C   UNL     1       5.879  -2.061  -1.477  0.00  0.00    +0.072 C 
ATOM      8  C   UNL     1       7.063  -2.296  -0.859  0.00  0.00    +0.110 C 
ATOM      9  N   UNL     1       7.167  -1.476   0.253  0.00  0.00    -0.258 N 
ATOM     10  H   UNL     1       7.925  -1.443   0.858  0.00  0.00    +0.170 HD
ATOM     11  H   UNL     1       3.484  -0.729  -1.673  0.00  0.00    +0.162 HD
ENDROOT
BRANCH   1  14
ATOM     12  C   UNL     1      -0.037   1.294   0.045  0.00  0.00    +0.041 A 
ATOM     13  C   UNL     1       1.308   1.730   0.029  0.00  0.00    +0.047 A 
ATOM     14  C   UNL     1       2.076   0.626   0.012  0.00  0.00    +0.127 A 
ATOM     15  O   UNL     1       1.272  -0.450   0.018  0.00  0.00    -0.466 OA
ATOM     16  C   UNL     1      -0.011  -0.051   0.038  0.00  0.00    +0.195 A 
ENDBRANCH   1  14
BRANCH   8  17
ATOM     17  C   UNL     1       8.081  -3.273  -1.302  0.00  0.00    +0.264 C 
ATOM     18  O   UNL     1       9.112  -3.405  -0.671  0.00  0.00    -0.268 OA
ATOM     19  N   UNL     1       7.866  -4.017  -2.405  0.00  0.00    -0.280 N 
ATOM     20  H   UNL     1       7.016  -3.961  -2.870  0.00  0.00    +0.155 HD
BRANCH  19  21
ATOM     21  C   UNL     1       8.868  -4.871  -2.879  0.00  0.00    +0.034 A 
ATOM     22  C   UNL     1       9.030  -5.061  -4.245  0.00  0.00    +0.026 A 
ATOM     23  C   UNL     1      10.020  -5.904  -4.711  0.00  0.00    +0.040 A 
ATOM     24  C   UNL     1      10.850  -6.559  -3.817  0.00  0.00    +0.124 A 
ATOM     25  C   UNL     1      10.689  -6.372  -2.454  0.00  0.00    +0.040 A 
ATOM     26  C   UNL     1       9.705  -5.525  -1.984  0.00  0.00    +0.026 A 
ATOM     27  F   UNL     1      11.818  -7.384  -4.274  0.00  0.00    -0.205 F 
ENDBRANCH  19  21
ENDBRANCH   8  17
BRANCH   3  28
ATOM     28  C   UNL     1       6.154  -0.178   2.755  0.00  0.00    +0.410 C 
ATOM     29  F   UNL     1       5.635  -1.441   3.058  0.00  0.00    -0.169 F 
ATOM     30  F   UNL     1       7.552  -0.243   2.728  0.00  0.00    -0.169 F 
ATOM     31  F   UNL     1       5.749   0.739   3.731  0.00  0.00    -0.169 F 
ENDBRANCH   3  28
TORSDOF 4
