REMARK  Name = ZINC32932356
REMARK  5 active torsions:
REMARK  status: ('A' for Active; 'I' for Inactive)
REMARK    1  A    between atoms: C_1  and  N_2
REMARK    2  A    between atoms: C_5  and  S_8
REMARK    3  A    between atoms: S_8  and  N_11
REMARK    4  A    between atoms: N_11  and  C_12
REMARK    5  A    between atoms: C_19  and  C_21
REMARK                            x       y       z     vdW  Elec       q    Type
REMARK                         _______ _______ _______ _____ _____    ______ ____
ROOT
ATOM      1  C   UNL     1       1.794  -4.611   3.322  0.00  0.00    +0.076 A 
ATOM      2  C   UNL     1       0.882  -5.652   3.492  0.00  0.00    +0.029 A 
ATOM      3  C   UNL     1       1.158  -6.686   4.338  0.00  0.00    +0.032 A 
ATOM      4  C   UNL     1       2.365  -6.708   5.045  0.00  0.00    +0.090 A 
ATOM      5  C   UNL     1       3.287  -5.660   4.876  0.00  0.00    +0.068 A 
ATOM      6  C   UNL     1       2.997  -4.617   4.008  0.00  0.00    +0.054 A 
ATOM      7  N   UNL     1       4.363  -5.957   5.690  0.00  0.00    -0.338 N 
ATOM      8  C   UNL     1       4.081  -7.142   6.317  0.00  0.00    +0.139 A 
ATOM      9  N   UNL     1       2.906  -7.578   5.934  0.00  0.00    -0.228 NA
ATOM     10  H   UNL     1       5.167  -5.426   5.797  0.00  0.00    +0.167 HD
ENDROOT
BRANCH   8  11
ATOM     11  C   UNL     1       4.969  -7.827   7.281  0.00  0.00    +0.017 A 
ATOM     12  C   UNL     1       6.200  -7.264   7.620  0.00  0.00    +0.014 A 
ATOM     13  C   UNL     1       7.024  -7.906   8.520  0.00  0.00    +0.039 A 
ATOM     14  C   UNL     1       6.632  -9.109   9.087  0.00  0.00    +0.123 A 
ATOM     15  C   UNL     1       5.410  -9.672   8.753  0.00  0.00    +0.039 A 
ATOM     16  C   UNL     1       4.576  -9.034   7.860  0.00  0.00    +0.014 A 
ATOM     17  F   UNL     1       7.444  -9.734   9.968  0.00  0.00    -0.205 F 
ENDBRANCH   8  11
BRANCH   1  18
ATOM     18  N   UNL     1       1.495  -3.559   2.450  0.00  0.00    -0.096 NA
BRANCH  18  19
ATOM     19  S   UNL     1       0.058  -3.549   1.628  0.00  0.00    +0.110 S 
ATOM     20  O   UNL     1      -0.966  -3.397   2.601  0.00  0.00    -0.147 OA
ATOM     21  O   UNL     1       0.096  -4.647   0.728  0.00  0.00    -0.147 OA
BRANCH  19  26
ATOM     22  C   UNL     1      -0.018   1.461   0.010  0.00  0.00    +0.151 C 
ATOM     23  N   UNL     1       0.002  -0.004   0.002  0.00  0.00    -0.324 N 
ATOM     24  C   UNL     1       0.009  -0.800  -1.090  0.00  0.00    +0.176 A 
ATOM     25  N   UNL     1       0.027  -2.045  -0.701  0.00  0.00    -0.329 N 
ATOM     26  C   UNL     1       0.034  -2.090   0.640  0.00  0.00    +0.214 A 
ATOM     27  C   UNL     1       0.024  -0.822   1.099  0.00  0.00    +0.154 A 
ATOM     28 CL   UNL     1       0.032  -0.324   2.762  0.00  0.00    -0.060 Cl
ATOM     29  H   UNL     1       0.036  -2.817  -1.288  0.00  0.00    +0.168 HD
ENDBRANCH  19  26
ENDBRANCH  18  19
ENDBRANCH   1  18
TORSDOF 4
