REMARK  Name = ZINC64998250
REMARK  8 active torsions:
REMARK  status: ('A' for Active; 'I' for Inactive)
REMARK    1  A    between atoms: C_1  and  C_2
REMARK    2  A    between atoms: C_7  and  C_8
REMARK    3  A    between atoms: C_8  and  N_9
REMARK    4  A    between atoms: C_12  and  C_15
REMARK    5  A    between atoms: C_15  and  N_16
REMARK    6  A    between atoms: C_17  and  C_19
REMARK    7  A    between atoms: N_24  and  C_27
REMARK    8  A    between atoms: N_28  and  C_30
REMARK                            x       y       z     vdW  Elec       q    Type
REMARK                         _______ _______ _______ _____ _____    ______ ____
ROOT
ATOM      1  N   UNL     1      -5.538   3.003   4.806  0.00  0.00    -0.310 N 
ATOM      2  C   UNL     1      -6.774   3.246   5.288  0.00  0.00    +0.266 C 
ATOM      3  O   UNL     1      -7.747   2.772   4.733  0.00  0.00    -0.268 OA
ATOM      4  H   UNL     1      -4.762   3.382   5.248  0.00  0.00    +0.149 HD
ENDROOT
BRANCH   2   5
ATOM      5  C   UNL     1      -6.945   4.085   6.487  0.00  0.00    +0.173 A 
ATOM      6  C   UNL     1      -8.207   4.436   7.137  0.00  0.00    +0.128 A 
ATOM      7  C   UNL     1      -7.829   5.241   8.220  0.00  0.00    +0.158 A 
ATOM      8  C   UNL     1      -8.845   5.751   9.061  0.00  0.00    +0.280 A 
ATOM      9  O   UNL     1      -8.571   6.455  10.017  0.00  0.00    -0.265 OA
ATOM     10  N   UNL     1     -10.128   5.436   8.775  0.00  0.00    -0.301 N 
ATOM     11  C   UNL     1     -10.427   4.650   7.709  0.00  0.00    +0.202 A 
ATOM     12  N   UNL     1      -9.505   4.170   6.923  0.00  0.00    -0.233 NA
ATOM     13  C   UNL     1     -11.207   5.946   9.625  0.00  0.00    +0.153 C 
ATOM     14  N   UNL     1      -6.466   5.331   8.179  0.00  0.00    -0.225 N 
ATOM     15  N   UNL     1      -5.988   4.663   7.191  0.00  0.00    -0.159 NA
BRANCH  14  16
ATOM     16  C   UNL     1      -5.692   6.052   9.096  0.00  0.00    +0.066 A 
ATOM     17  C   UNL     1      -6.176   7.237   9.635  0.00  0.00    +0.028 A 
ATOM     18  C   UNL     1      -5.410   7.946  10.539  0.00  0.00    +0.002 A 
ATOM     19  C   UNL     1      -4.162   7.478  10.907  0.00  0.00    +0.000 A 
ATOM     20  C   UNL     1      -3.677   6.299  10.372  0.00  0.00    +0.002 A 
ATOM     21  C   UNL     1      -4.441   5.582   9.472  0.00  0.00    +0.028 A 
ENDBRANCH  14  16
ENDBRANCH   2   5
BRANCH   1  22
ATOM     22  C   UNL     1      -5.368   2.169   3.613  0.00  0.00    +0.108 C 
BRANCH  22  26
ATOM     23  N   UNL     1      -1.591   0.352   2.772  0.00  0.00    +0.382 N 
ATOM     24  C   UNL     1      -2.215   1.107   1.679  0.00  0.00    -0.078 C 
ATOM     25  C   UNL     1      -3.707   1.288   1.965  0.00  0.00    -0.014 C 
ATOM     26  C   UNL     1      -3.879   2.054   3.280  0.00  0.00    +0.003 C 
ATOM     27  C   UNL     1      -3.161   1.295   4.400  0.00  0.00    -0.014 C 
ATOM     28  C   UNL     1      -1.689   1.114   4.023  0.00  0.00    -0.078 C 
ATOM     29  H   UNL     1      -2.064  -0.532   2.881  0.00  0.00    -0.081 HD
BRANCH  23  30
ATOM     30  C   UNL     1      -0.176   0.114   2.456  0.00  0.00    -0.043 C 
BRANCH  30  37
ATOM     31  C   UNL     1      -0.727  -2.711   2.711  0.00  0.00    +0.044 C 
ATOM     32  C   UNL     1      -0.339  -2.137   1.373  0.00  0.00    -0.049 A 
ATOM     33  C   UNL     1      -0.252  -2.961   0.266  0.00  0.00    +0.003 A 
ATOM     34  C   UNL     1       0.103  -2.434  -0.962  0.00  0.00    +0.000 A 
ATOM     35  C   UNL     1       0.372  -1.083  -1.083  0.00  0.00    +0.000 A 
ATOM     36  C   UNL     1       0.284  -0.259   0.024  0.00  0.00    +0.002 A 
ATOM     37  C   UNL     1      -0.075  -0.785   1.251  0.00  0.00    -0.061 A 
ENDBRANCH  30  37
ENDBRANCH  23  30
ENDBRANCH  22  26
ENDBRANCH   1  22
TORSDOF 6
