REMARK  Name = ZINC54403065
REMARK  10 active torsions:
REMARK  status: ('A' for Active; 'I' for Inactive)
REMARK    1  A    between atoms: C_1  and  C_2
REMARK    2  A    between atoms: C_2  and  C_3
REMARK    3  A    between atoms: C_3  and  N_4
REMARK    4  A    between atoms: N_4  and  C_5
REMARK    5  A    between atoms: C_5  and  C_7
REMARK    6  A    between atoms: C_5  and  C_20
REMARK    7  A    between atoms: C_20  and  C_21
REMARK    8  A    between atoms: C_20  and  C_22
REMARK    9  A    between atoms: C_20  and  C_23
REMARK   10  A    between atoms: C_23  and  C_24
REMARK                            x       y       z     vdW  Elec       q    Type
REMARK                         _______ _______ _______ _____ _____    ______ ____
ROOT
ATOM      1  C   UNL     1       0.548  -4.348  -3.155  0.00  0.00    -0.045 A 
ATOM      2  C   UNL     1      -0.536  -4.653  -2.355  0.00  0.00    +0.031 A 
ATOM      3  C   UNL     1      -1.223  -5.841  -2.547  0.00  0.00    +0.067 A 
ATOM      4  C   UNL     1      -0.817  -6.726  -3.549  0.00  0.00    +0.068 A 
ATOM      5  C   UNL     1       0.272  -6.412  -4.347  0.00  0.00    +0.043 A 
ATOM      6  C   UNL     1       0.948  -5.222  -4.152  0.00  0.00    +0.022 A 
ATOM      7 BR   UNL     1       2.428  -4.789  -5.245  0.00  0.00    -0.050 Br
ATOM      8  N   UNL     1      -1.685  -7.814  -3.501  0.00  0.00    -0.306 N 
ATOM      9  H   UNL     1      -1.652  -8.592  -4.079  0.00  0.00    +0.170 HD
ATOM     10  C   UNL     1      -2.578  -7.602  -2.517  0.00  0.00    +0.325 A 
ATOM     11  O   UNL     1      -3.477  -8.363  -2.210  0.00  0.00    -0.247 OA
ATOM     12  N   UNL     1      -2.326  -6.420  -1.922  0.00  0.00    -0.306 N 
ATOM     13  H   UNL     1      -2.826  -6.038  -1.185  0.00  0.00    +0.170 HD
ENDROOT
BRANCH   1  14
ATOM     14  C   UNL     1       1.295  -3.056  -2.945  0.00  0.00    -0.034 C 
BRANCH  14  15
ATOM     15  N   UNL     1       1.459  -2.813  -1.506  0.00  0.00    +0.384 N 
ATOM     16  H   UNL     1       1.585  -3.692  -1.028  0.00  0.00    -0.085 HD
ATOM     17  H   UNL     1       0.637  -2.350  -1.147  0.00  0.00    -0.085 HD
BRANCH  15  18
ATOM     18  C   UNL     1       2.635  -1.961  -1.284  0.00  0.00    -0.082 C 
BRANCH  18  20
ATOM     19  C   UNL     1       3.987  -0.759   0.439  0.00  0.00    +0.002 C 
ATOM     20  C   UNL     1       2.762  -1.646   0.208  0.00  0.00    -0.022 C 
ENDBRANCH  18  20
ENDBRANCH  15  18
ENDBRANCH  14  15
BRANCH  14  21
ATOM     21  C   UNL     1       0.507  -1.904  -3.571  0.00  0.00    -0.044 C 
ATOM     22  C   UNL     1      -0.925  -1.914  -3.032  0.00  0.00    +0.009 C 
ATOM     23  C   UNL     1       1.176  -0.575  -3.215  0.00  0.00    +0.009 C 
BRANCH  21  24
ATOM     24  C   UNL     1       0.480  -2.071  -5.092  0.00  0.00    +0.002 C 
ATOM     25  C   UNL     1       1.894  -1.893  -5.649  0.00  0.00    +0.004 C 
ENDBRANCH  21  24
ENDBRANCH  14  21
ENDBRANCH   1  14
TORSDOF 6
