REMARK  Name = ZINC39838876
REMARK  10 active torsions:
REMARK  status: ('A' for Active; 'I' for Inactive)
REMARK    1  A    between atoms: C_1  and  C_2
REMARK    2  A    between atoms: C_2  and  C_3
REMARK    3  A    between atoms: C_3  and  O_4
REMARK    4  A    between atoms: O_4  and  C_5
REMARK    5  A    between atoms: C_8  and  C_14
REMARK    6  A    between atoms: C_10  and  O_11
REMARK    7  A    between atoms: O_11  and  C_12
REMARK    8  A    between atoms: C_12  and  C_13
REMARK    9  A    between atoms: C_21  and  C_38
REMARK   10  A    between atoms: C_22  and  C_37
REMARK                            x       y       z     vdW  Elec       q    Type
REMARK                         _______ _______ _______ _____ _____    ______ ____
ROOT
ATOM      1  C   UNL     1       3.243  -4.423  -5.653  0.00  0.00    +0.151 C 
ATOM      2  C   UNL     1       2.333  -4.416  -6.838  0.00  0.00    +0.072 A 
ATOM      3  C   UNL     1       1.011  -5.015  -7.044  0.00  0.00    +0.199 A 
ATOM      4  O   UNL     1       0.353  -5.507  -6.144  0.00  0.00    -0.287 OA
ATOM      5  C   UNL     1       0.550  -4.966  -8.455  0.00  0.00    +0.065 A 
ATOM      6  C   UNL     1      -0.589  -5.666  -8.851  0.00  0.00    +0.019 A 
ATOM      7  C   UNL     1      -0.998  -5.615 -10.154  0.00  0.00    -0.047 A 
ATOM      8  C   UNL     1      -0.283  -4.871 -11.082  0.00  0.00    -0.044 A 
ATOM      9  C   UNL     1       0.844  -4.173 -10.709  0.00  0.00    +0.050 A 
ATOM     10  C   UNL     1       1.280  -4.206  -9.384  0.00  0.00    +0.140 A 
ATOM     11  O   UNL     1       2.383  -3.505  -9.037  0.00  0.00    -0.450 OA
ATOM     12  C   UNL     1       2.948  -3.706  -7.830  0.00  0.00    +0.199 A 
ATOM     13  C   UNL     1       4.254  -3.245  -7.329  0.00  0.00    +0.288 C 
ATOM     14  O   UNL     1       5.052  -2.588  -7.967  0.00  0.00    -0.266 OA
ATOM     15  N   UNL     1       4.436  -3.660  -6.056  0.00  0.00    -0.238 N 
ATOM     16  C   UNL     1       5.554  -3.410  -5.264  0.00  0.00    +0.129 A 
ATOM     17  C   UNL     1       5.650  -3.993  -4.005  0.00  0.00    +0.045 A 
ATOM     18  C   UNL     1       6.766  -3.737  -3.229  0.00  0.00    +0.025 A 
ATOM     19  C   UNL     1       7.752  -2.902  -3.740  0.00  0.00    +0.059 A 
ATOM     20  C   UNL     1       7.590  -2.357  -4.999  0.00  0.00    +0.132 A 
ATOM     21  N   UNL     1       6.517  -2.623  -5.718  0.00  0.00    -0.238 NA
ATOM     22 CL   UNL     1       9.172  -2.547  -2.806  0.00  0.00    -0.082 Cl
ATOM     23  C   UNL     1      -0.745  -4.826 -12.516  0.00  0.00    +0.044 C 
ATOM     24  C   UNL     1      -2.229  -6.370 -10.585  0.00  0.00    +0.044 C 
ENDROOT
BRANCH   1  28
ATOM     25  C   UNL     1       1.342  -2.530  -2.323  0.00  0.00    +0.162 A 
ATOM     26  C   UNL     1       1.908  -1.763  -3.329  0.00  0.00    +0.050 A 
ATOM     27  C   UNL     1       2.522  -2.378  -4.404  0.00  0.00    +0.009 A 
ATOM     28  C   UNL     1       2.573  -3.758  -4.479  0.00  0.00    -0.018 A 
ATOM     29  C   UNL     1       2.009  -4.529  -3.479  0.00  0.00    +0.055 A 
ATOM     30  C   UNL     1       1.397  -3.918  -2.396  0.00  0.00    +0.162 A 
BRANCH  25  31
ATOM     31  O   UNL     1       0.738  -1.926  -1.265  0.00  0.00    -0.488 OA
BRANCH  31  32
ATOM     32  C   UNL     1       0.718  -0.497  -1.257  0.00  0.00    +0.229 C 
BRANCH  32  34
ATOM     33  C   UNL     1      -0.019   1.526   0.010  0.00  0.00    +0.007 C 
ATOM     34  C   UNL     1       0.002  -0.004   0.002  0.00  0.00    +0.038 C 
ENDBRANCH  32  34
ENDBRANCH  31  32
ENDBRANCH  25  31
BRANCH  30  35
ATOM     35  O   UNL     1       0.847  -4.675  -1.408  0.00  0.00    -0.489 OA
BRANCH  35  36
ATOM     36  C   UNL     1       0.942  -6.094  -1.549  0.00  0.00    +0.226 C 
ATOM     37  C   UNL     1       0.273  -6.771  -0.352  0.00  0.00    +0.048 C 
ENDBRANCH  35  36
ENDBRANCH  30  35
ENDBRANCH   1  28
TORSDOF 6
