REMARK  Name = ZINC00901782
REMARK  10 active torsions:
REMARK  status: ('A' for Active; 'I' for Inactive)
REMARK    1  A    between atoms: N_9  and  C_10
REMARK    2  A    between atoms: C_10  and  C_11
REMARK    3  A    between atoms: N_13  and  C_14
REMARK    4  A    between atoms: N_13  and  C_29
REMARK    5  A    between atoms: C_17  and  S_20
REMARK    6  A    between atoms: S_20  and  N_23
REMARK    7  A    between atoms: N_23  and  C_24
REMARK    8  A    between atoms: C_29  and  C_31
REMARK    9  A    between atoms: C_29  and  C_36
REMARK   10  A    between atoms: N_38  and  C_39
REMARK                            x       y       z     vdW  Elec       q    Type
REMARK                         _______ _______ _______ _____ _____    ______ ____
ROOT
ATOM      1  C   UNL     1      -4.620   3.008  -2.171  0.00  0.00    +0.242 C 
ATOM      2  O   UNL     1      -4.272   2.774  -3.309  0.00  0.00    -0.273 OA
ATOM      3  N   UNL     1      -5.885   2.749  -1.786  0.00  0.00    -0.251 N 
ENDROOT
BRANCH   3   4
ATOM      4  C   UNL     1      -6.762   2.095  -2.659  0.00  0.00    +0.038 A 
ATOM      5  C   UNL     1      -8.107   1.975  -2.334  0.00  0.00    +0.025 A 
ATOM      6  C   UNL     1      -8.970   1.333  -3.200  0.00  0.00    +0.030 A 
ATOM      7  C   UNL     1      -8.495   0.801  -4.385  0.00  0.00    +0.105 A 
ATOM      8  C   UNL     1      -7.156   0.914  -4.708  0.00  0.00    +0.030 A 
ATOM      9  C   UNL     1      -6.288   1.559  -3.849  0.00  0.00    +0.025 A 
BRANCH   7  10
ATOM     10  S   UNL     1      -9.599  -0.022  -5.484  0.00  0.00    +0.059 S 
ATOM     11  O   UNL     1     -10.898   0.484  -5.209  0.00  0.00    -0.153 OA
ATOM     12  O   UNL     1      -9.012   0.048  -6.776  0.00  0.00    -0.153 OA
BRANCH  10  13
ATOM     13  N   UNL     1      -9.614  -1.621  -5.056  0.00  0.00    -0.187 NA
ATOM     14  H   UNL     1      -9.274  -2.291  -5.670  0.00  0.00    +0.148 HD
BRANCH  13  15
ATOM     15  C   UNL     1     -10.141  -2.026  -3.750  0.00  0.00    +0.077 C 
ATOM     16  C   UNL     1      -8.983  -2.219  -2.749  0.00  0.00    +0.020 C 
ATOM     17  C   UNL     1      -9.419  -3.434  -1.893  0.00  0.00    +0.002 C 
ATOM     18  C   UNL     1     -10.102  -4.357  -2.933  0.00  0.00    +0.002 C 
ATOM     19  C   UNL     1     -10.853  -3.385  -3.866  0.00  0.00    +0.020 C 
ENDBRANCH  13  15
ENDBRANCH  10  13
ENDBRANCH   7  10
ENDBRANCH   3   4
BRANCH   1  20
ATOM     20  C   UNL     1      -3.637   3.590  -1.188  0.00  0.00    +0.242 C 
BRANCH  20  29
ATOM     21  C   UNL     1       0.957   1.180  -2.094  0.00  0.00    +0.002 A 
ATOM     22  C   UNL     1      -0.122   0.674  -1.381  0.00  0.00    +0.002 A 
ATOM     23  C   UNL     1      -1.262   1.412  -1.228  0.00  0.00    +0.029 A 
ATOM     24  C   UNL     1      -1.340   2.686  -1.781  0.00  0.00    +0.090 A 
ATOM     25  C   UNL     1      -0.251   3.204  -2.503  0.00  0.00    +0.113 A 
ATOM     26  C   UNL     1       0.904   2.424  -2.650  0.00  0.00    +0.032 A 
ATOM     27  N   UNL     1      -0.591   4.437  -2.928  0.00  0.00    -0.129 NA
ATOM     28  N   UNL     1      -1.781   4.731  -2.539  0.00  0.00    -0.064 NA
ATOM     29  N   UNL     1      -2.311   3.659  -1.806  0.00  0.00    -0.235 N 
ENDBRANCH  20  29
ENDBRANCH   1  20
BRANCH   3  30
ATOM     30  C   UNL     1      -6.343   3.152  -0.454  0.00  0.00    +0.233 C 
BRANCH  30  31
ATOM     31  C   UNL     1      -6.824   1.939   0.300  0.00  0.00    +0.135 A 
ATOM     32  C   UNL     1      -6.752   1.760   1.631  0.00  0.00    +0.047 A 
ATOM     33  C   UNL     1      -7.318   0.494   1.906  0.00  0.00    +0.041 A 
ATOM     34  C   UNL     1      -7.694  -0.029   0.725  0.00  0.00    +0.195 A 
ATOM     35  O   UNL     1      -7.393   0.851  -0.244  0.00  0.00    -0.465 OA
ENDBRANCH  30  31
BRANCH  30  36
ATOM     36  C   UNL     1      -7.472   4.141  -0.589  0.00  0.00    +0.242 C 
ATOM     37  O   UNL     1      -7.842   4.492  -1.689  0.00  0.00    -0.273 OA
ATOM     38  N   UNL     1      -8.070   4.634   0.513  0.00  0.00    -0.311 N 
ATOM     39  H   UNL     1      -7.774   4.353   1.393  0.00  0.00    +0.149 HD
BRANCH  38  40
ATOM     40  C   UNL     1      -9.168   5.596   0.383  0.00  0.00    +0.073 C 
ATOM     41  C   UNL     1      -8.607   7.031   0.309  0.00  0.00    +0.022 C 
ATOM     42  C   UNL     1      -9.633   7.880   1.100  0.00  0.00    +0.002 C 
ATOM     43  C   UNL     1     -10.025   6.942   2.268  0.00  0.00    +0.002 C 
ATOM     44  C   UNL     1     -10.069   5.539   1.628  0.00  0.00    +0.022 C 
ENDBRANCH  38  40
ENDBRANCH  30  36
ENDBRANCH   3  30
TORSDOF 10
