REMARK  Name = ZINC39940579
REMARK  8 active torsions:
REMARK  status: ('A' for Active; 'I' for Inactive)
REMARK    1  A    between atoms: C_1  and  C_2
REMARK    2  A    between atoms: N_17  and  C_20
REMARK    3  A    between atoms: C_20  and  C_21
REMARK    4  A    between atoms: C_21  and  C_22
REMARK    5  A    between atoms: C_28  and  C_36
REMARK    6  A    between atoms: C_29  and  N_35
REMARK    7  A    between atoms: C_30  and  C_31
REMARK    8  A    between atoms: C_30  and  C_33
REMARK                            x       y       z     vdW  Elec       q    Type
REMARK                         _______ _______ _______ _____ _____    ______ ____
ROOT
ATOM      1  C   UNL     1      -0.019   1.526   0.010  0.00  0.00    +0.008 C 
ATOM      2  C   UNL     1       0.002  -0.004   0.002  0.00  0.00    -0.010 C 
ATOM      3  C   UNL     1       0.732  -0.505  -1.251  0.00  0.00    +0.030 C 
ATOM      4  C   UNL     1       2.143   0.015  -1.207  0.00  0.00    -0.024 C 
ATOM      5  C   UNL     1       2.764   0.252  -0.091  0.00  0.00    -0.030 C 
ATOM      6  C   UNL     1       2.176   0.018   1.274  0.00  0.00    +0.042 C 
ATOM      7  C   UNL     1       0.752  -0.515   1.229  0.00  0.00    +0.013 C 
ATOM      8  C   UNL     1       3.064  -0.987   2.014  0.00  0.00    +0.116 C 
ATOM      9  C   UNL     1       2.770  -2.379   1.546  0.00  0.00    -0.005 A 
ATOM     10  C   UNL     1       2.909  -2.973   0.310  0.00  0.00    +0.007 A 
ATOM     11  C   UNL     1       2.535  -4.309   0.207  0.00  0.00    +0.000 A 
ATOM     12  C   UNL     1       2.049  -5.005   1.296  0.00  0.00    +0.002 A 
ATOM     13  C   UNL     1       1.909  -4.414   2.542  0.00  0.00    +0.024 A 
ATOM     14  C   UNL     1       2.281  -3.074   2.658  0.00  0.00    +0.041 A 
ATOM     15  N   UNL     1       2.248  -2.246   3.766  0.00  0.00    -0.270 N 
ATOM     16  C   UNL     1       2.691  -1.004   3.483  0.00  0.00    +0.236 C 
ATOM     17  O   UNL     1       2.775  -0.075   4.258  0.00  0.00    -0.274 OA
ATOM     18  C   UNL     1       4.514  -0.657   1.853  0.00  0.00    +0.069 C 
ATOM     19  C   UNL     1       5.016   0.116   0.892  0.00  0.00    +0.055 C 
ATOM     20  C   UNL     1       4.178   0.802  -0.148  0.00  0.00    +0.202 C 
ENDROOT
BRANCH  19  21
ATOM     21  N   UNL     1       6.374   0.297   0.851  0.00  0.00    -0.358 N 
ATOM     22  H   UNL     1       6.941  -0.134   1.510  0.00  0.00    +0.142 HD
ATOM     23  H   UNL     1       6.769   0.855   0.163  0.00  0.00    +0.142 HD
ENDBRANCH  19  21
BRANCH  20  24
ATOM     24  C   UNL     1       4.748   0.554  -1.482  0.00  0.00    +0.095 C 
ATOM     25  N   UNL     1       5.189   0.363  -2.511  0.00  0.00    -0.194 NA
ENDBRANCH  20  24
BRANCH  20  26
ATOM     26  C   UNL     1       4.153   2.250   0.117  0.00  0.00    +0.095 C 
ATOM     27  N   UNL     1       4.134   3.368   0.321  0.00  0.00    -0.194 NA
ENDBRANCH  20  26
BRANCH  18  28
ATOM     28  C   UNL     1       5.430  -1.215   2.802  0.00  0.00    +0.098 C 
ATOM     29  N   UNL     1       6.157  -1.657   3.555  0.00  0.00    -0.191 NA
ENDBRANCH  18  28
BRANCH  15  30
ATOM     30  C   UNL     1       1.787  -2.668   5.091  0.00  0.00    +0.118 C 
BRANCH  30  31
ATOM     31  C   UNL     1       2.969  -3.217   5.892  0.00  0.00    +0.054 C 
BRANCH  31  32
ATOM     32  C   UNL     1       2.494  -3.652   7.254  0.00  0.00    -0.046 A 
ATOM     33  C   UNL     1       2.491  -2.753   8.305  0.00  0.00    +0.004 A 
ATOM     34  C   UNL     1       2.055  -3.152   9.554  0.00  0.00    +0.000 A 
ATOM     35  C   UNL     1       1.622  -4.449   9.754  0.00  0.00    +0.000 A 
ATOM     36  C   UNL     1       1.625  -5.348   8.704  0.00  0.00    +0.000 A 
ATOM     37  C   UNL     1       2.056  -4.948   7.453  0.00  0.00    +0.004 A 
ENDBRANCH  31  32
ENDBRANCH  30  31
ENDBRANCH  15  30
TORSDOF 7
