REMARK  Name = ZINC36304714
REMARK  15 active torsions:
REMARK  status: ('A' for Active; 'I' for Inactive)
REMARK    1  A    between atoms: C_1  and  C_2
REMARK    2  A    between atoms: C_6  and  O_8
REMARK    3  A    between atoms: O_8  and  C_9
REMARK    4  A    between atoms: C_10  and  C_21
REMARK    5  A    between atoms: C_11  and  C_20
REMARK    6  A    between atoms: N_13  and  C_14
REMARK    7  A    between atoms: C_21  and  N_22
REMARK    8  A    between atoms: N_22  and  C_23
REMARK    9  A    between atoms: N_22  and  C_29
REMARK   10  A    between atoms: C_23  and  C_24
REMARK   11  A    between atoms: C_29  and  C_30
REMARK   12  A    between atoms: C_30  and  C_32
REMARK   13  A    between atoms: C_30  and  O_36
REMARK   14  A    between atoms: C_32  and  C_33
REMARK   15  A    between atoms: C_33  and  C_34
REMARK                            x       y       z     vdW  Elec       q    Type
REMARK                         _______ _______ _______ _____ _____    ______ ____
ROOT
ATOM      1  C   UNL     1       0.032  -3.598   2.265  0.00  0.00    +0.225 A 
ATOM      2  C   UNL     1      -0.029  -4.692   3.069  0.00  0.00    +0.021 A 
ATOM      3  C   UNL     1      -0.305  -5.802   2.264  0.00  0.00    +0.065 A 
ATOM      4  N   UNL     1      -0.407  -5.399   1.024  0.00  0.00    -0.168 NA
ATOM      5  N   UNL     1      -0.205  -4.013   0.991  0.00  0.00    -0.200 N 
ATOM      6  C   UNL     1      -0.458  -7.222   2.744  0.00  0.00    +0.068 C 
ENDROOT
BRANCH   5   7
ATOM      7  C   UNL     1      -0.240  -3.200  -0.150  0.00  0.00    +0.069 A 
ATOM      8  C   UNL     1      -0.877  -1.967  -0.106  0.00  0.00    +0.028 A 
ATOM      9  C   UNL     1      -0.909  -1.168  -1.232  0.00  0.00    +0.002 A 
ATOM     10  C   UNL     1      -0.307  -1.594  -2.402  0.00  0.00    +0.000 A 
ATOM     11  C   UNL     1       0.328  -2.822  -2.449  0.00  0.00    +0.002 A 
ATOM     12  C   UNL     1       0.368  -3.623  -1.324  0.00  0.00    +0.028 A 
ENDBRANCH   5   7
BRANCH   1  13
ATOM     13  O   UNL     1       0.279  -2.323   2.660  0.00  0.00    -0.438 OA
BRANCH  13  19
ATOM     14  C   UNL     1       3.445   1.366   3.095  0.00  0.00    +0.044 C 
ATOM     15  C   UNL     1       3.137  -0.075   2.781  0.00  0.00    -0.047 A 
ATOM     16  C   UNL     1       4.155  -0.934   2.408  0.00  0.00    +0.003 A 
ATOM     17  C   UNL     1       3.877  -2.257   2.120  0.00  0.00    +0.004 A 
ATOM     18  C   UNL     1       2.579  -2.725   2.204  0.00  0.00    +0.046 A 
ATOM     19  C   UNL     1       1.556  -1.866   2.578  0.00  0.00    +0.131 A 
ATOM     20  C   UNL     1       1.839  -0.539   2.871  0.00  0.00    +0.049 A 
ENDBRANCH  13  19
ENDBRANCH   1  13
BRANCH   2  21
ATOM     21  C   UNL     1       0.166  -4.707   4.563  0.00  0.00    -0.035 C 
BRANCH  21  22
ATOM     22  N   UNL     1      -1.128  -4.504   5.228  0.00  0.00    +0.389 N 
ATOM     23  H   UNL     1      -1.536  -3.637   4.913  0.00  0.00    -0.081 HD
BRANCH  22  24
ATOM     24  C   UNL     1      -2.028  -5.617   4.897  0.00  0.00    -0.003 C 
BRANCH  24  25
ATOM     25  C   UNL     1      -3.379  -5.372   5.518  0.00  0.00    +0.089 A 
ATOM     26  C   UNL     1      -4.429  -4.789   4.912  0.00  0.00    +0.042 A 
ATOM     27  C   UNL     1      -5.483  -4.763   5.854  0.00  0.00    +0.041 A 
ATOM     28  C   UNL     1      -5.014  -5.331   6.979  0.00  0.00    +0.195 A 
ATOM     29  O   UNL     1      -3.741  -5.703   6.768  0.00  0.00    -0.470 OA
ENDBRANCH  24  25
ENDBRANCH  22  24
BRANCH  22  30
ATOM     30  C   UNL     1      -0.928  -4.452   6.683  0.00  0.00    -0.046 C 
BRANCH  30  31
ATOM     31  C   UNL     1      -0.142  -3.190   7.044  0.00  0.00    +0.098 C 
BRANCH  31  32
ATOM     32  O   UNL     1       1.203  -3.317   6.577  0.00  0.00    -0.394 OA
ATOM     33  H   UNL     1       1.681  -4.069   6.953  0.00  0.00    +0.210 HD
ENDBRANCH  31  32
BRANCH  31  34
ATOM     34  C   UNL     1      -0.139  -3.009   8.563  0.00  0.00    +0.033 C 
BRANCH  34  35
ATOM     35  C   UNL     1       0.539  -1.684   8.918  0.00  0.00    +0.029 C 
BRANCH  35  36
ATOM     36  C   UNL     1       0.542  -1.506  10.414  0.00  0.00    -0.034 C 
ATOM     37  C   UNL     1       1.669  -1.291  11.046  0.00  0.00    +0.004 C 
ENDBRANCH  35  36
ENDBRANCH  34  35
ENDBRANCH  31  34
ENDBRANCH  30  31
ENDBRANCH  22  30
ENDBRANCH  21  22
ENDBRANCH   2  21
TORSDOF 13
