REMARK  Name = ZINC63855092
REMARK  8 active torsions:
REMARK  status: ('A' for Active; 'I' for Inactive)
REMARK    1  A    between atoms: C_1  and  C_2
REMARK    2  A    between atoms: C_2  and  N_3
REMARK    3  A    between atoms: N_3  and  C_4
REMARK    4  A    between atoms: C_4  and  C_5
REMARK    5  A    between atoms: C_11  and  C_13
REMARK    6  A    between atoms: C_14  and  C_22
REMARK    7  A    between atoms: C_16  and  S_18
REMARK    8  A    between atoms: S_18  and  N_21
REMARK                            x       y       z     vdW  Elec       q    Type
REMARK                         _______ _______ _______ _____ _____    ______ ____
ROOT
ATOM      1  N   UNL     1      -1.363  -0.532   0.011  0.00  0.00    -0.293 N 
ATOM      2  C   UNL     1      -1.958  -0.846   1.179  0.00  0.00    +0.254 C 
ATOM      3  O   UNL     1      -3.074  -1.333   1.182  0.00  0.00    -0.269 OA
ENDROOT
BRANCH   2   4
ATOM      4  C   UNL     1      -1.262  -0.601   2.446  0.00  0.00    +0.079 A 
ATOM      5  C   UNL     1      -1.638  -0.956   3.732  0.00  0.00    -0.029 A 
ATOM      6  C   UNL     1      -0.770  -0.585   4.731  0.00  0.00    +0.040 A 
ATOM      7  C   UNL     1       0.363   0.085   4.405  0.00  0.00    +0.143 A 
ATOM      8  S   UNL     1       0.291   0.225   2.733  0.00  0.00    -0.064 S 
ATOM      9  C   UNL     1      -2.916  -1.701   4.017  0.00  0.00    +0.045 C 
BRANCH   7  10
ATOM     10  S   UNL     1       1.625   0.667   5.487  0.00  0.00    +0.062 S 
ATOM     11  O   UNL     1       2.273   1.739   4.816  0.00  0.00    -0.153 OA
ATOM     12  O   UNL     1       1.025   0.821   6.766  0.00  0.00    -0.153 OA
BRANCH  10  13
ATOM     13  N   UNL     1       2.744  -0.546   5.633  0.00  0.00    -0.203 NA
ATOM     14  H   UNL     1       2.616  -1.382   5.158  0.00  0.00    +0.144 HD
ATOM     15  H   UNL     1       3.526  -0.420   6.192  0.00  0.00    +0.144 HD
ENDBRANCH  10  13
ENDBRANCH   7  10
ENDBRANCH   2   4
BRANCH   1  17
ATOM     16  C   UNL     1       0.045   1.462   0.164  0.00  0.00    +0.024 C 
ATOM     17  C   UNL     1       0.024  -0.059  -0.000  0.00  0.00    +0.105 C 
ENDBRANCH   1  17
BRANCH   1  18
ATOM     18  C   UNL     1      -2.103  -0.664  -1.246  0.00  0.00    +0.150 C 
BRANCH  18  19
ATOM     19  C   UNL     1      -1.900  -2.048  -1.806  0.00  0.00    +0.009 A 
ATOM     20  C   UNL     1      -2.633  -3.169  -1.595  0.00  0.00    +0.014 A 
ATOM     21  C   UNL     1      -2.257  -4.343  -2.221  0.00  0.00    +0.028 A 
ATOM     22  C   UNL     1      -1.166  -4.338  -3.026  0.00  0.00    +0.078 A 
ATOM     23  S   UNL     1      -0.638  -2.636  -2.923  0.00  0.00    -0.080 S 
ATOM     24 CL   UNL     1      -0.468  -5.646  -3.929  0.00  0.00    -0.076 Cl
ENDBRANCH  18  19
ENDBRANCH   1  18
TORSDOF 6
