REMARK  Name = ZINC40291105
REMARK  5 active torsions:
REMARK  status: ('A' for Active; 'I' for Inactive)
REMARK    1  A    between atoms: C_1  and  C_2
REMARK    2  A    between atoms: C_3  and  C_19
REMARK    3  A    between atoms: C_7  and  C_8
REMARK    4  A    between atoms: C_8  and  N_10
REMARK    5  A    between atoms: N_11  and  C_12
REMARK                            x       y       z     vdW  Elec       q    Type
REMARK                         _______ _______ _______ _____ _____    ______ ____
ROOT
ATOM      1  C   UNL     1       0.292   1.513   0.035  0.00  0.00    +0.046 C 
ATOM      2  C   UNL     1       0.526   0.025   0.056  0.00  0.00    -0.015 A 
ATOM      3  C   UNL     1       1.017  -0.637  -1.058  0.00  0.00    +0.064 A 
ATOM      4  N   UNL     1       1.216  -1.940  -1.020  0.00  0.00    -0.152 NA
ATOM      5  N   UNL     1       0.972  -2.648   0.021  0.00  0.00    -0.133 NA
ATOM      6  C   UNL     1       0.500  -2.119   1.141  0.00  0.00    +0.155 A 
ATOM      7  C   UNL     1       0.259  -0.733   1.204  0.00  0.00    +0.049 A 
ATOM      8  N   UNL     1       0.251  -2.921   2.242  0.00  0.00    -0.297 N 
ATOM      9  C   UNL     1       1.324   0.134  -2.315  0.00  0.00    +0.068 C 
ATOM     10  H   UNL     1      -0.000  -2.519   3.088  0.00  0.00    +0.154 HD
ENDROOT
BRANCH   8  11
ATOM     11  C   UNL     1       0.361  -4.310   2.134  0.00  0.00    +0.046 A 
ATOM     12  C   UNL     1       0.463  -4.905   0.883  0.00  0.00    +0.024 A 
ATOM     13  C   UNL     1       0.572  -6.278   0.779  0.00  0.00    +0.002 A 
ATOM     14  C   UNL     1       0.579  -7.061   1.920  0.00  0.00    +0.001 A 
ATOM     15  C   UNL     1       0.478  -6.472   3.167  0.00  0.00    +0.016 A 
ATOM     16  C   UNL     1       0.375  -5.099   3.278  0.00  0.00    +0.035 A 
ATOM     17  I   UNL     1       0.230  -4.207   5.168  0.00  0.00    -0.042 I 
ENDBRANCH   8  11
BRANCH   7  18
ATOM     18  C   UNL     1      -0.260  -0.102   2.432  0.00  0.00    +0.081 C 
ATOM     19  S   UNL     1       0.822   0.606   3.553  0.00  0.00    -0.035 S 
BRANCH  18  20
ATOM     20  N   UNL     1      -1.586  -0.083   2.670  0.00  0.00    -0.352 N 
ATOM     21  H   UNL     1      -2.204  -0.419   2.002  0.00  0.00    +0.143 HD
ATOM     22  H   UNL     1      -1.923   0.267   3.510  0.00  0.00    +0.143 HD
ENDBRANCH  18  20
ENDBRANCH   7  18
TORSDOF 3
