REMARK  Name = ZINC32815370
REMARK  9 active torsions:
REMARK  status: ('A' for Active; 'I' for Inactive)
REMARK    1  A    between atoms: C_1  and  C_2
REMARK    2  A    between atoms: C_2  and  C_3
REMARK    3  A    between atoms: C_3  and  C_30
REMARK    4  A    between atoms: N_6  and  C_20
REMARK    5  A    between atoms: N_9  and  C_10
REMARK    6  A    between atoms: C_10  and  C_11
REMARK    7  A    between atoms: N_13  and  C_14
REMARK    8  A    between atoms: C_20  and  C_21
REMARK    9  A    between atoms: N_23  and  C_24
REMARK                            x       y       z     vdW  Elec       q    Type
REMARK                         _______ _______ _______ _____ _____    ______ ____
ROOT
ATOM      1  C   UNL     1      -0.735   2.019   1.269  0.00  0.00    +0.113 C 
ATOM      2  C   UNL     1       0.026   1.604   2.513  0.00  0.00    +0.247 C 
ATOM      3  O   UNL     1       0.267   0.474   2.881  0.00  0.00    -0.273 OA
ATOM      4  N   UNL     1       0.379   2.757   3.122  0.00  0.00    -0.215 N 
ATOM      5  C   UNL     1      -0.052   3.827   2.444  0.00  0.00    +0.313 C 
ATOM      6  O   UNL     1       0.142   4.974   2.796  0.00  0.00    -0.252 OA
ATOM      7  N   UNL     1      -0.725   3.491   1.328  0.00  0.00    -0.262 N 
ATOM      8  C   UNL     1      -2.169   1.489   1.313  0.00  0.00    +0.042 C 
ENDROOT
BRANCH   1  10
ATOM      9  C   UNL     1       0.002  -0.004   0.002  0.00  0.00    +0.006 C 
ATOM     10  C   UNL     1      -0.019   1.526   0.010  0.00  0.00    +0.032 C 
ENDBRANCH   1  10
BRANCH   7  11
ATOM     11  C   UNL     1      -1.328   4.410   0.360  0.00  0.00    +0.206 C 
BRANCH  11  12
ATOM     12  C   UNL     1      -2.750   4.704   0.765  0.00  0.00    +0.231 C 
ATOM     13  O   UNL     1      -3.213   4.196   1.764  0.00  0.00    -0.274 OA
ATOM     14  N   UNL     1      -3.506   5.532   0.017  0.00  0.00    -0.311 N 
ATOM     15  H   UNL     1      -3.086   5.992  -0.889  0.00  0.00    +0.149 HD
BRANCH  14  16
ATOM     16  C   UNL     1      -4.888   5.817   0.411  0.00  0.00    +0.073 C 
ATOM     17  C   UNL     1      -5.809   4.723  -0.131  0.00  0.00    +0.022 C 
ATOM     18  C   UNL     1      -7.253   5.022   0.280  0.00  0.00    +0.002 C 
ATOM     19  C   UNL     1      -7.676   6.375  -0.293  0.00  0.00    +0.000 C 
ATOM     20  C   UNL     1      -6.755   7.470   0.249  0.00  0.00    +0.002 C 
ATOM     21  C   UNL     1      -5.312   7.171  -0.163  0.00  0.00    +0.022 C 
ENDBRANCH  14  16
ENDBRANCH  11  12
ENDBRANCH   7  11
BRANCH   4  22
ATOM     22  C   UNL     1       1.137   2.827   4.374  0.00  0.00    +0.213 C 
BRANCH  22  23
ATOM     23  C   UNL     1       0.183   2.830   5.540  0.00  0.00    +0.231 C 
ATOM     24  O   UNL     1      -1.013   2.779   5.345  0.00  0.00    -0.274 OA
ATOM     25  N   UNL     1       0.658   2.890   6.800  0.00  0.00    -0.311 N 
ATOM     26  H   UNL     1       1.743   2.936   6.976  0.00  0.00    +0.149 HD
BRANCH  25  27
ATOM     27  C   UNL     1      -0.270   2.893   7.934  0.00  0.00    +0.073 C 
ATOM     28  C   UNL     1      -0.744   4.323   8.201  0.00  0.00    +0.022 C 
ATOM     29  C   UNL     1      -1.712   4.326   9.385  0.00  0.00    +0.002 C 
ATOM     30  C   UNL     1      -1.002   3.783  10.627  0.00  0.00    +0.000 C 
ATOM     31  C   UNL     1      -0.528   2.353  10.359  0.00  0.00    +0.002 C 
ATOM     32  C   UNL     1       0.441   2.350   9.175  0.00  0.00    +0.022 C 
ENDBRANCH  25  27
ENDBRANCH  22  23
ENDBRANCH   4  22
TORSDOF 7
