REMARK  Name = ZINC64870749
REMARK  4 active torsions:
REMARK  status: ('A' for Active; 'I' for Inactive)
REMARK    1  A    between atoms: C_1  and  C_2
REMARK    2  A    between atoms: C_2  and  N_3
REMARK    3  A    between atoms: C_9  and  C_16
REMARK    4  A    between atoms: C_19  and  C_22
REMARK                            x       y       z     vdW  Elec       q    Type
REMARK                         _______ _______ _______ _____ _____    ______ ____
ROOT
ATOM      1  N   UNL     1      -1.372  -0.511   0.012  0.00  0.00    -0.261 N 
ATOM      2  C   UNL     1      -1.984  -0.742   1.194  0.00  0.00    +0.264 A 
ATOM      3  O   UNL     1      -1.410  -0.533   2.245  0.00  0.00    -0.267 OA
ATOM      4  C   UNL     1      -3.367  -1.251   1.177  0.00  0.00    +0.063 A 
ATOM      5  C   UNL     1      -4.066  -1.513   2.353  0.00  0.00    +0.016 A 
ATOM      6  C   UNL     1      -5.359  -1.989   2.283  0.00  0.00    +0.009 A 
ATOM      7  C   UNL     1      -5.961  -2.206   1.053  0.00  0.00    +0.006 A 
ATOM      8  C   UNL     1      -5.279  -1.950  -0.120  0.00  0.00    +0.034 A 
ATOM      9  C   UNL     1      -3.979  -1.472  -0.069  0.00  0.00    +0.056 A 
ATOM     10  N   UNL     1      -3.259  -1.201  -1.224  0.00  0.00    -0.307 N 
ATOM     11  H   UNL     1      -3.668  -1.348  -2.091  0.00  0.00    +0.170 HD
ATOM     12  C   UNL     1      -2.001  -0.733  -1.153  0.00  0.00    +0.330 A 
ATOM     13  O   UNL     1      -1.406  -0.504  -2.188  0.00  0.00    -0.246 OA
ENDROOT
BRANCH   7  14
ATOM     14  C   UNL     1      -7.374  -2.727   0.996  0.00  0.00    +0.274 C 
ATOM     15  N   UNL     1      -7.663  -3.544   2.181  0.00  0.00    -0.339 N 
ATOM     16  C   UNL     1      -8.640  -2.998   2.835  0.00  0.00    +0.134 C 
ATOM     17  N   UNL     1      -9.079  -1.853   2.217  0.00  0.00    -0.247 N 
ATOM     18  O   UNL     1      -8.308  -1.638   1.044  0.00  0.00    -0.243 OA
ATOM     19  H   UNL     1      -9.800  -1.284   2.531  0.00  0.00    +0.196 HD
ATOM     20  H   UNL     1      -7.199  -4.358   2.433  0.00  0.00    +0.164 HD
BRANCH  16  21
ATOM     21  C   UNL     1      -9.210  -3.539   4.090  0.00  0.00    +0.017 A 
ATOM     22  C   UNL     1      -8.404  -4.260   4.971  0.00  0.00    +0.012 A 
ATOM     23  C   UNL     1      -8.940  -4.761   6.139  0.00  0.00    +0.016 A 
ATOM     24  C   UNL     1     -10.276  -4.552   6.436  0.00  0.00    +0.018 A 
ATOM     25  C   UNL     1     -11.081  -3.838   5.565  0.00  0.00    +0.016 A 
ATOM     26  C   UNL     1     -10.554  -3.326   4.397  0.00  0.00    +0.012 A 
ATOM     27 BR   UNL     1     -11.004  -5.244   8.038  0.00  0.00    -0.050 Br
ENDBRANCH  16  21
ENDBRANCH   7  14
BRANCH   1  29
ATOM     28  C   UNL     1      -0.019   1.526   0.010  0.00  0.00    +0.027 C 
ATOM     29  C   UNL     1       0.002  -0.004   0.002  0.00  0.00    +0.126 C 
ENDBRANCH   1  29
TORSDOF 3
