REMARK  Name = ZINC38901616
REMARK  10 active torsions:
REMARK  status: ('A' for Active; 'I' for Inactive)
REMARK    1  A    between atoms: C_6  and  C_7
REMARK    2  A    between atoms: C_7  and  S_8
REMARK    3  A    between atoms: S_8  and  C_9
REMARK    4  A    between atoms: C_9  and  C_10
REMARK    5  A    between atoms: C_10  and  C_11
REMARK    6  A    between atoms: C_11  and  N_12
REMARK    7  A    between atoms: C_13  and  C_15
REMARK    8  A    between atoms: N_20  and  C_22
REMARK    9  A    between atoms: C_22  and  C_23
REMARK   10  A    between atoms: C_25  and  C_28
REMARK                            x       y       z     vdW  Elec       q    Type
REMARK                         _______ _______ _______ _____ _____    ______ ____
ROOT
ATOM      1  C   UNL     1      -7.512  -4.413  -5.543  0.00  0.00    +0.058 C 
ATOM      2  C   UNL     1      -6.504  -5.261  -6.324  0.00  0.00    +0.009 C 
ATOM      3  C   UNL     1      -7.113  -5.644  -7.676  0.00  0.00    -0.018 C 
ATOM      4  C   UNL     1      -8.434  -6.381  -7.444  0.00  0.00    -0.078 C 
ATOM      5  N   UNL     1      -9.364  -5.509  -6.715  0.00  0.00    +0.386 N 
ATOM      6  C   UNL     1      -8.818  -5.195  -5.389  0.00  0.00    -0.065 C 
ATOM      7  H   UNL     1      -9.496  -4.653  -7.234  0.00  0.00    -0.081 HD
ENDROOT
BRANCH   1   9
ATOM      8  N   UNL     1      -5.798  -3.410  -4.068  0.00  0.00    -0.315 N 
ATOM      9  C   UNL     1      -6.953  -4.096  -4.180  0.00  0.00    +0.214 C 
ATOM     10  O   UNL     1      -7.542  -4.457  -3.183  0.00  0.00    -0.276 OA
ATOM     11  H   UNL     1      -5.327  -3.121  -4.865  0.00  0.00    +0.149 HD
BRANCH   8  12
ATOM     12  C   UNL     1      -5.254  -3.101  -2.743  0.00  0.00    +0.105 C 
BRANCH  12  13
ATOM     13  C   UNL     1      -3.947  -2.321  -2.897  0.00  0.00    +0.029 C 
BRANCH  13  14
ATOM     14  C   UNL     1      -3.379  -1.999  -1.514  0.00  0.00    +0.071 C 
BRANCH  14  15
ATOM     15  S   UNL     1      -1.829  -1.075  -1.697  0.00  0.00    -0.156 S 
BRANCH  15  16
ATOM     16  C   UNL     1      -1.293  -0.775   0.010  0.00  0.00    +0.104 C 
BRANCH  16  22
ATOM     17  C   UNL     1      -0.017   1.378   0.010  0.00  0.00    +0.007 A 
ATOM     18  C   UNL     1       1.170   2.086   0.002  0.00  0.00    +0.038 A 
ATOM     19  C   UNL     1       2.379   1.410  -0.013  0.00  0.00    +0.123 A 
ATOM     20  C   UNL     1       2.396   0.026  -0.021  0.00  0.00    +0.038 A 
ATOM     21  C   UNL     1       1.208  -0.680  -0.013  0.00  0.00    +0.007 A 
ATOM     22  C   UNL     1       0.002  -0.004   0.002  0.00  0.00    -0.037 A 
ATOM     23  F   UNL     1       3.540   2.101  -0.021  0.00  0.00    -0.205 F 
ENDBRANCH  16  22
ENDBRANCH  15  16
ENDBRANCH  14  15
ENDBRANCH  13  14
ENDBRANCH  12  13
ENDBRANCH   8  12
ENDBRANCH   1   9
BRANCH   5  24
ATOM     24  C   UNL     1     -10.655  -6.191  -6.563  0.00  0.00    +0.022 C 
BRANCH  24  25
ATOM     25  C   UNL     1     -11.279  -6.395  -7.920  0.00  0.00    +0.211 A 
ATOM     26  N   UNL     1     -11.113  -7.436  -8.685  0.00  0.00    -0.193 NA
ATOM     27  C   UNL     1     -11.814  -7.288  -9.823  0.00  0.00    +0.202 A 
ATOM     28  N   UNL     1     -12.437  -6.135  -9.784  0.00  0.00    -0.056 NA
ATOM     29  O   UNL     1     -12.101  -5.539  -8.540  0.00  0.00    -0.340 OA
BRANCH  27  30
ATOM     30  C   UNL     1     -11.873  -8.266 -10.937  0.00  0.00    +0.023 A 
ATOM     31  C   UNL     1     -11.166  -9.464 -10.854  0.00  0.00    +0.014 A 
ATOM     32  C   UNL     1     -11.224 -10.371 -11.892  0.00  0.00    +0.039 A 
ATOM     33  C   UNL     1     -11.984 -10.092 -13.016  0.00  0.00    +0.123 A 
ATOM     34  C   UNL     1     -12.688  -8.902 -13.104  0.00  0.00    +0.039 A 
ATOM     35  C   UNL     1     -12.641  -7.992 -12.068  0.00  0.00    +0.014 A 
ATOM     36  F   UNL     1     -12.038 -10.983 -14.030  0.00  0.00    -0.205 F 
ENDBRANCH  27  30
ENDBRANCH  24  25
ENDBRANCH   5  24
TORSDOF 10
