REMARK  Name = ZINC62088847
REMARK  3 active torsions:
REMARK  status: ('A' for Active; 'I' for Inactive)
REMARK    1  A    between atoms: C_6  and  N_7
REMARK    2  A    between atoms: N_7  and  S_8
REMARK    3  A    between atoms: S_8  and  C_11
REMARK                            x       y       z     vdW  Elec       q    Type
REMARK                         _______ _______ _______ _____ _____    ______ ____
ROOT
ATOM      1  S   UNL     1      -2.440  -0.266  -0.989  0.00  0.00    +0.072 S 
ATOM      2  O   UNL     1      -3.497  -1.191  -0.770  0.00  0.00    -0.150 OA
ATOM      3  O   UNL     1      -2.606   1.135  -0.821  0.00  0.00    -0.150 OA
ENDROOT
BRANCH   1   4
ATOM      4  C   UNL     1      -1.891  -0.512  -2.646  0.00  0.00    +0.111 A 
ATOM      5  C   UNL     1      -1.242   0.511  -3.316  0.00  0.00    +0.031 A 
ATOM      6  C   UNL     1      -0.808   0.328  -4.614  0.00  0.00    +0.030 A 
ATOM      7  C   UNL     1      -1.023  -0.886  -5.249  0.00  0.00    +0.067 A 
ATOM      8  C   UNL     1      -1.677  -1.918  -4.573  0.00  0.00    +0.069 A 
ATOM      9  C   UNL     1      -2.105  -1.726  -3.268  0.00  0.00    +0.056 A 
ATOM     10  N   UNL     1      -1.745  -2.996  -5.452  0.00  0.00    -0.306 N 
ATOM     11  H   UNL     1      -2.147  -3.858  -5.263  0.00  0.00    +0.170 HD
ATOM     12  C   UNL     1      -1.159  -2.636  -6.610  0.00  0.00    +0.325 A 
ATOM     13  O   UNL     1      -1.049  -3.349  -7.590  0.00  0.00    -0.247 OA
ATOM     14  N   UNL     1      -0.713  -1.369  -6.518  0.00  0.00    -0.306 N 
ATOM     15  H   UNL     1      -0.255  -0.877  -7.216  0.00  0.00    +0.170 HD
ENDBRANCH   1   4
BRANCH   1  16
ATOM     16  N   UNL     1      -1.200  -0.720   0.010  0.00  0.00    -0.216 N 
ATOM     17  H   UNL     1      -1.307  -1.481   0.601  0.00  0.00    +0.174 HD
BRANCH  16  23
ATOM     18  C   UNL     1      -0.017   1.386   0.010  0.00  0.00    +0.028 A 
ATOM     19  C   UNL     1       1.167   2.097   0.002  0.00  0.00    +0.050 A 
ATOM     20  C   UNL     1       2.379   1.426  -0.013  0.00  0.00    +0.157 A 
ATOM     21  C   UNL     1       2.400   0.031  -0.021  0.00  0.00    +0.089 A 
ATOM     22  C   UNL     1       1.213  -0.682  -0.013  0.00  0.00    +0.054 A 
ATOM     23  C   UNL     1       0.002  -0.004   0.002  0.00  0.00    +0.050 A 
ATOM     24  N   UNL     1       3.743  -0.347  -0.036  0.00  0.00    -0.288 N 
ATOM     25  H   UNL     1       4.083  -1.255  -0.044  0.00  0.00    +0.172 HD
ATOM     26  C   UNL     1       4.481   0.780  -0.037  0.00  0.00    +0.419 A 
ATOM     27  O   UNL     1       5.697   0.823  -0.049  0.00  0.00    -0.223 OA
ATOM     28  O   UNL     1       3.668   1.848  -0.023  0.00  0.00    -0.408 OA
ENDBRANCH  16  23
ENDBRANCH   1  16
TORSDOF 3
