REMARK  Name = ZINC09391465
REMARK  12 active torsions:
REMARK  status: ('A' for Active; 'I' for Inactive)
REMARK    1  A    between atoms: C_1  and  C_2
REMARK    2  A    between atoms: C_2  and  O_3
REMARK    3  A    between atoms: O_3  and  C_4
REMARK    4  A    between atoms: C_4  and  C_6
REMARK    5  A    between atoms: C_10  and  N_11
REMARK    6  A    between atoms: C_12  and  C_14
REMARK    7  A    between atoms: C_17  and  S_20
REMARK    8  A    between atoms: S_20  and  N_23
REMARK    9  A    between atoms: C_28  and  C_30
REMARK   10  A    between atoms: C_34  and  C_35
REMARK   11  A    between atoms: C_34  and  C_36
REMARK   12  A    between atoms: C_34  and  N_71
REMARK                            x       y       z     vdW  Elec       q    Type
REMARK                         _______ _______ _______ _____ _____    ______ ____
ROOT
ATOM      1  N   UNL     1      -0.864   3.270  -1.300  0.00  0.00    -0.275 N 
ATOM      2  C   UNL     1      -2.169   3.515  -1.069  0.00  0.00    +0.249 C 
ATOM      3  O   UNL     1      -2.577   4.660  -1.043  0.00  0.00    -0.270 OA
ATOM      4  H   UNL     1      -0.539   2.356  -1.320  0.00  0.00    +0.156 HD
ENDROOT
BRANCH   1   9
ATOM      5  C   UNL     1       1.376   4.270  -1.772  0.00  0.00    +0.091 A 
ATOM      6  C   UNL     1       2.067   5.532  -1.963  0.00  0.00    -0.025 A 
ATOM      7  C   UNL     1       1.293   6.636  -1.865  0.00  0.00    -0.021 A 
ATOM      8  S   UNL     1      -0.332   6.020  -1.535  0.00  0.00    -0.079 S 
ATOM      9  C   UNL     1       0.011   4.321  -1.515  0.00  0.00    +0.086 A 
ATOM     10  C   UNL     1       1.745   8.055  -2.015  0.00  0.00    -0.035 C 
ATOM     11  C   UNL     1       3.808   7.069  -2.817  0.00  0.00    -0.073 C 
ATOM     12  C   UNL     1       3.557   5.666  -2.256  0.00  0.00    +0.018 C 
ATOM     13  N   UNL     1       3.224   8.073  -1.904  0.00  0.00    +0.384 N 
ATOM     14  H   UNL     1       3.490   7.842  -0.939  0.00  0.00    -0.081 HD
BRANCH  13  15
ATOM     15  C   UNL     1       3.740   9.419  -2.236  0.00  0.00    -0.074 C 
ATOM     16  C   UNL     1       3.346   9.805  -3.663  0.00  0.00    -0.014 C 
ATOM     17  C   UNL     1       3.152  10.433  -1.252  0.00  0.00    -0.014 C 
ENDBRANCH  13  15
BRANCH   5  18
ATOM     18  C   UNL     1       2.088   2.993  -1.848  0.00  0.00    +0.342 C 
ATOM     19  O   UNL     1       2.188   2.414  -2.913  0.00  0.00    -0.245 OA
BRANCH  18  20
ATOM     20  O   UNL     1       2.634   2.458  -0.736  0.00  0.00    -0.461 OA
BRANCH  20  22
ATOM     21  C   UNL     1       3.874   0.745   0.471  0.00  0.00    +0.048 C 
ATOM     22  C   UNL     1       3.325   1.190  -0.886  0.00  0.00    +0.229 C 
ENDBRANCH  20  22
ENDBRANCH  18  20
ENDBRANCH   5  18
ENDBRANCH   1   9
BRANCH   2  23
ATOM     23  C   UNL     1      -3.104   2.393  -0.845  0.00  0.00    +0.037 A 
ATOM     24  C   UNL     1      -2.640   1.076  -0.879  0.00  0.00    +0.015 A 
ATOM     25  C   UNL     1      -3.517   0.033  -0.664  0.00  0.00    +0.029 A 
ATOM     26  C   UNL     1      -4.856   0.289  -0.427  0.00  0.00    +0.106 A 
ATOM     27  C   UNL     1      -5.324   1.591  -0.398  0.00  0.00    +0.029 A 
ATOM     28  C   UNL     1      -4.456   2.643  -0.605  0.00  0.00    +0.015 A 
BRANCH  26  29
ATOM     29  S   UNL     1      -5.971  -1.049  -0.160  0.00  0.00    +0.061 S 
ATOM     30  O   UNL     1      -5.189  -2.142   0.304  0.00  0.00    -0.153 OA
ATOM     31  O   UNL     1      -7.064  -0.526   0.581  0.00  0.00    -0.153 OA
BRANCH  29  32
ATOM     32  N   UNL     1      -6.569  -1.490  -1.640  0.00  0.00    -0.174 NA
ATOM     33  C   UNL     1      -5.971  -2.605  -2.387  0.00  0.00    +0.110 C 
ATOM     34  C   UNL     1      -7.076  -3.602  -2.752  0.00  0.00    +0.017 C 
ATOM     35  C   UNL     1      -8.191  -2.869  -3.502  0.00  0.00    +0.003 C 
ATOM     36  C   UNL     1      -8.793  -1.792  -2.597  0.00  0.00    +0.020 C 
ATOM     37  C   UNL     1      -7.712  -0.778  -2.227  0.00  0.00    +0.077 C 
ATOM     38  C   UNL     1      -8.273   0.219  -1.211  0.00  0.00    +0.026 C 
ENDBRANCH  29  32
ENDBRANCH  26  29
ENDBRANCH   2  23
TORSDOF 8
