REMARK  Name = ZINC21372111
REMARK  9 active torsions:
REMARK  status: ('A' for Active; 'I' for Inactive)
REMARK    1  A    between atoms: C_1  and  C_2
REMARK    2  A    between atoms: C_4  and  C_18
REMARK    3  A    between atoms: C_5  and  C_17
REMARK    4  A    between atoms: N_6  and  C_7
REMARK    5  A    between atoms: C_18  and  C_20
REMARK    6  A    between atoms: C_20  and  O_21
REMARK    7  A    between atoms: O_21  and  C_22
REMARK    8  A    between atoms: C_22  and  C_24
REMARK    9  A    between atoms: C_24  and  N_25
REMARK                            x       y       z     vdW  Elec       q    Type
REMARK                         _______ _______ _______ _____ _____    ______ ____
ROOT
ATOM      1  C   UNL     1      -6.770  -1.835  -1.400  0.00  0.00    +0.202 C 
ATOM      2  O   UNL     1      -6.921  -1.322  -2.489  0.00  0.00    -0.288 OA
ENDROOT
BRANCH   1   6
ATOM      3  C   UNL     1      -3.279  -1.823   2.312  0.00  0.00    +0.064 C 
ATOM      4  C   UNL     1      -4.030  -1.560   1.032  0.00  0.00    +0.022 A 
ATOM      5  C   UNL     1      -5.223  -2.086   0.707  0.00  0.00    +0.034 A 
ATOM      6  C   UNL     1      -5.564  -1.553  -0.619  0.00  0.00    +0.042 A 
ATOM      7  C   UNL     1      -4.514  -0.727  -0.977  0.00  0.00    +0.032 A 
ATOM      8  N   UNL     1      -3.607  -0.747   0.018  0.00  0.00    -0.317 N 
ATOM      9  C   UNL     1      -4.404   0.058  -2.259  0.00  0.00    +0.064 C 
BRANCH   8  10
ATOM     10  C   UNL     1      -2.400  -0.032   0.016  0.00  0.00    +0.050 A 
ATOM     11  C   UNL     1      -2.416   1.356   0.026  0.00  0.00    +0.030 A 
ATOM     12  C   UNL     1      -1.228   2.062   0.019  0.00  0.00    +0.051 A 
ATOM     13  C   UNL     1      -0.017   1.386   0.010  0.00  0.00    +0.162 A 
ATOM     14  C   UNL     1       0.002  -0.004   0.002  0.00  0.00    +0.164 A 
ATOM     15  C   UNL     1      -1.190  -0.711   0.004  0.00  0.00    +0.075 A 
ATOM     16  O   UNL     1       1.181  -0.685  -0.007  0.00  0.00    -0.485 OA
ATOM     17  C   UNL     1       2.347   0.053  -0.388  0.00  0.00    +0.270 C 
ATOM     18  C   UNL     1       2.335   1.391   0.364  0.00  0.00    +0.270 C 
ATOM     19  O   UNL     1       1.144   2.098   0.002  0.00  0.00    -0.485 OA
ENDBRANCH   8  10
ENDBRANCH   1   6
BRANCH   1  20
ATOM     20  C   UNL     1      -7.822  -2.763  -0.851  0.00  0.00    +0.311 C 
BRANCH  20  21
ATOM     21  O   UNL     1      -8.911  -2.879  -1.806  0.00  0.00    -0.455 OA
BRANCH  21  22
ATOM     22  C   UNL     1      -9.937  -3.675  -1.466  0.00  0.00    +0.328 C 
ATOM     23  O   UNL     1      -9.926  -4.256  -0.407  0.00  0.00    -0.249 OA
BRANCH  22  24
ATOM     24  C   UNL     1     -11.102  -3.845  -2.406  0.00  0.00    +0.245 C 
BRANCH  24  25
ATOM     25  N   UNL     1     -12.082  -4.756  -1.810  0.00  0.00    -0.295 N 
ATOM     26  C   UNL     1     -13.098  -4.268  -1.013  0.00  0.00    +0.071 A 
ATOM     27  C   UNL     1     -13.205  -2.903  -0.766  0.00  0.00    +0.028 A 
ATOM     28  C   UNL     1     -14.223  -2.428   0.031  0.00  0.00    +0.002 A 
ATOM     29  C   UNL     1     -15.147  -3.301   0.590  0.00  0.00    +0.002 A 
ATOM     30  C   UNL     1     -15.062  -4.643   0.361  0.00  0.00    +0.030 A 
ATOM     31  C   UNL     1     -14.034  -5.154  -0.447  0.00  0.00    +0.088 A 
ATOM     32  N   UNL     1     -13.949  -6.478  -0.674  0.00  0.00    -0.248 NA
ATOM     33  C   UNL     1     -13.003  -6.972  -1.421  0.00  0.00    +0.181 A 
ATOM     34  C   UNL     1     -12.009  -6.086  -2.037  0.00  0.00    +0.270 A 
ATOM     35  O   UNL     1     -11.126  -6.544  -2.739  0.00  0.00    -0.266 OA
ENDBRANCH  24  25
ENDBRANCH  22  24
ENDBRANCH  21  22
ENDBRANCH  20  21
ENDBRANCH   1  20
TORSDOF 7
