REMARK  Name = ZINC54237866
REMARK  4 active torsions:
REMARK  status: ('A' for Active; 'I' for Inactive)
REMARK    1  A    between atoms: C_3  and  C_11
REMARK    2  A    between atoms: C_6  and  N_7
REMARK    3  A    between atoms: C_11  and  N_12
REMARK    4  A    between atoms: C_17  and  C_19
REMARK                            x       y       z     vdW  Elec       q    Type
REMARK                         _______ _______ _______ _____ _____    ______ ____
ROOT
ATOM      1  C   UNL     1       1.136  -0.569  -0.520  0.00  0.00    +0.033 A 
ATOM      2  C   UNL     1       2.326   0.136  -0.529  0.00  0.00    +0.008 A 
ATOM      3  C   UNL     1       2.375   1.417  -0.012  0.00  0.00    -0.015 A 
ATOM      4  C   UNL     1       1.233   1.994   0.515  0.00  0.00    +0.048 A 
ATOM      5  C   UNL     1       0.043   1.288   0.524  0.00  0.00    +0.053 A 
ATOM      6  C   UNL     1      -0.005   0.007   0.006  0.00  0.00    +0.128 A 
ATOM      7 CL   UNL     1       1.294   3.602   1.165  0.00  0.00    -0.083 Cl
ENDROOT
BRANCH   6   8
ATOM      8  N   UNL     1      -1.278  -0.747   0.015  0.00  0.00    +0.056 N 
ATOM      9  O   UNL     1      -1.320  -1.867  -0.438  0.00  0.00    -0.126 OA
ATOM     10  O   UNL     1      -2.276  -0.243   0.475  0.00  0.00    -0.126 OA
ENDBRANCH   6   8
BRANCH   3  11
ATOM     11  C   UNL     1       3.672   2.184  -0.022  0.00  0.00    +0.121 C 
BRANCH  11  12
ATOM     12  N   UNL     1       4.229   2.222   1.337  0.00  0.00    -0.289 NA
ATOM     13  C   UNL     1       4.729   0.900   1.737  0.00  0.00    +0.085 C 
ATOM     14  C   UNL     1       5.166   0.942   3.203  0.00  0.00    +0.015 C 
ATOM     15  C   UNL     1       6.263   1.996   3.374  0.00  0.00    +0.003 C 
ATOM     16  C   UNL     1       5.732   3.354   2.905  0.00  0.00    +0.026 C 
ATOM     17  C   UNL     1       5.279   3.242   1.448  0.00  0.00    +0.120 C 
BRANCH  17  18
ATOM     18  C   UNL     1       4.737   4.571   0.987  0.00  0.00    +0.242 C 
ATOM     19  O   UNL     1       5.251   5.143   0.056  0.00  0.00    -0.299 OA
ENDBRANCH  17  18
ENDBRANCH  11  12
ENDBRANCH   3  11
TORSDOF 4
