REMARK  Name = ZINC37640469
REMARK  5 active torsions:
REMARK  status: ('A' for Active; 'I' for Inactive)
REMARK    1  A    between atoms: C_1  and  C_2
REMARK    2  A    between atoms: C_2  and  C_3
REMARK    3  A    between atoms: C_2  and  C_4
REMARK    4  A    between atoms: C_4  and  N_5
REMARK    5  A    between atoms: N_16  and  C_19
REMARK                            x       y       z     vdW  Elec       q    Type
REMARK                         _______ _______ _______ _____ _____    ______ ____
ROOT
ATOM      1  N   UNL     1       2.125  -0.091  -1.209  0.00  0.00    -0.287 N 
ATOM      2  C   UNL     1       2.502   1.118  -1.738  0.00  0.00    +0.097 A 
ATOM      3  C   UNL     1       3.829   1.531  -1.707  0.00  0.00    +0.074 A 
ATOM      4  C   UNL     1       4.101   2.846  -2.307  0.00  0.00    -0.023 A 
ATOM      5  C   UNL     1       3.022   3.471  -2.803  0.00  0.00    -0.004 A 
ATOM      6  S   UNL     1       1.676   2.357  -2.493  0.00  0.00    -0.075 S 
ATOM      7  C   UNL     1       3.371   4.810  -3.396  0.00  0.00    +0.043 C 
ATOM      8  C   UNL     1       4.768   5.138  -2.823  0.00  0.00    +0.010 C 
ATOM      9  C   UNL     1       5.326   3.730  -2.531  0.00  0.00    +0.037 C 
ATOM     10  C   UNL     1       4.787   0.597  -1.078  0.00  0.00    +0.265 A 
ATOM     11  O   UNL     1       5.970   0.880  -1.009  0.00  0.00    -0.267 OA
ATOM     12  N   UNL     1       4.335  -0.569  -0.583  0.00  0.00    -0.263 N 
ATOM     13  C   UNL     1       3.036  -0.904  -0.643  0.00  0.00    +0.333 A 
ATOM     14  O   UNL     1       2.675  -1.968  -0.178  0.00  0.00    -0.246 OA
ATOM     15  C   UNL     1       5.284  -1.496   0.040  0.00  0.00    +0.157 C 
ENDROOT
BRANCH   1  16
ATOM     16  C   UNL     1       0.718  -0.497  -1.257  0.00  0.00    +0.130 C 
BRANCH  16  18
ATOM     17  C   UNL     1      -0.019   1.526   0.010  0.00  0.00    +0.009 C 
ATOM     18  C   UNL     1       0.002  -0.004   0.002  0.00  0.00    +0.003 C 
ATOM     19  C   UNL     1      -1.433  -0.534   0.013  0.00  0.00    +0.009 C 
ENDBRANCH  16  18
ENDBRANCH   1  16
TORSDOF 2
