REMARK  Name = ZINC38684845
REMARK  9 active torsions:
REMARK  status: ('A' for Active; 'I' for Inactive)
REMARK    1  A    between atoms: C_1  and  C_2
REMARK    2  A    between atoms: C_2  and  O_3
REMARK    3  A    between atoms: O_3  and  C_4
REMARK    4  A    between atoms: C_8  and  C_10
REMARK    5  A    between atoms: C_15  and  O_24
REMARK    6  A    between atoms: C_19  and  N_23
REMARK    7  A    between atoms: C_20  and  C_21
REMARK    8  A    between atoms: O_24  and  C_25
REMARK    9  A    between atoms: C_25  and  C_27
REMARK                            x       y       z     vdW  Elec       q    Type
REMARK                         _______ _______ _______ _____ _____    ______ ____
ROOT
ATOM      1  C   UNL     1      -4.293  -4.317   0.045  0.00  0.00    +0.098 C 
ATOM      2  C   UNL     1      -4.474  -5.179   1.266  0.00  0.00    +0.008 A 
ATOM      3  C   UNL     1      -4.599  -4.582   2.509  0.00  0.00    +0.012 A 
ATOM      4  C   UNL     1      -4.765  -5.357   3.639  0.00  0.00    +0.047 A 
ATOM      5  C   UNL     1      -4.808  -6.741   3.532  0.00  0.00    +0.135 A 
ATOM      6  C   UNL     1      -4.683  -7.341   2.290  0.00  0.00    +0.093 A 
ATOM      7  C   UNL     1      -4.515  -6.560   1.154  0.00  0.00    +0.138 A 
ATOM      8  O   UNL     1      -4.394  -7.163  -0.055  0.00  0.00    -0.441 OA
ATOM      9  C   UNL     1      -4.619  -6.463  -1.179  0.00  0.00    +0.199 C 
ATOM     10  C   UNL     1      -4.584  -5.112  -1.196  0.00  0.00    +0.098 C 
ENDROOT
BRANCH   1  15
ATOM     11  C   UNL     1      -1.314  -1.994  -0.027  0.00  0.00    +0.121 A 
ATOM     12  C   UNL     1      -0.263  -2.897  -0.099  0.00  0.00    +0.045 A 
ATOM     13  C   UNL     1      -0.521  -4.254  -0.123  0.00  0.00    +0.004 A 
ATOM     14  C   UNL     1      -1.825  -4.712  -0.076  0.00  0.00    +0.005 A 
ATOM     15  C   UNL     1      -2.874  -3.814  -0.005  0.00  0.00    -0.031 A 
ATOM     16  C   UNL     1      -2.621  -2.456   0.025  0.00  0.00    +0.050 A 
BRANCH  11  17
ATOM     17  O   UNL     1      -1.063  -0.659  -0.002  0.00  0.00    -0.492 OA
BRANCH  17  19
ATOM     18  C   UNL     1       0.390   1.272  -0.021  0.00  0.00    +0.048 C 
ATOM     19  C   UNL     1       0.307  -0.255  -0.059  0.00  0.00    +0.225 C 
ENDBRANCH  17  19
ENDBRANCH  11  17
ENDBRANCH   1  15
BRANCH   9  20
ATOM     20  N   UNL     1      -4.890  -7.139  -2.342  0.00  0.00    -0.328 N 
ATOM     21  H   UNL     1      -4.917  -8.108  -2.344  0.00  0.00    +0.145 HD
ATOM     22  H   UNL     1      -5.054  -6.647  -3.162  0.00  0.00    +0.145 HD
ENDBRANCH   9  20
BRANCH  10  23
ATOM     23  C   UNL     1      -4.832  -4.425  -2.428  0.00  0.00    +0.101 C 
ATOM     24  N   UNL     1      -5.027  -3.879  -3.405  0.00  0.00    -0.191 NA
ENDBRANCH  10  23
BRANCH   5  25
ATOM     25  O   UNL     1      -4.972  -7.505   4.644  0.00  0.00    -0.422 OA
BRANCH  25  26
ATOM     26  C   UNL     1      -6.166  -7.468   5.266  0.00  0.00    +0.344 C 
ATOM     27  O   UNL     1      -7.089  -6.851   4.774  0.00  0.00    -0.245 OA
BRANCH  26  28
ATOM     28  C   UNL     1      -6.354  -8.180   6.547  0.00  0.00    +0.059 A 
ATOM     29  C   UNL     1      -5.293  -8.886   7.118  0.00  0.00    +0.016 A 
ATOM     30  C   UNL     1      -5.474  -9.548   8.314  0.00  0.00    +0.021 A 
ATOM     31  C   UNL     1      -6.705  -9.514   8.948  0.00  0.00    +0.041 A 
ATOM     32  C   UNL     1      -7.761  -8.816   8.386  0.00  0.00    +0.021 A 
ATOM     33  C   UNL     1      -7.591  -8.144   7.194  0.00  0.00    +0.016 A 
ATOM     34 CL   UNL     1      -6.926 -10.351  10.453  0.00  0.00    -0.084 Cl
ENDBRANCH  26  28
ENDBRANCH  25  26
ENDBRANCH   5  25
TORSDOF 8
