REMARK  Name = ZINC24979787
REMARK  4 active torsions:
REMARK  status: ('A' for Active; 'I' for Inactive)
REMARK    1  A    between atoms: C_1  and  C_2
REMARK    2  A    between atoms: C_2  and  C_4
REMARK    3  A    between atoms: C_2  and  N_14
REMARK    4  A    between atoms: N_14  and  C_15
REMARK                            x       y       z     vdW  Elec       q    Type
REMARK                         _______ _______ _______ _____ _____    ______ ____
ROOT
ATOM      1  N   UNL     1       0.696  -0.419  -1.216  0.00  0.00    -0.346 N 
ATOM      2  H   UNL     1       1.665  -0.446  -1.224  0.00  0.00    +0.146 HD
ENDROOT
BRANCH   1   3
ATOM      3  C   UNL     1       0.006  -0.608  -2.359  0.00  0.00    +0.086 C 
ATOM      4  C   UNL     1       0.673  -0.954  -3.519  0.00  0.00    +0.112 C 
ATOM      5  C   UNL     1       2.106  -1.298  -3.509  0.00  0.00    +0.258 C 
ATOM      6  O   UNL     1       2.744  -1.287  -2.474  0.00  0.00    -0.270 OA
ATOM      7  N   UNL     1       2.691  -1.627  -4.680  0.00  0.00    -0.236 N 
ATOM      8  C   UNL     1       2.000  -1.643  -5.828  0.00  0.00    +0.313 C 
ATOM      9  O   UNL     1       2.586  -1.948  -6.848  0.00  0.00    -0.252 OA
ATOM     10  N   UNL     1       0.696  -1.342  -5.911  0.00  0.00    -0.236 N 
ATOM     11  C   UNL     1      -0.019  -1.001  -4.819  0.00  0.00    +0.258 C 
ATOM     12  O   UNL     1      -1.203  -0.735  -4.907  0.00  0.00    -0.270 OA
ATOM     13  H   UNL     1       3.634  -1.855  -4.691  0.00  0.00    +0.159 HD
ATOM     14  H   UNL     1       0.256  -1.374  -6.775  0.00  0.00    +0.159 HD
ENDBRANCH   1   3
BRANCH   1  16
ATOM     15  C   UNL     1      -0.341   1.317   0.159  0.00  0.00    +0.028 C 
ATOM     16  C   UNL     1      -0.019  -0.173   0.039  0.00  0.00    +0.073 C 
BRANCH  16  17
ATOM     17  C   UNL     1       0.857  -0.603   1.218  0.00  0.00    -0.010 C 
ATOM     18  C   UNL     1       2.158   0.202   1.206  0.00  0.00    +0.012 C 
ATOM     19  C   UNL     1       3.033  -0.227   2.385  0.00  0.00    -0.010 C 
ATOM     20  C   UNL     1       2.287   0.030   3.695  0.00  0.00    +0.007 C 
ATOM     21  C   UNL     1       0.986  -0.775   3.707  0.00  0.00    -0.010 C 
ATOM     22  C   UNL     1       0.110  -0.346   2.528  0.00  0.00    +0.012 C 
ATOM     23  C   UNL     1       1.307  -2.266   3.587  0.00  0.00    +0.007 C 
ATOM     24  C   UNL     1       2.054  -2.523   2.276  0.00  0.00    -0.010 C 
ATOM     25  C   UNL     1       3.355  -1.718   2.264  0.00  0.00    +0.007 C 
ATOM     26  C   UNL     1       1.178  -2.094   1.098  0.00  0.00    +0.012 C 
ENDBRANCH  16  17
ENDBRANCH   1  16
TORSDOF 3
