REMARK  Name = ZINC41300228
REMARK  6 active torsions:
REMARK  status: ('A' for Active; 'I' for Inactive)
REMARK    1  A    between atoms: C_1  and  C_2
REMARK    2  A    between atoms: C_7  and  C_8
REMARK    3  A    between atoms: N_10  and  N_11
REMARK    4  A    between atoms: C_12  and  C_14
REMARK    5  A    between atoms: C_15  and  C_16
REMARK    6  A    between atoms: C_19  and  N_22
REMARK                            x       y       z     vdW  Elec       q    Type
REMARK                         _______ _______ _______ _____ _____    ______ ____
ROOT
ATOM      1  N   UNL     1      -0.408  -0.076   5.154  0.00  0.00    -0.231 N 
ATOM      2  C   UNL     1       0.017  -0.702   6.269  0.00  0.00    +0.253 C 
ATOM      3  O   UNL     1      -0.153  -1.901   6.397  0.00  0.00    -0.269 OA
ATOM      4  H   UNL     1      -0.272   0.879   5.053  0.00  0.00    +0.173 HD
ENDROOT
BRANCH   1   7
ATOM      5  C   UNL     1      -1.471  -0.178   3.027  0.00  0.00    +0.260 C 
ATOM      6  O   UNL     1      -1.300   1.019   2.899  0.00  0.00    -0.269 OA
ATOM      7  N   UNL     1      -1.046  -0.804   4.142  0.00  0.00    -0.230 N 
ATOM      8  H   UNL     1      -1.182  -1.759   4.243  0.00  0.00    +0.173 HD
BRANCH   5  15
ATOM      9  C   UNL     1      -2.219   1.147   0.566  0.00  0.00    +0.044 C 
ATOM     10  C   UNL     1      -2.510  -0.318   0.767  0.00  0.00    -0.038 A 
ATOM     11  C   UNL     1      -3.132  -1.043  -0.229  0.00  0.00    +0.004 A 
ATOM     12  C   UNL     1      -3.400  -2.388  -0.046  0.00  0.00    +0.000 A 
ATOM     13  C   UNL     1      -3.045  -3.015   1.135  0.00  0.00    +0.001 A 
ATOM     14  C   UNL     1      -2.421  -2.303   2.138  0.00  0.00    +0.013 A 
ATOM     15  C   UNL     1      -2.144  -0.947   1.958  0.00  0.00    +0.041 A 
ENDBRANCH   5  15
ENDBRANCH   1   7
BRANCH   2  16
ATOM     16  C   UNL     1       0.684   0.059   7.328  0.00  0.00    +0.069 C 
ATOM     17  C   UNL     1       1.231  -0.585   8.379  0.00  0.00    +0.013 C 
BRANCH  17  18
ATOM     18  C   UNL     1       1.362  -2.051   8.357  0.00  0.00    -0.025 A 
ATOM     19  C   UNL     1       1.880  -2.693   7.228  0.00  0.00    +0.010 A 
ATOM     20  C   UNL     1       1.999  -4.067   7.216  0.00  0.00    +0.033 A 
ATOM     21  C   UNL     1       1.609  -4.809   8.317  0.00  0.00    +0.126 A 
ATOM     22  C   UNL     1       1.095  -4.180   9.438  0.00  0.00    +0.033 A 
ATOM     23  C   UNL     1       0.974  -2.807   9.467  0.00  0.00    +0.010 A 
BRANCH  21  24
ATOM     24  N   UNL     1       1.740  -6.284   8.295  0.00  0.00    +0.056 N 
ATOM     25  O   UNL     1       2.189  -6.836   7.318  0.00  0.00    -0.126 OA
ATOM     26  O   UNL     1       1.400  -6.935   9.255  0.00  0.00    -0.126 OA
ENDBRANCH  21  24
ENDBRANCH  17  18
ENDBRANCH   2  16
TORSDOF 5
