REMARK  Name = ZINC29870120
REMARK  8 active torsions:
REMARK  status: ('A' for Active; 'I' for Inactive)
REMARK    1  A    between atoms: C_4  and  C_18
REMARK    2  A    between atoms: C_5  and  C_7
REMARK    3  A    between atoms: C_7  and  S_8
REMARK    4  A    between atoms: S_8  and  C_9
REMARK    5  A    between atoms: N_20  and  C_21
REMARK    6  A    between atoms: C_21  and  C_22
REMARK    7  A    between atoms: C_22  and  C_24
REMARK    8  A    between atoms: C_22  and  N_29
REMARK                            x       y       z     vdW  Elec       q    Type
REMARK                         _______ _______ _______ _____ _____    ______ ____
ROOT
ATOM      1  C   UNL     1      -3.077   4.269  -2.488  0.00  0.00    +0.244 C 
ATOM      2  O   UNL     1      -2.491   4.061  -3.532  0.00  0.00    -0.270 OA
ATOM      3  N   UNL     1      -2.708   3.619  -1.367  0.00  0.00    -0.312 N 
ATOM      4  H   UNL     1      -3.238   3.807  -0.422  0.00  0.00    +0.149 HD
ENDROOT
BRANCH   1   8
ATOM      5  C   UNL     1      -6.291   7.044  -2.374  0.00  0.00    +0.000 A 
ATOM      6  C   UNL     1      -5.870   6.429  -1.208  0.00  0.00    +0.001 A 
ATOM      7  C   UNL     1      -4.830   5.524  -1.239  0.00  0.00    +0.013 A 
ATOM      8  C   UNL     1      -4.195   5.235  -2.448  0.00  0.00    +0.041 A 
ATOM      9  C   UNL     1      -4.625   5.859  -3.621  0.00  0.00    -0.025 A 
ATOM     10  C   UNL     1      -5.669   6.759  -3.576  0.00  0.00    +0.005 A 
BRANCH   9  11
ATOM     11  C   UNL     1      -3.949   5.550  -4.932  0.00  0.00    +0.114 C 
BRANCH  11  12
ATOM     12  S   UNL     1      -4.636   4.023  -5.619  0.00  0.00    -0.062 S 
BRANCH  12  13
ATOM     13  C   UNL     1      -3.694   3.905  -7.104  0.00  0.00    +0.258 A 
ATOM     14  N   UNL     1      -3.807   2.948  -7.990  0.00  0.00    -0.203 NA
ATOM     15  C   UNL     1      -2.926   3.183  -9.001  0.00  0.00    +0.110 A 
ATOM     16  C   UNL     1      -2.616   2.512 -10.184  0.00  0.00    +0.031 A 
ATOM     17  C   UNL     1      -1.648   3.018 -11.024  0.00  0.00    +0.002 A 
ATOM     18  C   UNL     1      -0.981   4.189 -10.699  0.00  0.00    +0.004 A 
ATOM     19  C   UNL     1      -1.278   4.863  -9.531  0.00  0.00    +0.048 A 
ATOM     20  C   UNL     1      -2.249   4.368  -8.676  0.00  0.00    +0.156 A 
ATOM     21  O   UNL     1      -2.757   4.787  -7.494  0.00  0.00    -0.431 OA
ENDBRANCH  12  13
ENDBRANCH  11  12
ENDBRANCH   9  11
ENDBRANCH   1   8
BRANCH   3  22
ATOM     22  C   UNL     1      -1.600   2.661  -1.406  0.00  0.00    +0.097 C 
BRANCH  22  23
ATOM     23  C   UNL     1      -1.387   2.069  -0.012  0.00  0.00    +0.016 C 
BRANCH  23  24
ATOM     24  N   UNL     1      -1.188   3.155   0.957  0.00  0.00    +0.387 N 
ATOM     25  C   UNL     1      -0.066   4.015   0.560  0.00  0.00    -0.078 C 
ATOM     26  C   UNL     1       0.020   5.214   1.507  0.00  0.00    -0.019 C 
ATOM     27  C   UNL     1       0.219   4.713   2.940  0.00  0.00    -0.004 C 
ATOM     28  C   UNL     1      -0.938   3.781   3.312  0.00  0.00    -0.019 C 
ATOM     29  C   UNL     1      -0.996   2.624   2.312  0.00  0.00    -0.078 C 
ATOM     30  H   UNL     1      -2.098   3.774   0.965  0.00  0.00    -0.081 HD
ENDBRANCH  23  24
BRANCH  23  31
ATOM     31  C   UNL     1      -0.172   1.178  -0.024  0.00  0.00    +0.093 A 
ATOM     32  C   UNL     1      -0.181  -0.165   0.048  0.00  0.00    +0.043 A 
ATOM     33  C   UNL     1       1.168  -0.587  -0.002  0.00  0.00    +0.041 A 
ATOM     34  C   UNL     1       1.920   0.524  -0.101  0.00  0.00    +0.195 A 
ATOM     35  O   UNL     1       1.103   1.590  -0.114  0.00  0.00    -0.469 OA
ENDBRANCH  23  31
ENDBRANCH  22  23
ENDBRANCH   3  22
TORSDOF 8
