REMARK  Name = ZINC26146528
REMARK  9 active torsions:
REMARK  status: ('A' for Active; 'I' for Inactive)
REMARK    1  A    between atoms: C_1  and  C_2
REMARK    2  A    between atoms: N_5  and  C_11
REMARK    3  A    between atoms: C_7  and  C_10
REMARK    4  A    between atoms: C_11  and  C_12
REMARK    5  A    between atoms: C_12  and  N_13
REMARK    6  A    between atoms: N_13  and  C_14
REMARK    7  A    between atoms: C_17  and  S_23
REMARK    8  A    between atoms: C_19  and  N_20
REMARK    9  A    between atoms: S_23  and  C_26
REMARK                            x       y       z     vdW  Elec       q    Type
REMARK                         _______ _______ _______ _____ _____    ______ ____
ROOT
ATOM      1  C   UNL     1      -0.155   1.905   6.138  0.00  0.00    +0.058 A 
ATOM      2  C   UNL     1      -1.059   2.956   6.231  0.00  0.00    +0.027 A 
ATOM      3  C   UNL     1      -1.618   3.278   7.452  0.00  0.00    +0.029 A 
ATOM      4  C   UNL     1      -1.278   2.556   8.582  0.00  0.00    +0.090 A 
ATOM      5  C   UNL     1      -0.379   1.509   8.493  0.00  0.00    +0.061 A 
ATOM      6  C   UNL     1       0.179   1.178   7.274  0.00  0.00    +0.149 A 
ENDROOT
BRANCH   4   7
ATOM      7  S   UNL     1      -1.993   2.971  10.138  0.00  0.00    -0.006 S 
ATOM      8  O   UNL     1      -1.048   2.526  11.101  0.00  0.00    -0.170 OA
ATOM      9  O   UNL     1      -2.324   4.348  10.030  0.00  0.00    -0.170 OA
ATOM     10  C   UNL     1      -3.504   1.972  10.238  0.00  0.00    +0.200 C 
ENDBRANCH   4   7
BRANCH   6  11
ATOM     11  N   UNL     1       1.137   0.054   7.178  0.00  0.00    +0.058 N 
ATOM     12  O   UNL     1       1.124  -0.676   6.204  0.00  0.00    -0.126 OA
ATOM     13  O   UNL     1       1.939  -0.141   8.074  0.00  0.00    -0.126 OA
ENDBRANCH   6  11
BRANCH   1  14
ATOM     14  N   UNL     1       0.412   1.577   4.905  0.00  0.00    -0.341 N 
ATOM     15  H   UNL     1       1.199   0.810   4.848  0.00  0.00    +0.146 HD
BRANCH  14  16
ATOM     16  C   UNL     1      -0.041   2.253   3.687  0.00  0.00    +0.117 C 
BRANCH  16  17
ATOM     17  C   UNL     1       0.736   1.713   2.484  0.00  0.00    +0.103 C 
BRANCH  17  21
ATOM     18  C   UNL     1      -0.763   2.186  -1.467  0.00  0.00    +0.039 C 
ATOM     19  C   UNL     1       0.619   2.753  -1.134  0.00  0.00    +0.130 C 
ATOM     20  C   UNL     1       1.160   2.075   0.127  0.00  0.00    +0.115 C 
ATOM     21  N   UNL     1       0.282   2.392   1.263  0.00  0.00    -0.296 NA
ATOM     22  C   UNL     1       0.197   3.845   1.468  0.00  0.00    +0.115 C 
ATOM     23  C   UNL     1      -0.334   4.505   0.193  0.00  0.00    +0.130 C 
ATOM     24  O   UNL     1       0.515   4.161  -0.906  0.00  0.00    -0.371 OA
ATOM     25  C   UNL     1      -0.349   6.025   0.371  0.00  0.00    +0.039 C 
ENDBRANCH  17  21
ENDBRANCH  16  17
ENDBRANCH  14  16
ENDBRANCH   1  14
TORSDOF 6
