REMARK  Name = ZINC01248619
REMARK  7 active torsions:
REMARK  status: ('A' for Active; 'I' for Inactive)
REMARK    1  A    between atoms: C_1  and  N_2
REMARK    2  A    between atoms: N_2  and  C_3
REMARK    3  A    between atoms: N_2  and  C_4
REMARK    4  A    between atoms: C_7  and  C_10
REMARK    5  A    between atoms: N_11  and  N_12
REMARK    6  A    between atoms: C_18  and  C_21
REMARK    7  A    between atoms: N_23  and  C_24
REMARK                            x       y       z     vdW  Elec       q    Type
REMARK                         _______ _______ _______ _____ _____    ______ ____
ROOT
ATOM      1  N   UNL     1       3.490   0.907  -1.865  0.00  0.00    -0.217 N 
ATOM      2  C   UNL     1       2.171   1.150  -1.612  0.00  0.00    +0.166 C 
ATOM      3  N   UNL     1       1.286   0.965  -2.569  0.00  0.00    -0.158 NA
ATOM      4  C   UNL     1      -0.010   1.144  -2.478  0.00  0.00    +0.240 C 
ATOM      5  O   UNL     1      -0.678   0.921  -3.470  0.00  0.00    -0.274 OA
ATOM      6  C   UNL     1      -0.731   1.602  -1.247  0.00  0.00    +0.122 C 
ATOM      7  C   UNL     1      -0.018   1.082   0.006  0.00  0.00    +0.149 C 
ATOM      8  S   UNL     1       1.685   1.706  -0.012  0.00  0.00    -0.078 S 
ATOM      9  H   UNL     1       4.150   1.041  -1.167  0.00  0.00    +0.176 HD
ENDROOT
BRANCH   7  10
ATOM     10  C   UNL     1      -0.729   1.579   1.239  0.00  0.00    +0.231 C 
ATOM     11  O   UNL     1      -1.323   2.636   1.212  0.00  0.00    -0.274 OA
ATOM     12  N   UNL     1      -0.704   0.848   2.371  0.00  0.00    -0.285 N 
ATOM     13  H   UNL     1      -0.287  -0.028   2.374  0.00  0.00    +0.155 HD
BRANCH  12  14
ATOM     14  C   UNL     1      -1.280   1.352   3.543  0.00  0.00    +0.034 A 
ATOM     15  C   UNL     1      -0.712   1.066   4.777  0.00  0.00    +0.025 A 
ATOM     16  C   UNL     1      -1.280   1.569   5.931  0.00  0.00    +0.022 A 
ATOM     17  C   UNL     1      -2.421   2.349   5.859  0.00  0.00    +0.041 A 
ATOM     18  C   UNL     1      -2.992   2.631   4.631  0.00  0.00    +0.022 A 
ATOM     19  C   UNL     1      -2.425   2.135   3.473  0.00  0.00    +0.025 A 
ATOM     20 CL   UNL     1      -3.135   2.974   7.312  0.00  0.00    -0.084 Cl
ENDBRANCH  12  14
ENDBRANCH   7  10
BRANCH   1  22
ATOM     21  C   UNL     1       5.145   0.234  -3.373  0.00  0.00    +0.138 C 
ATOM     22  N   UNL     1       3.890   0.465  -3.132  0.00  0.00    -0.188 NA
BRANCH  21  26
ATOM     23  C   UNL     1       6.359  -1.107  -7.214  0.00  0.00    +0.029 A 
ATOM     24  C   UNL     1       7.307  -0.916  -6.214  0.00  0.00    +0.024 A 
ATOM     25  C   UNL     1       6.917  -0.481  -4.967  0.00  0.00    +0.011 A 
ATOM     26  C   UNL     1       5.566  -0.231  -4.706  0.00  0.00    -0.005 A 
ATOM     27  C   UNL     1       4.616  -0.430  -5.712  0.00  0.00    +0.011 A 
ATOM     28  C   UNL     1       5.014  -0.860  -6.958  0.00  0.00    +0.024 A 
BRANCH  23  30
ATOM     29  C   UNL     1       8.174  -1.807  -8.747  0.00  0.00    +0.129 C 
ATOM     30  N   UNL     1       6.758  -1.547  -8.476  0.00  0.00    -0.336 N 
ATOM     31  C   UNL     1       5.761  -1.749  -9.530  0.00  0.00    +0.129 C 
ENDBRANCH  23  30
ENDBRANCH  21  26
ENDBRANCH   1  22
TORSDOF 5
