REMARK  Name = ZINC51341699
REMARK  8 active torsions:
REMARK  status: ('A' for Active; 'I' for Inactive)
REMARK    1  A    between atoms: C_1  and  C_2
REMARK    2  A    between atoms: C_2  and  C_27
REMARK    3  A    between atoms: C_4  and  N_10
REMARK    4  A    between atoms: C_6  and  C_8
REMARK    5  A    between atoms: C_6  and  C_9
REMARK    6  A    between atoms: C_11  and  C_13
REMARK    7  A    between atoms: C_16  and  C_18
REMARK    8  A    between atoms: C_21  and  N_24
REMARK                            x       y       z     vdW  Elec       q    Type
REMARK                         _______ _______ _______ _____ _____    ______ ____
ROOT
ATOM      1  N   UNL     1      -3.540  -0.922   1.007  0.00  0.00    -0.307 N 
ATOM      2  C   UNL     1      -4.546  -0.473   1.784  0.00  0.00    +0.263 C 
ATOM      3  O   UNL     1      -4.333   0.387   2.618  0.00  0.00    -0.269 OA
ATOM      4  H   UNL     1      -3.710  -1.608   0.342  0.00  0.00    +0.149 HD
ENDROOT
BRANCH   1   8
ATOM      5  C   UNL     1      -0.019   1.528   0.010  0.00  0.00    -0.010 C 
ATOM      6  C   UNL     1       0.002  -0.004   0.002  0.00  0.00    -0.072 C 
ATOM      7  C   UNL     1      -1.419  -0.538  -0.145  0.00  0.00    +0.009 C 
ATOM      8  C   UNL     1      -2.188  -0.373   1.166  0.00  0.00    +0.071 C 
ATOM      9  C   UNL     1      -1.451  -1.155   2.253  0.00  0.00    +0.009 C 
ATOM     10  C   UNL     1      -0.030  -0.627   2.418  0.00  0.00    -0.072 C 
ATOM     11  N   UNL     1       0.697  -0.529   1.164  0.00  0.00    +0.386 N 
ATOM     12  C   UNL     1       0.730  -1.621   3.326  0.00  0.00    -0.010 C 
ATOM     13  C   UNL     1      -0.059   0.719   3.151  0.00  0.00    -0.010 C 
ATOM     14  C   UNL     1       0.791  -0.440  -1.254  0.00  0.00    -0.010 C 
ATOM     15  H   UNL     1       1.056  -1.460   0.929  0.00  0.00    -0.084 HD
ATOM     16  H   UNL     1       1.534   0.040   1.322  0.00  0.00    -0.084 HD
ENDBRANCH   1   8
BRANCH   2  17
ATOM     17  C   UNL     1      -5.902  -1.024   1.624  0.00  0.00    +0.133 A 
ATOM     18  C   UNL     1      -6.932  -0.572   2.406  0.00  0.00    +0.080 A 
ATOM     19  S   UNL     1      -8.235  -1.484   1.855  0.00  0.00    -0.075 S 
ATOM     20  C   UNL     1      -7.374  -2.431   0.612  0.00  0.00    +0.109 A 
ATOM     21  N   UNL     1      -6.145  -1.962   0.718  0.00  0.00    -0.234 NA
BRANCH  20  22
ATOM     22  C   UNL     1      -7.901  -3.468  -0.302  0.00  0.00    +0.007 A 
ATOM     23  C   UNL     1      -7.050  -4.101  -1.208  0.00  0.00    +0.013 A 
ATOM     24  C   UNL     1      -7.548  -5.068  -2.058  0.00  0.00    +0.033 A 
ATOM     25  C   UNL     1      -8.888  -5.409  -2.014  0.00  0.00    +0.126 A 
ATOM     26  C   UNL     1      -9.737  -4.784  -1.118  0.00  0.00    +0.033 A 
ATOM     27  C   UNL     1      -9.251  -3.820  -0.259  0.00  0.00    +0.013 A 
BRANCH  25  28
ATOM     28  N   UNL     1      -9.415  -6.446  -2.929  0.00  0.00    +0.056 N 
ATOM     29  O   UNL     1      -8.675  -6.993  -3.713  0.00  0.00    -0.126 OA
ATOM     30  O   UNL     1     -10.586  -6.745  -2.892  0.00  0.00    -0.126 OA
ENDBRANCH  25  28
ENDBRANCH  20  22
ENDBRANCH   2  17
TORSDOF 4
