REMARK  Name = ZINC36217173
REMARK  9 active torsions:
REMARK  status: ('A' for Active; 'I' for Inactive)
REMARK    1  A    between atoms: C_1  and  C_2
REMARK    2  A    between atoms: C_6  and  C_8
REMARK    3  A    between atoms: C_8  and  N_9
REMARK    4  A    between atoms: C_10  and  C_31
REMARK    5  A    between atoms: C_12  and  C_17
REMARK    6  A    between atoms: C_20  and  N_23
REMARK    7  A    between atoms: C_24  and  C_26
REMARK    8  A    between atoms: N_33  and  C_34
REMARK    9  A    between atoms: C_34  and  C_35
REMARK                            x       y       z     vdW  Elec       q    Type
REMARK                         _______ _______ _______ _____ _____    ______ ____
ROOT
ATOM      1  N   UNL     1       1.426  -3.098   2.883  0.00  0.00    -0.248 N 
ATOM      2  C   UNL     1       2.266  -4.257   2.521  0.00  0.00    +0.210 C 
ATOM      3  C   UNL     1       3.432  -4.144   3.531  0.00  0.00    +0.238 C 
ATOM      4  O   UNL     1       3.412  -2.741   3.858  0.00  0.00    -0.440 OA
ATOM      5  C   UNL     1       2.162  -2.286   3.664  0.00  0.00    +0.405 C 
ATOM      6  O   UNL     1       1.741  -1.253   4.145  0.00  0.00    -0.226 OA
ENDROOT
BRANCH   3   7
ATOM      7  C   UNL     1       4.740  -4.528   2.888  0.00  0.00    -0.005 A 
ATOM      8  C   UNL     1       5.465  -3.585   2.183  0.00  0.00    +0.009 A 
ATOM      9  C   UNL     1       6.664  -3.934   1.592  0.00  0.00    +0.024 A 
ATOM     10  C   UNL     1       7.142  -5.233   1.709  0.00  0.00    +0.034 A 
ATOM     11  C   UNL     1       6.412  -6.177   2.419  0.00  0.00    +0.024 A 
ATOM     12  C   UNL     1       5.216  -5.821   3.010  0.00  0.00    +0.009 A 
BRANCH  10  13
ATOM     13  N   UNL     1       8.355  -5.590   1.112  0.00  0.00    -0.279 N 
ATOM     14  C   UNL     1       9.166  -6.482   1.714  0.00  0.00    +0.284 C 
ATOM     15  O   UNL     1       8.805  -7.041   2.733  0.00  0.00    -0.266 OA
ATOM     16  H   UNL     1       8.614  -5.194   0.265  0.00  0.00    +0.155 HD
BRANCH  14  17
ATOM     17  C   UNL     1      10.482  -6.780   1.141  0.00  0.00    +0.189 A 
ATOM     18  C   UNL     1      11.395  -7.663   1.644  0.00  0.00    +0.054 A 
ATOM     19  C   UNL     1      12.503  -7.631   0.784  0.00  0.00    +0.042 A 
ATOM     20  C   UNL     1      12.222  -6.742  -0.194  0.00  0.00    +0.196 A 
ATOM     21  O   UNL     1      11.002  -6.235   0.022  0.00  0.00    -0.458 OA
ENDBRANCH  14  17
ENDBRANCH  10  13
ENDBRANCH   3   7
BRANCH   2  22
ATOM     22  C   UNL     1       2.765  -4.135   1.103  0.00  0.00    +0.238 C 
ATOM     23  O   UNL     1       2.755  -3.058   0.548  0.00  0.00    -0.274 OA
ATOM     24  N   UNL     1       3.221  -5.224   0.454  0.00  0.00    -0.311 N 
ATOM     25  H   UNL     1       3.229  -6.087   0.899  0.00  0.00    +0.149 HD
BRANCH  24  26
ATOM     26  C   UNL     1       3.706  -5.106  -0.923  0.00  0.00    +0.135 C 
BRANCH  26  27
ATOM     27  C   UNL     1       4.163  -6.478  -1.423  0.00  0.00    +0.135 C 
ATOM     28  C   UNL     1       4.787  -6.343  -2.828  0.00  0.00    +0.035 C 
ATOM     29  C   UNL     1       4.263  -7.617  -3.546  0.00  0.00    +0.031 C 
ATOM     30  C   UNL     1       2.863  -7.763  -2.898  0.00  0.00    +0.160 C 
ATOM     31  O   UNL     1       3.037  -7.357  -1.529  0.00  0.00    -0.375 OA
ENDBRANCH  26  27
ENDBRANCH  24  26
ENDBRANCH   2  22
BRANCH   1  32
ATOM     32  C   UNL     1       0.041  -2.871   2.463  0.00  0.00    +0.147 C 
BRANCH  32  38
ATOM     33  C   UNL     1      -0.029   1.490   0.008  0.00  0.00    +0.044 C 
ATOM     34  C   UNL     1      -0.005  -0.017  -0.008  0.00  0.00    -0.050 A 
ATOM     35  C   UNL     1       0.006  -0.695  -1.213  0.00  0.00    +0.003 A 
ATOM     36  C   UNL     1       0.028  -2.077  -1.228  0.00  0.00    +0.001 A 
ATOM     37  C   UNL     1       0.039  -2.781  -0.038  0.00  0.00    +0.005 A 
ATOM     38  C   UNL     1       0.029  -2.103   1.166  0.00  0.00    -0.030 A 
ATOM     39  C   UNL     1       0.011  -0.721   1.181  0.00  0.00    +0.008 A 
ENDBRANCH  32  38
ENDBRANCH   1  32
TORSDOF 8
