REMARK  Name = ZINC07003249
REMARK  7 active torsions:
REMARK  status: ('A' for Active; 'I' for Inactive)
REMARK    1  A    between atoms: C_1  and  C_2
REMARK    2  A    between atoms: C_2  and  C_4
REMARK    3  A    between atoms: C_2  and  N_16
REMARK    4  A    between atoms: N_6  and  C_7
REMARK    5  A    between atoms: C_12  and  N_13
REMARK    6  A    between atoms: N_16  and  C_17
REMARK    7  A    between atoms: C_20  and  N_23
REMARK                            x       y       z     vdW  Elec       q    Type
REMARK                         _______ _______ _______ _____ _____    ______ ____
ROOT
ATOM      1  C   UNL     1       0.008   1.562   0.029  0.00  0.00    +0.038 C 
ATOM      2  C   UNL     1       0.010   0.032   0.009  0.00  0.00    +0.154 C 
ENDROOT
BRANCH   2   3
ATOM      3  C   UNL     1       0.731  -0.485   1.227  0.00  0.00    +0.237 C 
ATOM      4  O   UNL     1       1.718  -1.179   1.099  0.00  0.00    -0.273 OA
ATOM      5  N   UNL     1       0.280  -0.176   2.459  0.00  0.00    -0.282 N 
ATOM      6  H   UNL     1      -0.469   0.431   2.563  0.00  0.00    +0.155 HD
BRANCH   5   7
ATOM      7  C   UNL     1       0.892  -0.732   3.588  0.00  0.00    +0.064 A 
ATOM      8  C   UNL     1       2.263  -0.956   3.597  0.00  0.00    +0.025 A 
ATOM      9  C   UNL     1       2.864  -1.504   4.712  0.00  0.00    +0.002 A 
ATOM     10  C   UNL     1       2.103  -1.830   5.820  0.00  0.00    +0.002 A 
ATOM     11  C   UNL     1       0.739  -1.609   5.814  0.00  0.00    +0.034 A 
ATOM     12  C   UNL     1       0.132  -1.055   4.704  0.00  0.00    +0.147 A 
BRANCH  12  13
ATOM     13  N   UNL     1      -1.328  -0.811   4.701  0.00  0.00    +0.058 N 
ATOM     14  O   UNL     1      -1.974  -1.001   5.705  0.00  0.00    -0.126 OA
ATOM     15  O   UNL     1      -1.874  -0.423   3.695  0.00  0.00    -0.126 OA
ENDBRANCH  12  13
ENDBRANCH   5   7
ENDBRANCH   2   3
BRANCH   2  16
ATOM     16  N   UNL     1       0.692  -0.440  -1.199  0.00  0.00    -0.333 N 
ATOM     17  H   UNL     1       1.634  -0.669  -1.166  0.00  0.00    +0.147 HD
BRANCH  16  18
ATOM     18  C   UNL     1      -0.014  -0.558  -2.398  0.00  0.00    +0.028 A 
ATOM     19  C   UNL     1      -1.361  -0.225  -2.449  0.00  0.00    +0.025 A 
ATOM     20  C   UNL     1      -2.056  -0.343  -3.636  0.00  0.00    +0.023 A 
ATOM     21  C   UNL     1      -1.413  -0.794  -4.774  0.00  0.00    +0.014 A 
ATOM     22  C   UNL     1      -0.071  -1.127  -4.727  0.00  0.00    +0.023 A 
ATOM     23  C   UNL     1       0.631  -1.005  -3.545  0.00  0.00    +0.025 A 
BRANCH  21  24
ATOM     24  N   UNL     1      -2.119  -0.913  -5.974  0.00  0.00    -0.393 NA
ATOM     25  C   UNL     1      -2.090  -2.311  -6.421  0.00  0.00    +0.085 C 
ATOM     26  C   UNL     1      -2.930  -2.463  -7.691  0.00  0.00    +0.017 C 
ATOM     27  C   UNL     1      -2.354  -1.563  -8.788  0.00  0.00    +0.003 C 
ATOM     28  C   UNL     1      -2.320  -0.117  -8.283  0.00  0.00    +0.017 C 
ATOM     29  C   UNL     1      -1.503  -0.053  -6.991  0.00  0.00    +0.085 C 
ATOM     30  H   UNL     1      -3.076  -0.628  -5.830  0.00  0.00    +0.126 HD
ENDBRANCH  21  24
ENDBRANCH  16  18
ENDBRANCH   2  16
TORSDOF 6
