REMARK  Name = ZINC35543485
REMARK  7 active torsions:
REMARK  status: ('A' for Active; 'I' for Inactive)
REMARK    1  A    between atoms: C_1  and  N_2
REMARK    2  A    between atoms: N_2  and  C_3
REMARK    3  A    between atoms: N_2  and  C_4
REMARK    4  A    between atoms: C_4  and  C_5
REMARK    5  A    between atoms: C_5  and  N_6
REMARK    6  A    between atoms: C_7  and  C_9
REMARK    7  A    between atoms: C_25  and  C_27
REMARK                            x       y       z     vdW  Elec       q    Type
REMARK                         _______ _______ _______ _____ _____    ______ ____
ROOT
ATOM      1  C   UNL     1       0.884  -0.395   6.196  0.00  0.00    +0.101 C 
ATOM      2  C   UNL     1       2.130   0.489   6.198  0.00  0.00    +0.051 C 
ATOM      3  C   UNL     1       2.818   0.352   7.531  0.00  0.00    -0.026 A 
ATOM      4  C   UNL     1       4.189   0.520   7.612  0.00  0.00    +0.005 A 
ATOM      5  C   UNL     1       4.831   0.385   8.829  0.00  0.00    +0.000 A 
ATOM      6  C   UNL     1       4.105   0.081   9.967  0.00  0.00    +0.002 A 
ATOM      7  C   UNL     1       2.737  -0.084   9.890  0.00  0.00    +0.023 A 
ATOM      8  C   UNL     1       2.087   0.057   8.667  0.00  0.00    +0.033 A 
ATOM      9  N   UNL     1       0.690  -0.091   8.628  0.00  0.00    -0.323 N 
ATOM     10  C   UNL     1      -0.027  -0.015   7.367  0.00  0.00    +0.103 C 
ATOM     11  C   UNL     1      -1.261  -0.902   7.321  0.00  0.00    +0.131 C 
ATOM     12  N   UNL     1      -1.908  -1.041   8.611  0.00  0.00    -0.292 N 
ATOM     13  C   UNL     1      -1.161  -1.208   9.847  0.00  0.00    +0.127 C 
ATOM     14  C   UNL     1       0.016  -0.263   9.914  0.00  0.00    +0.124 C 
ATOM     15  C   UNL     1      -3.254  -1.014   8.667  0.00  0.00    +0.282 C 
ATOM     16  O   UNL     1      -3.899  -0.756   7.668  0.00  0.00    -0.267 OA
ENDROOT
BRANCH  15  17
ATOM     17  C   UNL     1      -3.942  -1.297   9.931  0.00  0.00    +0.189 A 
ATOM     18  C   UNL     1      -5.281  -1.165  10.163  0.00  0.00    +0.054 A 
ATOM     19  C   UNL     1      -5.498  -1.542  11.498  0.00  0.00    +0.042 A 
ATOM     20  C   UNL     1      -4.297  -1.881  12.015  0.00  0.00    +0.196 A 
ATOM     21  O   UNL     1      -3.362  -1.738  11.067  0.00  0.00    -0.458 OA
ENDBRANCH  15  17
BRANCH   1  23
ATOM     22  N   UNL     1       0.743  -0.485   3.728  0.00  0.00    -0.317 N 
ATOM     23  C   UNL     1       0.139  -0.207   4.900  0.00  0.00    +0.218 C 
ATOM     24  O   UNL     1      -1.006   0.196   4.912  0.00  0.00    -0.275 OA
ATOM     25  H   UNL     1       1.658  -0.807   3.719  0.00  0.00    +0.149 HD
BRANCH  22  26
ATOM     26  C   UNL     1       0.018  -0.301   2.468  0.00  0.00    +0.085 C 
BRANCH  26  27
ATOM     27  C   UNL     1       0.925  -0.686   1.298  0.00  0.00    -0.061 C 
BRANCH  27  29
ATOM     28  C   UNL     1      -0.099   0.924  -0.156  0.00  0.00    -0.097 C 
ATOM     29  N   UNL     1       0.198  -0.502   0.034  0.00  0.00    +0.377 N 
ATOM     30  C   UNL     1       1.025  -0.983  -1.081  0.00  0.00    -0.097 C 
ATOM     31  H   UNL     1      -0.664  -1.024   0.063  0.00  0.00    -0.083 HD
ENDBRANCH  27  29
ENDBRANCH  26  27
ENDBRANCH  22  26
ENDBRANCH   1  23
TORSDOF 5
