REMARK  Name = ZINC32825881
REMARK  8 active torsions:
REMARK  status: ('A' for Active; 'I' for Inactive)
REMARK    1  A    between atoms: C_1  and  C_2
REMARK    2  A    between atoms: N_4  and  C_5
REMARK    3  A    between atoms: C_5  and  C_6
REMARK    4  A    between atoms: C_9  and  S_11
REMARK    5  A    between atoms: S_11  and  N_14
REMARK    6  A    between atoms: N_14  and  C_15
REMARK    7  A    between atoms: C_15  and  C_16
REMARK    8  A    between atoms: C_16  and  C_22
REMARK                            x       y       z     vdW  Elec       q    Type
REMARK                         _______ _______ _______ _____ _____    ______ ____
ROOT
ATOM      1  N   UNL     1       2.675  -1.986   0.003  0.00  0.00    -0.189 NA
ATOM      2  H   UNL     1       1.887  -2.466  -0.596  0.00  0.00    +0.148 HD
ENDROOT
BRANCH   1   3
ATOM      3  S   UNL     1       3.516  -2.890   1.107  0.00  0.00    +0.065 S 
ATOM      4  O   UNL     1       3.139  -4.243   0.895  0.00  0.00    -0.153 OA
ATOM      5  O   UNL     1       4.867  -2.456   1.043  0.00  0.00    -0.153 OA
BRANCH   3   9
ATOM      6  C   UNL     1       2.349  -1.441   5.142  0.00  0.00    +0.009 A 
ATOM      7  C   UNL     1       1.608  -2.471   4.666  0.00  0.00    +0.015 A 
ATOM      8  C   UNL     1       1.901  -2.987   3.417  0.00  0.00    +0.037 A 
ATOM      9  C   UNL     1       2.920  -2.446   2.705  0.00  0.00    +0.143 A 
ATOM     10  S   UNL     1       3.507  -1.173   3.810  0.00  0.00    -0.072 S 
BRANCH   6  11
ATOM     11  C   UNL     1       2.229  -0.714   6.457  0.00  0.00    +0.146 C 
BRANCH  11  15
ATOM     12  C   UNL     1       3.983  -1.578   9.748  0.00  0.00    +0.109 C 
ATOM     13  C   UNL     1       3.120  -0.897   8.717  0.00  0.00    +0.210 C 
ATOM     14  O   UNL     1       2.471   0.082   9.021  0.00  0.00    -0.276 OA
ATOM     15  N   UNL     1       3.069  -1.376   7.459  0.00  0.00    -0.311 N 
ATOM     16  H   UNL     1       3.657  -2.264   7.184  0.00  0.00    +0.149 HD
ENDBRANCH  11  15
ENDBRANCH   6  11
ENDBRANCH   3   9
ENDBRANCH   1   3
BRANCH   1  17
ATOM     17  C   UNL     1       2.828  -0.529  -0.019  0.00  0.00    +0.117 C 
BRANCH  17  18
ATOM     18  C   UNL     1       2.254   0.024  -1.325  0.00  0.00    +0.010 C 
ATOM     19  C   UNL     1       0.747  -0.239  -1.372  0.00  0.00    +0.013 C 
ATOM     20  C   UNL     1       0.072   0.451  -0.186  0.00  0.00    +0.001 C 
ATOM     21  C   UNL     1       0.329   1.958  -0.258  0.00  0.00    +0.000 C 
ATOM     22  C   UNL     1       1.835   2.221  -0.211  0.00  0.00    +0.001 C 
ATOM     23  C   UNL     1       2.511   1.530  -1.397  0.00  0.00    +0.013 C 
BRANCH  18  24
ATOM     24  C   UNL     1       2.919  -0.656  -2.494  0.00  0.00    -0.040 A 
ATOM     25  C   UNL     1       2.158  -1.355  -3.412  0.00  0.00    +0.004 A 
ATOM     26  C   UNL     1       2.768  -1.975  -4.486  0.00  0.00    +0.000 A 
ATOM     27  C   UNL     1       4.140  -1.905  -4.637  0.00  0.00    +0.000 A 
ATOM     28  C   UNL     1       4.902  -1.210  -3.716  0.00  0.00    +0.000 A 
ATOM     29  C   UNL     1       4.292  -0.586  -2.644  0.00  0.00    +0.004 A 
ENDBRANCH  18  24
ENDBRANCH  17  18
ENDBRANCH   1  17
TORSDOF 7
