REMARK  Name = ZINC21236882
REMARK  9 active torsions:
REMARK  status: ('A' for Active; 'I' for Inactive)
REMARK    1  A    between atoms: C_1  and  C_2
REMARK    2  A    between atoms: C_2  and  O_3
REMARK    3  A    between atoms: O_3  and  C_4
REMARK    4  A    between atoms: C_6  and  C_14
REMARK    5  A    between atoms: C_8  and  N_11
REMARK    6  A    between atoms: C_9  and  O_10
REMARK    7  A    between atoms: C_19  and  C_24
REMARK    8  A    between atoms: C_29  and  O_30
REMARK    9  A    between atoms: O_30  and  C_31
REMARK                            x       y       z     vdW  Elec       q    Type
REMARK                         _______ _______ _______ _____ _____    ______ ____
ROOT
ATOM      1  C   UNL     1      -1.280   1.661   0.017  0.00  0.00    +0.136 C 
ATOM      2  C   UNL     1      -1.434   2.499  -1.223  0.00  0.00    +0.036 C 
ATOM      3  C   UNL     1      -0.476   2.739  -2.136  0.00  0.00    +0.017 C 
ATOM      4  C   UNL     1      -0.771   3.598  -3.354  0.00  0.00    +0.060 C 
ATOM      5  C   UNL     1      -1.797   4.672  -2.998  0.00  0.00    +0.035 C 
ATOM      6  C   UNL     1      -3.072   3.962  -2.527  0.00  0.00    +0.088 C 
ATOM      7  C   UNL     1      -2.722   3.064  -1.378  0.00  0.00    +0.163 C 
ATOM      8  O   UNL     1      -3.576   2.812  -0.550  0.00  0.00    -0.292 OA
ATOM      9  N   UNL     1       0.788   2.248  -2.076  0.00  0.00    -0.316 N 
ATOM     10  C   UNL     1       1.594   2.261  -0.944  0.00  0.00    +0.052 A 
ATOM     11  C   UNL     1       2.795   2.947  -0.900  0.00  0.00    +0.025 A 
ATOM     12  C   UNL     1       3.606   2.823   0.216  0.00  0.00    +0.002 A 
ATOM     13  C   UNL     1       3.217   2.024   1.276  0.00  0.00    +0.002 A 
ATOM     14  C   UNL     1       2.006   1.356   1.242  0.00  0.00    +0.025 A 
ATOM     15  C   UNL     1       1.184   1.492   0.135  0.00  0.00    +0.049 A 
ATOM     16  N   UNL     1      -0.065   0.877   0.074  0.00  0.00    -0.331 N 
ATOM     17  H   UNL     1       1.246   1.798  -2.969  0.00  0.00    +0.152 HD
ATOM     18  H   UNL     1      -0.120  -0.222   0.069  0.00  0.00    +0.147 HD
ENDROOT
BRANCH   1  21
ATOM     19  C   UNL     1      -2.383   3.324   3.226  0.00  0.00    +0.164 A 
ATOM     20  C   UNL     1      -2.353   2.487   2.121  0.00  0.00    +0.055 A 
ATOM     21  C   UNL     1      -1.314   2.576   1.214  0.00  0.00    -0.017 A 
ATOM     22  C   UNL     1      -0.308   3.507   1.400  0.00  0.00    +0.042 A 
ATOM     23  C   UNL     1      -0.335   4.348   2.497  0.00  0.00    +0.171 A 
ATOM     24  C   UNL     1      -1.371   4.260   3.413  0.00  0.00    +0.189 A 
BRANCH  23  25
ATOM     25  N   UNL     1       0.744   5.343   2.692  0.00  0.00    +0.060 N 
ATOM     26  O   UNL     1       1.654   5.420   1.887  0.00  0.00    -0.126 OA
ATOM     27  O   UNL     1       0.721   6.084   3.658  0.00  0.00    -0.126 OA
ENDBRANCH  23  25
BRANCH  24  28
ATOM     28  O   UNL     1      -1.398   5.086   4.492  0.00  0.00    -0.502 OA
ATOM     29  H   UNL     1      -0.597   5.826   4.639  0.00  0.00    +0.292 HD
ENDBRANCH  24  28
BRANCH  19  30
ATOM     30  O   UNL     1      -3.401   3.233   4.122  0.00  0.00    -0.488 OA
BRANCH  30  32
ATOM     31  C   UNL     1      -5.460   2.296   4.974  0.00  0.00    +0.048 C 
ATOM     32  C   UNL     1      -4.406   2.249   3.866  0.00  0.00    +0.226 C 
ENDBRANCH  30  32
ENDBRANCH  19  30
ENDBRANCH   1  21
BRANCH   5  33
ATOM     33  C   UNL     1      -2.100   5.512  -4.212  0.00  0.00    -0.002 A 
ATOM     34  C   UNL     1      -2.616   4.922  -5.349  0.00  0.00    +0.007 A 
ATOM     35  C   UNL     1      -2.898   5.693  -6.462  0.00  0.00    +0.001 A 
ATOM     36  C   UNL     1      -2.655   7.054  -6.442  0.00  0.00    +0.004 A 
ATOM     37  C   UNL     1      -2.134   7.648  -5.309  0.00  0.00    +0.046 A 
ATOM     38  C   UNL     1      -1.855   6.877  -4.190  0.00  0.00    +0.124 A 
BRANCH  38  39
ATOM     39  O   UNL     1      -1.342   7.459  -3.074  0.00  0.00    -0.495 OA
ATOM     40  C   UNL     1      -1.115   8.869  -3.123  0.00  0.00    +0.277 C 
ENDBRANCH  38  39
ENDBRANCH   5  33
TORSDOF 7
