REMARK  Name = ZINC17878965
REMARK  5 active torsions:
REMARK  status: ('A' for Active; 'I' for Inactive)
REMARK    1  A    between atoms: C_1  and  C_2
REMARK    2  A    between atoms: C_8  and  N_9
REMARK    3  A    between atoms: C_8  and  N_48
REMARK    4  A    between atoms: C_16  and  C_19
REMARK    5  A    between atoms: C_16  and  O_27
REMARK                            x       y       z     vdW  Elec       q    Type
REMARK                         _______ _______ _______ _____ _____    ______ ____
ROOT
ATOM      1  N   UNL     1      -0.710   1.657   0.722  0.00  0.00    -0.285 N 
ATOM      2  C   UNL     1      -0.180   2.929   0.946  0.00  0.00    +0.041 A 
ATOM      3  C   UNL     1      -0.791   4.182   0.953  0.00  0.00    +0.024 A 
ATOM      4  C   UNL     1      -0.043   5.315   1.198  0.00  0.00    +0.002 A 
ATOM      5  C   UNL     1       1.315   5.218   1.439  0.00  0.00    +0.000 A 
ATOM      6  C   UNL     1       1.928   3.977   1.434  0.00  0.00    +0.009 A 
ATOM      7  C   UNL     1       1.184   2.845   1.189  0.00  0.00    +0.016 A 
ATOM      8  C   UNL     1       1.540   1.377   1.116  0.00  0.00    +0.189 C 
ATOM      9  C   UNL     1       0.224   0.695   0.809  0.00  0.00    +0.256 C 
ATOM     10  O   UNL     1       0.046  -0.496   0.664  0.00  0.00    -0.272 OA
ENDROOT
BRANCH   8  11
ATOM     11  C   UNL     1       2.549   1.126  -0.007  0.00  0.00    +0.187 C 
ATOM     12  C   UNL     1       2.679  -0.361  -0.315  0.00  0.00    +0.255 C 
ATOM     13  O   UNL     1       3.080  -1.172   0.496  0.00  0.00    -0.272 OA
ATOM     14  N   UNL     1       2.321  -0.686  -1.530  0.00  0.00    -0.159 NA
ATOM     15  C   UNL     1       1.881   0.175  -2.432  0.00  0.00    +0.145 C 
ATOM     16  S   UNL     1       1.911   1.714  -1.626  0.00  0.00    -0.077 S 
ATOM     17  N   UNL     1       1.491  -0.086  -3.713  0.00  0.00    -0.340 N 
ATOM     18  H   UNL     1       1.519  -0.995  -4.052  0.00  0.00    +0.144 HD
ATOM     19  H   UNL     1       1.185   0.635  -4.284  0.00  0.00    +0.144 HD
ENDBRANCH   8  11
BRANCH   8  20
ATOM     20  O   UNL     1       2.059   0.924   2.368  0.00  0.00    -0.373 OA
ATOM     21  H   UNL     1       1.472   1.087   3.119  0.00  0.00    +0.211 HD
ENDBRANCH   8  20
BRANCH   1  22
ATOM     22  C   UNL     1      -2.122   1.401   0.430  0.00  0.00    +0.039 C 
BRANCH  22  29
ATOM     23  C   UNL     1      -3.537  -0.999   0.827  0.00  0.00    -0.013 C 
ATOM     24  C   UNL     1      -4.004   0.301   1.484  0.00  0.00    -0.070 C 
ATOM     25  C   UNL     1      -4.652  -0.014   2.834  0.00  0.00    -0.016 C 
ATOM     26  C   UNL     1      -5.100   1.291   3.497  0.00  0.00    -0.003 C 
ATOM     27  C   UNL     1      -3.890   2.216   3.653  0.00  0.00    -0.019 C 
ATOM     28  C   UNL     1      -3.264   2.467   2.279  0.00  0.00    -0.076 C 
ATOM     29  N   UNL     1      -2.832   1.175   1.706  0.00  0.00    +0.392 N 
ATOM     30  H   UNL     1      -2.194   0.714   2.366  0.00  0.00    -0.079 HD
ENDBRANCH  22  29
ENDBRANCH   1  22
TORSDOF 4
