REMARK  Name = ZINC00866889
REMARK  4 active torsions:
REMARK  status: ('A' for Active; 'I' for Inactive)
REMARK    1  A    between atoms: C_3  and  C_6
REMARK    2  A    between atoms: C_9  and  C_33
REMARK    3  A    between atoms: C_14  and  C_16
REMARK    4  A    between atoms: N_21  and  C_24
REMARK                            x       y       z     vdW  Elec       q    Type
REMARK                         _______ _______ _______ _____ _____    ______ ____
ROOT
ATOM      1  C   UNL     1       3.530   0.411  -0.122  0.00  0.00    +0.140 C 
ATOM      2  C   UNL     1       3.998   0.047  -1.535  0.00  0.00    +0.066 C 
ATOM      3  C   UNL     1       5.528   0.101  -1.608  0.00  0.00    +0.215 C 
ATOM      4  N   UNL     1       6.084  -0.669  -0.492  0.00  0.00    -0.237 N 
ATOM      5  C   UNL     1       5.378  -0.991   0.633  0.00  0.00    +0.137 A 
ATOM      6  C   UNL     1       6.185  -1.700   1.446  0.00  0.00    +0.112 A 
ATOM      7  C   UNL     1       7.439  -1.822   0.804  0.00  0.00    +0.167 A 
ATOM      8  N   UNL     1       7.367  -1.198  -0.359  0.00  0.00    -0.163 NA
ATOM      9 CL   UNL     1       5.763  -2.347   3.001  0.00  0.00    -0.078 Cl
ATOM     10  N   UNL     1       4.048  -0.599   0.823  0.00  0.00    -0.318 N 
ATOM     11  H   UNL     1       3.498  -0.970   1.530  0.00  0.00    +0.148 HD
ENDROOT
BRANCH   7  12
ATOM     12  C   UNL     1       8.623  -2.523   1.340  0.00  0.00    +0.268 C 
ATOM     13  O   UNL     1       8.586  -3.018   2.450  0.00  0.00    -0.268 OA
ATOM     14  N   UNL     1       9.745  -2.615   0.599  0.00  0.00    -0.293 N 
ATOM     15  C   UNL     1       9.857  -1.899  -0.680  0.00  0.00    +0.127 C 
ATOM     16  C   UNL     1      11.112  -1.019  -0.640  0.00  0.00    +0.124 C 
ATOM     17  N   UNL     1      12.245  -1.836  -0.184  0.00  0.00    -0.327 N 
ATOM     18  C   UNL     1      12.133  -2.552   1.095  0.00  0.00    +0.124 C 
ATOM     19  C   UNL     1      10.880  -3.428   1.058  0.00  0.00    +0.127 C 
BRANCH  17  20
ATOM     20  C   UNL     1      13.408  -1.931  -0.953  0.00  0.00    +0.030 A 
ATOM     21  C   UNL     1      14.413  -2.817  -0.587  0.00  0.00    +0.026 A 
ATOM     22  C   UNL     1      15.562  -2.910  -1.349  0.00  0.00    +0.040 A 
ATOM     23  C   UNL     1      15.712  -2.121  -2.477  0.00  0.00    +0.124 A 
ATOM     24  C   UNL     1      14.711  -1.237  -2.844  0.00  0.00    +0.040 A 
ATOM     25  C   UNL     1      13.559  -1.145  -2.088  0.00  0.00    +0.026 A 
ATOM     26  F   UNL     1      16.836  -2.213  -3.220  0.00  0.00    -0.205 F 
ENDBRANCH  17  20
ENDBRANCH   7  12
BRANCH   1  29
ATOM     27  C   UNL     1      -0.096   1.069  -0.054  0.00  0.00    +0.041 A 
ATOM     28  C   UNL     1       1.244   1.517  -0.128  0.00  0.00    +0.046 A 
ATOM     29  C   UNL     1       2.024   0.423  -0.075  0.00  0.00    +0.125 A 
ATOM     30  O   UNL     1       1.233  -0.658   0.026  0.00  0.00    -0.466 OA
ATOM     31  C   UNL     1      -0.053  -0.272   0.039  0.00  0.00    +0.195 A 
ENDBRANCH   1  29
BRANCH   3  32
ATOM     32  C   UNL     1       6.000  -0.500  -2.934  0.00  0.00    +0.412 C 
ATOM     33  F   UNL     1       5.457   0.231  -3.996  0.00  0.00    -0.168 F 
ATOM     34  F   UNL     1       7.396  -0.450  -2.999  0.00  0.00    -0.168 F 
ATOM     35  F   UNL     1       5.576  -1.831  -3.019  0.00  0.00    -0.168 F 
ENDBRANCH   3  32
TORSDOF 4
