REMARK  Name = ZINC02395442
REMARK  7 active torsions:
REMARK  status: ('A' for Active; 'I' for Inactive)
REMARK    1  A    between atoms: C_1  and  C_2
REMARK    2  A    between atoms: C_10  and  C_18
REMARK    3  A    between atoms: C_24  and  C_27
REMARK    4  A    between atoms: C_30  and  O_35
REMARK    5  A    between atoms: C_32  and  O_33
REMARK    6  A    between atoms: O_33  and  C_34
REMARK    7  A    between atoms: O_35  and  C_36
REMARK                            x       y       z     vdW  Elec       q    Type
REMARK                         _______ _______ _______ _____ _____    ______ ____
ROOT
ATOM      1  C   UNL     1      -0.079   1.565   0.461  0.00  0.00    +0.044 C 
ATOM      2  C   UNL     1      -0.043   0.063   0.346  0.00  0.00    -0.050 A 
ATOM      3  C   UNL     1      -0.026  -0.533  -0.902  0.00  0.00    +0.007 A 
ATOM      4  C   UNL     1       0.008  -1.911  -1.023  0.00  0.00    +0.046 A 
ATOM      5  C   UNL     1       0.025  -2.701   0.113  0.00  0.00    +0.131 A 
ATOM      6  C   UNL     1       0.006  -2.098   1.376  0.00  0.00    +0.043 A 
ATOM      7  C   UNL     1      -0.021  -0.714   1.489  0.00  0.00    +0.017 A 
ATOM      8  C   UNL     1       0.020  -2.974   2.575  0.00  0.00    +0.083 C 
ATOM      9  C   UNL     1      -0.276  -4.277   2.396  0.00  0.00    +0.027 C 
ATOM     10  C   UNL     1      -0.258  -5.184   3.607  0.00  0.00    +0.159 C 
ATOM     11  N   UNL     1       0.086  -4.546   4.883  0.00  0.00    -0.208 N 
ATOM     12  C   UNL     1       0.360  -3.193   4.900  0.00  0.00    +0.237 C 
ATOM     13  N   UNL     1       0.321  -2.477   3.801  0.00  0.00    -0.213 NA
ATOM     14  N   UNL     1       0.641  -2.865   6.181  0.00  0.00    -0.205 NA
ATOM     15  C   UNL     1       0.559  -3.917   6.947  0.00  0.00    +0.203 C 
ATOM     16  N   UNL     1       0.217  -5.001   6.197  0.00  0.00    -0.251 N 
ATOM     17  C   UNL     1      -0.621  -4.803   1.033  0.00  0.00    +0.238 C 
ATOM     18  O   UNL     1       0.061  -4.055   0.024  0.00  0.00    -0.479 OA
ATOM     19  H   UNL     1       0.089  -5.909   6.512  0.00  0.00    +0.171 HD
ENDROOT
BRANCH  10  20
ATOM     20  C   UNL     1       0.739  -6.286   3.353  0.00  0.00    -0.021 A 
ATOM     21  C   UNL     1       2.089  -6.053   3.537  0.00  0.00    +0.006 A 
ATOM     22  C   UNL     1       3.003  -7.064   3.305  0.00  0.00    +0.000 A 
ATOM     23  C   UNL     1       2.567  -8.308   2.889  0.00  0.00    +0.000 A 
ATOM     24  C   UNL     1       1.217  -8.541   2.706  0.00  0.00    +0.000 A 
ATOM     25  C   UNL     1       0.302  -7.532   2.943  0.00  0.00    +0.006 A 
ENDBRANCH  10  20
BRANCH  17  26
ATOM     26  C   UNL     1      -2.108  -4.685   0.816  0.00  0.00    +0.039 A 
ATOM     27  C   UNL     1      -2.627  -3.574   0.179  0.00  0.00    +0.015 A 
ATOM     28  C   UNL     1      -3.989  -3.464  -0.022  0.00  0.00    +0.046 A 
ATOM     29  C   UNL     1      -4.840  -4.469   0.415  0.00  0.00    +0.124 A 
ATOM     30  C   UNL     1      -4.322  -5.585   1.055  0.00  0.00    +0.091 A 
ATOM     31  C   UNL     1      -2.954  -5.696   1.250  0.00  0.00    +0.131 A 
BRANCH  31  32
ATOM     32  O   UNL     1      -2.442  -6.791   1.871  0.00  0.00    -0.495 OA
ATOM     33  C   UNL     1      -3.372  -7.791   2.292  0.00  0.00    +0.277 C 
ENDBRANCH  31  32
BRANCH  29  34
ATOM     34  O   UNL     1      -6.180  -4.360   0.218  0.00  0.00    -0.495 OA
ATOM     35  C   UNL     1      -6.644  -3.183  -0.447  0.00  0.00    +0.277 C 
ENDBRANCH  29  34
ENDBRANCH  17  26
TORSDOF 4
