REMARK  Name = ZINC34747818
REMARK  7 active torsions:
REMARK  status: ('A' for Active; 'I' for Inactive)
REMARK    1  A    between atoms: C_1  and  C_2
REMARK    2  A    between atoms: C_2  and  C_3
REMARK    3  A    between atoms: C_2  and  C_4
REMARK    4  A    between atoms: C_4  and  N_5
REMARK    5  A    between atoms: N_23  and  C_24
REMARK    6  A    between atoms: C_24  and  C_25
REMARK    7  A    between atoms: N_27  and  C_28
REMARK                            x       y       z     vdW  Elec       q    Type
REMARK                         _______ _______ _______ _____ _____    ______ ____
ROOT
ATOM      1  N   UNL     1      -0.186  -2.601  -0.499  0.00  0.00    +0.382 N 
ATOM      2  C   UNL     1       0.138  -4.009  -0.758  0.00  0.00    -0.060 C 
ATOM      3  C   UNL     1      -1.156  -4.792  -1.006  0.00  0.00    +0.089 C 
ATOM      4  N   UNL     1      -2.058  -4.576   0.136  0.00  0.00    -0.304 N 
ATOM      5  C   UNL     1      -2.309  -3.193   0.568  0.00  0.00    +0.089 C 
ATOM      6  C   UNL     1      -0.961  -2.485   0.742  0.00  0.00    -0.060 C 
ATOM      7  C   UNL     1      -2.648  -5.635   0.779  0.00  0.00    +0.202 A 
ATOM      8  N   UNL     1      -2.000  -6.249   1.748  0.00  0.00    -0.208 NA
ATOM      9  C   UNL     1      -2.549  -7.277   2.387  0.00  0.00    +0.117 A 
ATOM     10  C   UNL     1      -3.828  -7.755   2.068  0.00  0.00    +0.076 A 
ATOM     11  C   UNL     1      -4.305  -8.900   2.861  0.00  0.00    -0.023 A 
ATOM     12  C   UNL     1      -3.477  -9.371   3.807  0.00  0.00    -0.004 A 
ATOM     13  S   UNL     1      -2.030  -8.342   3.705  0.00  0.00    -0.073 S 
ATOM     14  C   UNL     1      -4.071 -10.535   4.554  0.00  0.00    +0.043 C 
ATOM     15  C   UNL     1      -5.581 -10.469   4.237  0.00  0.00    +0.010 C 
ATOM     16  C   UNL     1      -5.584  -9.742   2.877  0.00  0.00    +0.037 C 
ATOM     17  C   UNL     1      -4.509  -7.070   1.013  0.00  0.00    +0.264 A 
ATOM     18  O   UNL     1      -5.626  -7.417   0.669  0.00  0.00    -0.267 OA
ATOM     19  N   UNL     1      -3.899  -6.033   0.409  0.00  0.00    -0.271 N 
ATOM     20  H   UNL     1      -0.728  -2.236  -1.268  0.00  0.00    -0.082 HD
ENDROOT
BRANCH   1  21
ATOM     21  C   UNL     1       1.058  -1.830  -0.371  0.00  0.00    -0.076 C 
BRANCH  21  23
ATOM     22  C   UNL     1       2.009   0.449   0.013  0.00  0.00    +0.005 C 
ATOM     23  C   UNL     1       0.726  -0.341  -0.256  0.00  0.00    -0.034 C 
ATOM     24  C   UNL     1       0.095   0.143  -1.564  0.00  0.00    +0.005 C 
ENDBRANCH  21  23
ENDBRANCH   1  21
BRANCH  19  25
ATOM     25  C   UNL     1      -4.590  -5.321  -0.669  0.00  0.00    +0.223 C 
BRANCH  25  26
ATOM     26  C   UNL     1      -4.356  -6.038  -1.974  0.00  0.00    +0.233 C 
ATOM     27  O   UNL     1      -3.679  -7.044  -2.001  0.00  0.00    -0.274 OA
ATOM     28  N   UNL     1      -4.899  -5.561  -3.111  0.00  0.00    -0.311 N 
ATOM     29  H   UNL     1      -5.441  -4.756  -3.090  0.00  0.00    +0.149 HD
BRANCH  28  30
ATOM     30  C   UNL     1      -4.672  -6.257  -4.380  0.00  0.00    +0.073 C 
ATOM     31  C   UNL     1      -3.349  -5.789  -4.989  0.00  0.00    +0.022 C 
ATOM     32  C   UNL     1      -3.112  -6.517  -6.314  0.00  0.00    +0.002 C 
ATOM     33  C   UNL     1      -4.256  -6.204  -7.280  0.00  0.00    +0.000 C 
ATOM     34  C   UNL     1      -5.580  -6.672  -6.671  0.00  0.00    +0.002 C 
ATOM     35  C   UNL     1      -5.817  -5.944  -5.346  0.00  0.00    +0.022 C 
ENDBRANCH  28  30
ENDBRANCH  25  26
ENDBRANCH  19  25
TORSDOF 5
