REMARK  Name = ZINC67021879
REMARK  7 active torsions:
REMARK  status: ('A' for Active; 'I' for Inactive)
REMARK    1  A    between atoms: C_1  and  C_2
REMARK    2  A    between atoms: C_9  and  N_13
REMARK    3  A    between atoms: C_10  and  C_11
REMARK    4  A    between atoms: C_14  and  C_16
REMARK    5  A    between atoms: C_19  and  C_21
REMARK    6  A    between atoms: C_21  and  N_22
REMARK    7  A    between atoms: C_23  and  C_25
REMARK                            x       y       z     vdW  Elec       q    Type
REMARK                         _______ _______ _______ _____ _____    ______ ____
ROOT
ATOM      1  N   UNL     1       1.939  -5.827   1.698  0.00  0.00    -0.275 N 
ATOM      2  C   UNL     1       2.248  -6.087   2.984  0.00  0.00    +0.255 C 
ATOM      3  O   UNL     1       2.228  -5.192   3.808  0.00  0.00    -0.269 OA
ATOM      4  H   UNL     1       1.955  -6.540   1.041  0.00  0.00    +0.156 HD
ENDROOT
BRANCH   1  12
ATOM      5  C   UNL     1      -0.019   1.526   0.010  0.00  0.00    +0.008 C 
ATOM      6  C   UNL     1       0.002  -0.004   0.002  0.00  0.00    -0.009 C 
ATOM      7  C   UNL     1       0.724  -0.500  -1.254  0.00  0.00    +0.008 C 
ATOM      8  C   UNL     1       0.537  -2.012  -1.399  0.00  0.00    +0.037 C 
ATOM      9  C   UNL     1       0.935  -2.680  -0.092  0.00  0.00    -0.018 A 
ATOM     10  C   UNL     1       1.019  -1.977   1.059  0.00  0.00    -0.004 A 
ATOM     11  S   UNL     1       1.507  -3.165   2.275  0.00  0.00    -0.077 S 
ATOM     12  C   UNL     1       1.598  -4.539   1.314  0.00  0.00    +0.090 A 
ATOM     13  C   UNL     1       1.253  -4.090   0.049  0.00  0.00    +0.084 A 
ATOM     14  C   UNL     1       0.750  -0.515   1.242  0.00  0.00    +0.046 C 
BRANCH  13  15
ATOM     15  C   UNL     1       1.213  -4.980  -1.072  0.00  0.00    +0.102 C 
ATOM     16  N   UNL     1       1.181  -5.685  -1.962  0.00  0.00    -0.191 NA
ENDBRANCH  13  15
ENDBRANCH   1  12
BRANCH   2  17
ATOM     17  C   UNL     1       2.609  -7.448   3.389  0.00  0.00    +0.074 A 
ATOM     18  C   UNL     1       2.950  -7.924   4.647  0.00  0.00    +0.021 A 
ATOM     19  C   UNL     1       3.241  -9.265   4.718  0.00  0.00    +0.013 A 
ATOM     20  C   UNL     1       3.178 -10.015   3.590  0.00  0.00    +0.008 A 
ATOM     21  S   UNL     1       2.715  -8.926   2.398  0.00  0.00    -0.087 S 
BRANCH  20  22
ATOM     22  C   UNL     1       3.454 -11.489   3.441  0.00  0.00    +0.146 C 
BRANCH  22  23
ATOM     23  N   UNL     1       2.215 -12.241   3.650  0.00  0.00    -0.311 N 
ATOM     24  C   UNL     1       2.220 -13.586   3.565  0.00  0.00    +0.210 C 
ATOM     25  O   UNL     1       3.252 -14.174   3.315  0.00  0.00    -0.276 OA
ATOM     26  C   UNL     1       0.945 -14.360   3.780  0.00  0.00    +0.109 C 
ATOM     27  H   UNL     1       1.390 -11.771   3.850  0.00  0.00    +0.149 HD
ENDBRANCH  22  23
ENDBRANCH  20  22
ENDBRANCH   2  17
TORSDOF 5
