REMARK  Name = ZINC05899875
REMARK  6 active torsions:
REMARK  status: ('A' for Active; 'I' for Inactive)
REMARK    1  A    between atoms: C_4  and  N_7
REMARK    2  A    between atoms: N_7  and  C_8
REMARK    3  A    between atoms: C_8  and  N_10
REMARK    4  A    between atoms: N_10  and  N_11
REMARK    5  A    between atoms: C_12  and  C_18
REMARK    6  A    between atoms: C_21  and  N_23
REMARK                            x       y       z     vdW  Elec       q    Type
REMARK                         _______ _______ _______ _____ _____    ______ ____
ROOT
ATOM      1  N   UNL     1       6.023  -1.921   0.136  0.00  0.00    -0.200 N 
ATOM      2  C   UNL     1       6.871  -1.899  -1.071  0.00  0.00    +0.220 C 
ATOM      3  S   UNL     1       8.000  -0.489  -0.693  0.00  0.00    -0.120 S 
ATOM      4  C   UNL     1       7.719  -0.482   1.131  0.00  0.00    +0.169 C 
ATOM      5  C   UNL     1       6.406  -1.246   1.211  0.00  0.00    +0.243 C 
ATOM      6  O   UNL     1       5.736  -1.240   2.222  0.00  0.00    -0.273 OA
ENDROOT
BRANCH   2   7
ATOM      7  C   UNL     1       7.641  -3.186  -1.215  0.00  0.00    +0.140 A 
ATOM      8  C   UNL     1       8.036  -3.741  -2.375  0.00  0.00    +0.050 A 
ATOM      9  C   UNL     1       8.722  -4.933  -2.047  0.00  0.00    +0.076 A 
ATOM     10  C   UNL     1       8.707  -5.034  -0.706  0.00  0.00    +0.280 A 
ATOM     11  O   UNL     1       8.056  -3.971  -0.207  0.00  0.00    -0.436 OA
BRANCH  10  12
ATOM     12  N   UNL     1       9.310  -6.130   0.086  0.00  0.00    +0.093 N 
ATOM     13  O   UNL     1       9.880  -7.038  -0.473  0.00  0.00    -0.123 OA
ATOM     14  O   UNL     1       9.234  -6.116   1.293  0.00  0.00    -0.123 OA
ENDBRANCH  10  12
ENDBRANCH   2   7
BRANCH   1  15
ATOM     15  N   UNL     1       4.822  -2.644   0.144  0.00  0.00    -0.242 N 
ATOM     16  H   UNL     1       4.839  -3.611   0.212  0.00  0.00    +0.172 HD
BRANCH  15  17
ATOM     17  C   UNL     1       3.644  -1.995   0.058  0.00  0.00    +0.151 C 
ATOM     18  S   UNL     1       2.178  -2.877   0.068  0.00  0.00    -0.017 S 
BRANCH  17  19
ATOM     19  N   UNL     1       3.621  -0.650  -0.036  0.00  0.00    -0.296 N 
ATOM     20  H   UNL     1       4.451  -0.156  -0.123  0.00  0.00    +0.154 HD
BRANCH  19  24
ATOM     21  C   UNL     1      -0.014   1.382   0.046  0.00  0.00    +0.000 A 
ATOM     22  C   UNL     1       0.205   0.326   0.911  0.00  0.00    +0.002 A 
ATOM     23  C   UNL     1       1.410  -0.350   0.886  0.00  0.00    +0.023 A 
ATOM     24  C   UNL     1       2.400   0.032  -0.009  0.00  0.00    +0.033 A 
ATOM     25  C   UNL     1       2.176   1.093  -0.877  0.00  0.00    +0.023 A 
ATOM     26  C   UNL     1       0.970   1.764  -0.847  0.00  0.00    +0.002 A 
ENDBRANCH  19  24
ENDBRANCH  17  19
ENDBRANCH  15  17
ENDBRANCH   1  15
TORSDOF 6
