REMARK  Name = ZINC39684158
REMARK  7 active torsions:
REMARK  status: ('A' for Active; 'I' for Inactive)
REMARK    1  A    between atoms: C_1  and  C_2
REMARK    2  A    between atoms: C_7  and  C_11
REMARK    3  A    between atoms: C_11  and  C_12
REMARK    4  A    between atoms: C_12  and  N_13
REMARK    5  A    between atoms: C_14  and  C_16
REMARK    6  A    between atoms: C_27  and  C_29
REMARK    7  A    between atoms: N_33  and  C_34
REMARK                            x       y       z     vdW  Elec       q    Type
REMARK                         _______ _______ _______ _____ _____    ______ ____
ROOT
ATOM      1  C   UNL     1      -9.236   2.521  -6.554  0.00  0.00    +0.100 C 
ATOM      2  C   UNL     1      -8.533   3.394  -7.618  0.00  0.00    +0.121 C 
ATOM      3  N   UNL     1      -7.989   2.425  -8.598  0.00  0.00    -0.295 N 
ATOM      4  C   UNL     1      -9.044   1.390  -8.717  0.00  0.00    +0.115 C 
ATOM      5  C   UNL     1      -9.573   1.208  -7.281  0.00  0.00    -0.004 C 
ATOM      6  C   UNL     1     -11.082   0.986  -7.298  0.00  0.00    -0.010 C 
ATOM      7  C   UNL     1     -11.389  -0.353  -7.974  0.00  0.00    -0.082 C 
ATOM      8  N   UNL     1     -10.723  -1.437  -7.241  0.00  0.00    +0.379 N 
ATOM      9  C   UNL     1      -9.267  -1.266  -7.309  0.00  0.00    -0.082 C 
ATOM     10  C   UNL     1      -8.870   0.035  -6.605  0.00  0.00    -0.010 C 
ATOM     11  C   UNL     1      -6.803   2.473  -9.237  0.00  0.00    +0.263 C 
ATOM     12  O   UNL     1      -6.575   1.708 -10.155  0.00  0.00    -0.268 OA
ATOM     13  H   UNL     1     -11.018  -1.420  -6.276  0.00  0.00    -0.086 HD
ATOM     14  H   UNL     1     -10.976  -2.323  -7.652  0.00  0.00    -0.086 HD
ENDROOT
BRANCH  11  15
ATOM     15  C   UNL     1      -5.787   3.448  -8.825  0.00  0.00    +0.104 A 
ATOM     16  C   UNL     1      -5.743   4.120  -7.622  0.00  0.00    +0.032 A 
ATOM     17  C   UNL     1      -4.614   4.944  -7.653  0.00  0.00    +0.020 A 
ATOM     18  C   UNL     1      -4.002   4.765  -8.848  0.00  0.00    +0.086 A 
ATOM     19  N   UNL     1      -4.702   3.855  -9.567  0.00  0.00    -0.346 N 
ATOM     20  C   UNL     1      -4.362   3.384 -10.912  0.00  0.00    +0.149 C 
ENDBRANCH  11  15
BRANCH   1  22
ATOM     21  N   UNL     1      -8.809   2.088  -4.157  0.00  0.00    -0.315 N 
ATOM     22  C   UNL     1      -8.308   2.257  -5.396  0.00  0.00    +0.218 C 
ATOM     23  O   UNL     1      -7.111   2.195  -5.580  0.00  0.00    -0.275 OA
ATOM     24  H   UNL     1      -9.767   2.137  -4.010  0.00  0.00    +0.149 HD
BRANCH  21  25
ATOM     25  C   UNL     1      -7.908   1.831  -3.031  0.00  0.00    +0.109 C 
BRANCH  25  26
ATOM     26  C   UNL     1      -8.726   1.680  -1.747  0.00  0.00    +0.056 C 
BRANCH  26  33
ATOM     27  C   UNL     1      -4.771   1.653   3.120  0.00  0.00    +0.046 C 
ATOM     28  C   UNL     1      -5.571   2.402   2.085  0.00  0.00    -0.027 A 
ATOM     29  C   UNL     1      -5.529   3.778   2.041  0.00  0.00    +0.005 A 
ATOM     30  C   UNL     1      -6.261   4.479   1.093  0.00  0.00    +0.001 A 
ATOM     31  C   UNL     1      -7.037   3.815   0.184  0.00  0.00    +0.010 A 
ATOM     32  C   UNL     1      -7.093   2.421   0.210  0.00  0.00    +0.003 A 
ATOM     33  C   UNL     1      -7.799   1.415  -0.589  0.00  0.00    -0.021 A 
ATOM     34  C   UNL     1      -7.463   0.214  -0.093  0.00  0.00    +0.087 A 
ATOM     35  N   UNL     1      -6.600   0.367   0.958  0.00  0.00    -0.360 N 
ATOM     36  C   UNL     1      -6.349   1.705   1.166  0.00  0.00    +0.050 A 
ATOM     37  H   UNL     1      -6.219  -0.358   1.477  0.00  0.00    +0.165 HD
ENDBRANCH  26  33
ENDBRANCH  25  26
ENDBRANCH  21  25
ENDBRANCH   1  22
TORSDOF 5
