REMARK  Name = ZINC59332583
REMARK  13 active torsions:
REMARK  status: ('A' for Active; 'I' for Inactive)
REMARK    1  A    between atoms: C_1  and  C_2
REMARK    2  A    between atoms: C_5  and  S_14
REMARK    3  A    between atoms: N_6  and  C_7
REMARK    4  A    between atoms: C_7  and  C_8
REMARK    5  A    between atoms: S_14  and  C_15
REMARK    6  A    between atoms: C_15  and  C_16
REMARK    7  A    between atoms: N_18  and  C_19
REMARK    8  A    between atoms: C_19  and  C_21
REMARK    9  A    between atoms: C_19  and  C_32
REMARK   10  A    between atoms: C_21  and  N_22
REMARK   11  A    between atoms: C_32  and  C_33
REMARK   12  A    between atoms: C_32  and  C_34
REMARK   13  A    between atoms: C_32  and  C_35
REMARK                            x       y       z     vdW  Elec       q    Type
REMARK                         _______ _______ _______ _____ _____    ______ ____
ROOT
ATOM      1  C   UNL     1       0.070  -6.210   0.452  0.00  0.00    +0.223 C 
ATOM      2  O   UNL     1      -0.255  -6.087   1.614  0.00  0.00    -0.275 OA
ATOM      3  N   UNL     1       0.317  -7.435  -0.052  0.00  0.00    -0.313 N 
ATOM      4  H   UNL     1       0.577  -7.534  -0.982  0.00  0.00    +0.149 HD
ENDROOT
BRANCH   1   5
ATOM      5  C   UNL     1       0.196  -4.994  -0.428  0.00  0.00    +0.173 C 
BRANCH   5   6
ATOM      6  S   UNL     1      -0.199  -3.508   0.535  0.00  0.00    -0.077 S 
BRANCH   6  11
ATOM      7  C   UNL     1      -0.002   1.263  -1.798  0.00  0.00    +0.088 C 
ATOM      8  C   UNL     1       0.066  -0.222  -1.552  0.00  0.00    +0.131 A 
ATOM      9  N   UNL     1       0.384  -1.136  -2.424  0.00  0.00    -0.134 NA
ATOM     10  N   UNL     1       0.342  -2.299  -1.879  0.00  0.00    -0.122 NA
ATOM     11  C   UNL     1      -0.007  -2.189  -0.619  0.00  0.00    +0.192 A 
ATOM     12  N   UNL     1      -0.190  -0.859  -0.369  0.00  0.00    -0.302 N 
BRANCH  12  13
ATOM     13  C   UNL     1      -0.581  -0.243   0.901  0.00  0.00    +0.160 C 
BRANCH  13  14
ATOM     14  C   UNL     1      -2.084  -0.155   0.975  0.00  0.00    -0.028 A 
ATOM     15  C   UNL     1      -2.735   0.964   0.491  0.00  0.00    +0.005 A 
ATOM     16  C   UNL     1      -4.114   1.045   0.558  0.00  0.00    +0.000 A 
ATOM     17  C   UNL     1      -4.841   0.006   1.109  0.00  0.00    +0.000 A 
ATOM     18  C   UNL     1      -4.190  -1.113   1.593  0.00  0.00    +0.000 A 
ATOM     19  C   UNL     1      -2.812  -1.196   1.521  0.00  0.00    +0.005 A 
ENDBRANCH  13  14
ENDBRANCH  12  13
ENDBRANCH   6  11
ENDBRANCH   5   6
ENDBRANCH   1   5
BRANCH   3  20
ATOM     20  C   UNL     1       0.194  -8.618   0.803  0.00  0.00    +0.062 C 
BRANCH  20  21
ATOM     21  C   UNL     1       1.589  -9.137   1.159  0.00  0.00    -0.021 C 
ATOM     22  C   UNL     1       2.363  -8.048   1.904  0.00  0.00    +0.012 C 
ATOM     23  C   UNL     1       1.460 -10.373   2.053  0.00  0.00    +0.012 C 
ATOM     24  C   UNL     1       2.337  -9.510  -0.122  0.00  0.00    +0.012 C 
ENDBRANCH  20  21
BRANCH  20  25
ATOM     25  C   UNL     1      -0.580  -9.708   0.058  0.00  0.00    -0.055 C 
BRANCH  25  26
ATOM     26  N   UNL     1      -1.888  -9.182  -0.357  0.00  0.00    +0.384 N 
ATOM     27  C   UNL     1      -2.711  -8.915   0.832  0.00  0.00    -0.074 C 
ATOM     28  C   UNL     1      -3.929  -8.093   0.408  0.00  0.00    +0.017 C 
ATOM     29  C   UNL     1      -4.610  -8.757  -0.762  0.00  0.00    -0.048 A 
ATOM     30  C   UNL     1      -5.905  -8.378  -1.079  0.00  0.00    +0.004 A 
ATOM     31  C   UNL     1      -6.560  -8.962  -2.145  0.00  0.00    +0.000 A 
ATOM     32  C   UNL     1      -5.920  -9.928  -2.900  0.00  0.00    +0.000 A 
ATOM     33  C   UNL     1      -4.631 -10.306  -2.583  0.00  0.00    +0.002 A 
ATOM     34  C   UNL     1      -3.972  -9.722  -1.512  0.00  0.00    -0.061 A 
ATOM     35  C   UNL     1      -2.570 -10.171  -1.197  0.00  0.00    -0.043 C 
ATOM     36  H   UNL     1      -1.758  -8.328  -0.878  0.00  0.00    -0.081 HD
ENDBRANCH  25  26
ENDBRANCH  20  25
ENDBRANCH   3  20
TORSDOF 9
