REMARK  Name = ZINC38740191
REMARK  6 active torsions:
REMARK  status: ('A' for Active; 'I' for Inactive)
REMARK    1  A    between atoms: C_5  and  O_7
REMARK    2  A    between atoms: O_7  and  C_8
REMARK    3  A    between atoms: C_8  and  C_9
REMARK    4  A    between atoms: C_9  and  N_10
REMARK    5  A    between atoms: C_11  and  C_13
REMARK    6  A    between atoms: C_19  and  C_21
REMARK                            x       y       z     vdW  Elec       q    Type
REMARK                         _______ _______ _______ _____ _____    ______ ____
ROOT
ATOM      1  C   UNL     1       1.874  -6.338   2.720  0.00  0.00    +0.087 C 
ATOM      2  C   UNL     1       1.007  -5.968   3.925  0.00  0.00    +0.013 C 
ATOM      3  C   UNL     1       1.711  -6.401   5.212  0.00  0.00    +0.001 C 
ATOM      4  C   UNL     1       1.930  -7.915   5.188  0.00  0.00    +0.001 C 
ATOM      5  C   UNL     1       2.797  -8.286   3.983  0.00  0.00    +0.013 C 
ATOM      6  C   UNL     1       2.093  -7.853   2.696  0.00  0.00    +0.087 C 
ENDROOT
BRANCH   6   7
ATOM      7  C   UNL     1       2.947  -8.218   1.509  0.00  0.00    +0.219 C 
ATOM      8  O   UNL     1       3.693  -7.395   1.023  0.00  0.00    -0.275 OA
ATOM      9  N   UNL     1       2.881  -9.459   0.988  0.00  0.00    -0.298 N 
ATOM     10  C   UNL     1       1.907 -10.434   1.498  0.00  0.00    +0.126 C 
ATOM     11  C   UNL     1       1.060 -10.941   0.324  0.00  0.00    +0.125 C 
ATOM     12  N   UNL     1       1.962 -11.344  -0.765  0.00  0.00    -0.314 N 
ATOM     13  C   UNL     1       2.936 -10.370  -1.275  0.00  0.00    +0.125 C 
ATOM     14  C   UNL     1       3.779  -9.860  -0.104  0.00  0.00    +0.126 C 
ATOM     15  C   UNL     1       1.894 -12.624  -1.302  0.00  0.00    +0.099 A 
ATOM     16  C   UNL     1       0.878 -13.487  -0.902  0.00  0.00    +0.042 A 
ATOM     17  C   UNL     1       0.822 -14.758  -1.445  0.00  0.00    +0.005 A 
ATOM     18  C   UNL     1       1.788 -15.125  -2.373  0.00  0.00    +0.018 A 
ATOM     19  C   UNL     1       2.768 -14.219  -2.723  0.00  0.00    +0.084 A 
ATOM     20  N   UNL     1       2.793 -13.010  -2.193  0.00  0.00    -0.350 N 
ATOM     21  H   UNL     1       3.491 -12.391  -2.460  0.00  0.00    +0.166 HD
ENDBRANCH   6   7
BRANCH   1  23
ATOM     22  N   UNL     1       0.883  -4.612   1.251  0.00  0.00    -0.312 N 
ATOM     23  C   UNL     1       1.181  -5.911   1.452  0.00  0.00    +0.217 C 
ATOM     24  O   UNL     1       0.891  -6.736   0.612  0.00  0.00    -0.275 OA
ATOM     25  H   UNL     1       1.115  -3.952   1.923  0.00  0.00    +0.149 HD
BRANCH  22  26
ATOM     26  C   UNL     1       0.209  -4.197   0.019  0.00  0.00    +0.145 C 
BRANCH  26  27
ATOM     27  C   UNL     1      -0.010  -2.683   0.043  0.00  0.00    +0.248 C 
BRANCH  27  28
ATOM     28  O   UNL     1       1.255  -2.018   0.024  0.00  0.00    -0.489 OA
BRANCH  28  33
ATOM     29  C   UNL     1       0.015   1.402   0.092  0.00  0.00    +0.004 A 
ATOM     30  C   UNL     1       1.204   2.108   0.077  0.00  0.00    +0.002 A 
ATOM     31  C   UNL     1       2.410   1.434   0.043  0.00  0.00    +0.023 A 
ATOM     32  C   UNL     1       2.431   0.051   0.026  0.00  0.00    +0.083 A 
ATOM     33  C   UNL     1       1.238  -0.659   0.042  0.00  0.00    +0.139 A 
ATOM     34  C   UNL     1       0.029   0.021   0.075  0.00  0.00    +0.047 A 
ATOM     35 CL   UNL     1       3.946  -0.795  -0.017  0.00  0.00    -0.080 Cl
ENDBRANCH  28  33
ENDBRANCH  27  28
ENDBRANCH  26  27
ENDBRANCH  22  26
ENDBRANCH   1  23
TORSDOF 6
