REMARK  Name = ZINC13059316
REMARK  10 active torsions:
REMARK  status: ('A' for Active; 'I' for Inactive)
REMARK    1  A    between atoms: C_1  and  C_2
REMARK    2  A    between atoms: C_2  and  C_4
REMARK    3  A    between atoms: C_2  and  O_19
REMARK    4  A    between atoms: N_6  and  N_7
REMARK    5  A    between atoms: N_7  and  S_8
REMARK    6  A    between atoms: S_8  and  C_11
REMARK    7  A    between atoms: C_14  and  C_17
REMARK    8  A    between atoms: O_19  and  C_20
REMARK    9  A    between atoms: C_23  and  C_26
REMARK   10  A    between atoms: C_26  and  C_28
REMARK                            x       y       z     vdW  Elec       q    Type
REMARK                         _______ _______ _______ _____ _____    ______ ____
ROOT
ATOM      1  C   UNL     1      -0.584   3.114   1.210  0.00  0.00    +0.268 C 
ATOM      2  O   UNL     1      -0.023   3.770   2.063  0.00  0.00    -0.270 OA
ATOM      3  N   UNL     1      -1.134   3.726   0.143  0.00  0.00    -0.229 N 
ATOM      4  H   UNL     1      -1.583   3.202  -0.539  0.00  0.00    +0.171 HD
ENDROOT
BRANCH   1   6
ATOM      5  C   UNL     1       0.130   0.959   0.213  0.00  0.00    +0.062 C 
ATOM      6  C   UNL     1      -0.665   1.615   1.344  0.00  0.00    +0.257 C 
BRANCH   6   7
ATOM      7  O   UNL     1      -0.117   1.219   2.603  0.00  0.00    -0.480 OA
BRANCH   7   8
ATOM      8  C   UNL     1      -0.552   0.043   3.122  0.00  0.00    +0.122 A 
ATOM      9  C   UNL     1      -1.409  -0.765   2.383  0.00  0.00    +0.046 A 
ATOM     10  C   UNL     1      -1.849  -1.961   2.904  0.00  0.00    +0.015 A 
ATOM     11  C   UNL     1      -1.441  -2.358   4.181  0.00  0.00    +0.022 A 
ATOM     12  C   UNL     1      -0.584  -1.539   4.923  0.00  0.00    +0.015 A 
ATOM     13  C   UNL     1      -0.145  -0.347   4.393  0.00  0.00    +0.046 A 
BRANCH  11  14
ATOM     14  C   UNL     1      -1.914  -3.636   4.745  0.00  0.00    +0.193 C 
ATOM     15  O   UNL     1      -3.028  -4.043   4.478  0.00  0.00    -0.287 OA
BRANCH  14  16
ATOM     16  C   UNL     1      -1.033  -4.422   5.635  0.00  0.00    +0.022 A 
ATOM     17  C   UNL     1       0.300  -4.046   5.812  0.00  0.00    +0.012 A 
ATOM     18  C   UNL     1       1.115  -4.781   6.648  0.00  0.00    +0.001 A 
ATOM     19  C   UNL     1       0.617  -5.894   7.302  0.00  0.00    +0.000 A 
ATOM     20  C   UNL     1      -0.702  -6.276   7.125  0.00  0.00    +0.001 A 
ATOM     21  C   UNL     1      -1.529  -5.547   6.297  0.00  0.00    +0.012 A 
ENDBRANCH  14  16
ENDBRANCH  11  14
ENDBRANCH   7   8
ENDBRANCH   6   7
ENDBRANCH   1   6
BRANCH   3  22
ATOM     22  N   UNL     1      -1.059   5.119   0.019  0.00  0.00    -0.108 NA
ATOM     23  H   UNL     1      -1.384   5.689   0.734  0.00  0.00    +0.172 HD
BRANCH  22  24
ATOM     24  S   UNL     1      -0.414   5.795  -1.349  0.00  0.00    +0.074 S 
ATOM     25  O   UNL     1      -0.609   7.198  -1.239  0.00  0.00    -0.152 OA
ATOM     26  O   UNL     1       0.872   5.215  -1.521  0.00  0.00    -0.152 OA
BRANCH  24  27
ATOM     27  C   UNL     1      -1.396   5.255  -2.709  0.00  0.00    +0.107 A 
ATOM     28  C   UNL     1      -1.064   4.092  -3.380  0.00  0.00    +0.029 A 
ATOM     29  C   UNL     1      -1.831   3.661  -4.442  0.00  0.00    +0.017 A 
ATOM     30  C   UNL     1      -2.939   4.408  -4.847  0.00  0.00    +0.063 A 
ATOM     31  C   UNL     1      -3.266   5.584  -4.169  0.00  0.00    +0.017 A 
ATOM     32  C   UNL     1      -2.493   6.000  -3.105  0.00  0.00    +0.029 A 
BRANCH  30  33
ATOM     33  C   UNL     1      -3.762   3.956  -5.987  0.00  0.00    +0.387 C 
ATOM     34  O   UNL     1      -4.726   4.607  -6.337  0.00  0.00    -0.241 OA
ATOM     35  O   UNL     1      -3.444   2.821  -6.639  0.00  0.00    -0.241 OA
ENDBRANCH  30  33
ENDBRANCH  24  27
ENDBRANCH  22  24
ENDBRANCH   3  22
TORSDOF 9
