REMARK  Name = ZINC66701981
REMARK  9 active torsions:
REMARK  status: ('A' for Active; 'I' for Inactive)
REMARK    1  A    between atoms: C_1  and  C_2
REMARK    2  A    between atoms: C_2  and  C_3
REMARK    3  A    between atoms: C_3  and  N_4
REMARK    4  A    between atoms: N_4  and  C_5
REMARK    5  A    between atoms: C_5  and  C_6
REMARK    6  A    between atoms: C_11  and  O_12
REMARK    7  A    between atoms: N_15  and  C_16
REMARK    8  A    between atoms: N_19  and  C_22
REMARK    9  A    between atoms: C_22  and  C_23
REMARK                            x       y       z     vdW  Elec       q    Type
REMARK                         _______ _______ _______ _____ _____    ______ ____
ROOT
ATOM      1  N   UNL     1       0.786  -2.492   1.063  0.00  0.00    -0.281 N 
ATOM      2  C   UNL     1      -0.243  -3.110   1.675  0.00  0.00    +0.303 C 
ATOM      3  O   UNL     1      -0.317  -4.323   1.666  0.00  0.00    -0.253 OA
ATOM      4  N   UNL     1      -1.191  -2.382   2.298  0.00  0.00    -0.297 N 
ATOM      5  H   UNL     1      -1.132  -1.414   2.306  0.00  0.00    +0.151 HD
ENDROOT
BRANCH   4   6
ATOM      6  C   UNL     1      -2.311  -3.053   2.964  0.00  0.00    +0.071 C 
ATOM      7  C   UNL     1      -3.418  -3.334   1.945  0.00  0.00    +0.004 C 
ATOM      8  C   UNL     1      -4.616  -3.963   2.661  0.00  0.00    -0.077 C 
ATOM      9  N   UNL     1      -5.116  -3.040   3.688  0.00  0.00    +0.380 N 
ATOM     10  C   UNL     1      -4.083  -2.822   4.707  0.00  0.00    -0.077 C 
ATOM     11  C   UNL     1      -2.865  -2.149   4.069  0.00  0.00    +0.004 C 
ATOM     12  H   UNL     1      -5.355  -2.159   3.258  0.00  0.00    -0.082 HD
BRANCH   9  13
ATOM     13  C   UNL     1      -6.311  -3.614   4.319  0.00  0.00    -0.075 C 
BRANCH  13  14
ATOM     14  C   UNL     1      -7.443  -3.690   3.292  0.00  0.00    -0.028 C 
ATOM     15  C   UNL     1      -7.891  -2.269   2.892  0.00  0.00    +0.002 C 
ATOM     16  C   UNL     1      -9.426  -2.388   2.723  0.00  0.00    +0.000 C 
ATOM     17  C   UNL     1      -9.822  -3.353   3.867  0.00  0.00    +0.000 C 
ATOM     18  C   UNL     1      -8.671  -4.380   3.912  0.00  0.00    +0.002 C 
ENDBRANCH  13  14
ENDBRANCH   9  13
ENDBRANCH   4   6
BRANCH   1  19
ATOM     19  C   UNL     1       0.875  -1.030   1.074  0.00  0.00    +0.109 C 
BRANCH  19  21
ATOM     20  C   UNL     1       0.238   1.062  -0.133  0.00  0.00    +0.005 C 
ATOM     21  C   UNL     1       0.145  -0.465  -0.145  0.00  0.00    +0.016 C 
ENDBRANCH  19  21
ENDBRANCH   1  19
BRANCH   1  22
ATOM     22  C   UNL     1       1.816  -3.284   0.386  0.00  0.00    +0.148 C 
BRANCH  22  23
ATOM     23  C   UNL     1       2.920  -3.610   1.359  0.00  0.00    +0.011 A 
ATOM     24  C   UNL     1       4.086  -2.869   1.356  0.00  0.00    +0.009 A 
ATOM     25  C   UNL     1       5.098  -3.168   2.248  0.00  0.00    +0.001 A 
ATOM     26  C   UNL     1       4.947  -4.210   3.146  0.00  0.00    +0.004 A 
ATOM     27  C   UNL     1       3.783  -4.953   3.153  0.00  0.00    +0.046 A 
ATOM     28  C   UNL     1       2.763  -4.651   2.262  0.00  0.00    +0.122 A 
BRANCH  28  29
ATOM     29  O   UNL     1       1.615  -5.378   2.271  0.00  0.00    -0.506 OA
ATOM     30  H   UNL     1       1.633  -6.149   1.687  0.00  0.00    +0.292 HD
ENDBRANCH  28  29
ENDBRANCH  22  23
ENDBRANCH   1  22
TORSDOF 8
