REMARK  Name = ZINC40558527
REMARK  3 active torsions:
REMARK  status: ('A' for Active; 'I' for Inactive)
REMARK    1  A    between atoms: C_5  and  C_8
REMARK    2  A    between atoms: C_8  and  C_9
REMARK    3  A    between atoms: C_18  and  C_20
REMARK                            x       y       z     vdW  Elec       q    Type
REMARK                         _______ _______ _______ _____ _____    ______ ____
ROOT
ATOM      1  C   UNL     1      -0.508   1.669  -0.631  0.00  0.00    +0.003 C 
ATOM      2  C   UNL     1       0.836   2.379  -0.458  0.00  0.00    +0.019 C 
ATOM      3  C   UNL     1       1.878   1.720  -1.367  0.00  0.00    +0.109 C 
ATOM      4  N   UNL     1       1.914   0.279  -1.078  0.00  0.00    -0.282 N 
ATOM      5  C   UNL     1       0.659  -0.482  -1.128  0.00  0.00    +0.088 C 
ATOM      6  C   UNL     1      -0.369   0.202  -0.221  0.00  0.00    +0.023 C 
ATOM      7  C   UNL     1       3.076  -0.331  -0.774  0.00  0.00    +0.306 C 
ATOM      8  O   UNL     1       3.122  -1.543  -0.689  0.00  0.00    -0.252 OA
ATOM      9  N   UNL     1       4.188   0.401  -0.565  0.00  0.00    -0.274 N 
ATOM     10  C   UNL     1       4.231   1.864  -0.386  0.00  0.00    +0.110 C 
ATOM     11  C   UNL     1       5.534   2.127   0.410  0.00  0.00    +0.021 C 
ATOM     12  C   UNL     1       6.492   1.072  -0.202  0.00  0.00    +0.033 C 
ATOM     13  C   UNL     1       5.557  -0.126  -0.470  0.00  0.00    +0.163 C 
ENDROOT
BRANCH  13  14
ATOM     14  C   UNL     1       5.940  -0.792  -1.767  0.00  0.00    +0.231 C 
ATOM     15  O   UNL     1       5.151  -0.827  -2.687  0.00  0.00    -0.274 OA
ATOM     16  N   UNL     1       7.160  -1.349  -1.903  0.00  0.00    -0.328 N 
ATOM     17  H   UNL     1       7.791  -1.321  -1.167  0.00  0.00    +0.145 HD
ATOM     18  H   UNL     1       7.407  -1.777  -2.738  0.00  0.00    +0.145 HD
ENDBRANCH  13  14
BRANCH   5  19
ATOM     19  C   UNL     1       0.906  -1.911  -0.640  0.00  0.00    +0.147 C 
BRANCH  19  20
ATOM     20  C   UNL     1       1.531  -2.719  -1.748  0.00  0.00    +0.358 C 
ATOM     21  O   UNL     1       1.757  -2.200  -2.828  0.00  0.00    -0.246 OA
ATOM     22  O   UNL     1       1.810  -3.892  -1.565  0.00  0.00    -0.246 OA
ENDBRANCH  19  20
ENDBRANCH   5  19
TORSDOF 3
