REMARK  Name = ZINC40147560
REMARK  5 active torsions:
REMARK  status: ('A' for Active; 'I' for Inactive)
REMARK    1  A    between atoms: C_5  and  C_7
REMARK    2  A    between atoms: C_10  and  C_12
REMARK    3  A    between atoms: N_13  and  N_14
REMARK    4  A    between atoms: C_19  and  C_22
REMARK    5  A    between atoms: C_22  and  C_23
REMARK                            x       y       z     vdW  Elec       q    Type
REMARK                         _______ _______ _______ _____ _____    ______ ____
ROOT
ATOM      1  N   UNL     1       3.673  -6.141  -2.869  0.00  0.00    -0.127 NA
ATOM      2  C   UNL     1       4.503  -5.942  -3.871  0.00  0.00    +0.183 C 
ATOM      3  N   UNL     1       4.931  -4.741  -4.397  0.00  0.00    -0.263 N 
ATOM      4  C   UNL     1       5.774  -4.672  -5.413  0.00  0.00    +0.232 C 
ATOM      5  O   UNL     1       6.146  -3.612  -5.870  0.00  0.00    -0.274 OA
ATOM      6  C   UNL     1       6.247  -6.004  -5.973  0.00  0.00    +0.144 C 
ATOM      7  S   UNL     1       5.346  -7.165  -4.864  0.00  0.00    -0.075 S 
ATOM      8  H   UNL     1       4.602  -3.917  -4.006  0.00  0.00    +0.157 HD
ENDROOT
BRANCH   1  10
ATOM      9  C   UNL     1       2.323  -5.332  -1.258  0.00  0.00    +0.181 C 
ATOM     10  N   UNL     1       3.149  -5.134  -2.255  0.00  0.00    -0.152 NA
BRANCH   9  14
ATOM     11  C   UNL     1       1.251  -2.158  -0.022  0.00  0.00    +0.138 A 
ATOM     12  C   UNL     1       0.557  -2.972   0.826  0.00  0.00    +0.050 A 
ATOM     13  C   UNL     1       0.867  -4.292   0.476  0.00  0.00    +0.051 A 
ATOM     14  C   UNL     1       1.748  -4.226  -0.585  0.00  0.00    +0.148 A 
ATOM     15  O   UNL     1       1.961  -2.925  -0.872  0.00  0.00    -0.454 OA
BRANCH  11  20
ATOM     16  C   UNL     1      -0.017   1.375   0.010  0.00  0.00    +0.001 A 
ATOM     17  C   UNL     1       1.170   2.087   0.002  0.00  0.00    +0.003 A 
ATOM     18  C   UNL     1       2.384   1.424  -0.013  0.00  0.00    +0.039 A 
ATOM     19  C   UNL     1       2.419   0.043  -0.021  0.00  0.00    +0.134 A 
ATOM     20  C   UNL     1       1.223  -0.683  -0.013  0.00  0.00    +0.052 A 
ATOM     21  C   UNL     1       0.002  -0.004   0.002  0.00  0.00    +0.014 A 
ATOM     22  F   UNL     1       3.604  -0.605  -0.036  0.00  0.00    -0.205 F 
ENDBRANCH  11  20
ENDBRANCH   9  14
ENDBRANCH   1  10
BRANCH   6  23
ATOM     23  C   UNL     1       5.820  -6.176  -7.432  0.00  0.00    +0.059 C 
BRANCH  23  24
ATOM     24  C   UNL     1       6.411  -7.448  -7.982  0.00  0.00    -0.044 A 
ATOM     25  C   UNL     1       7.655  -7.427  -8.585  0.00  0.00    +0.004 A 
ATOM     26  C   UNL     1       8.199  -8.593  -9.090  0.00  0.00    +0.002 A 
ATOM     27  C   UNL     1       7.499  -9.781  -8.993  0.00  0.00    +0.020 A 
ATOM     28  C   UNL     1       6.254  -9.803  -8.390  0.00  0.00    +0.041 A 
ATOM     29  C   UNL     1       5.713  -8.636  -7.879  0.00  0.00    +0.023 A 
ATOM     30 CL   UNL     1       5.374 -11.294  -8.267  0.00  0.00    -0.084 Cl
ENDBRANCH  23  24
ENDBRANCH   6  23
TORSDOF 5
