REMARK  Name = ZINC11550819
REMARK  8 active torsions:
REMARK  status: ('A' for Active; 'I' for Inactive)
REMARK    1  A    between atoms: C_1  and  N_2
REMARK    2  A    between atoms: C_15  and  C_16
REMARK    3  A    between atoms: C_16  and  N_17
REMARK    4  A    between atoms: N_17  and  C_18
REMARK    5  A    between atoms: C_23  and  C_24
REMARK    6  A    between atoms: C_24  and  N_62
REMARK    7  A    between atoms: C_25  and  N_62
REMARK    8  A    between atoms: C_26  and  N_62
REMARK                            x       y       z     vdW  Elec       q    Type
REMARK                         _______ _______ _______ _____ _____    ______ ____
ROOT
ATOM      1  N   UNL     1      -2.543  -0.018   0.860  0.00  0.00    -0.337 N 
ATOM      2  H   UNL     1      -2.190  -0.242  -0.015  0.00  0.00    +0.147 HD
ENDROOT
BRANCH   1   3
ATOM      3  C   UNL     1      -2.082   1.120   1.527  0.00  0.00    +0.029 A 
ATOM      4  C   UNL     1      -2.582   1.440   2.783  0.00  0.00    +0.023 A 
ATOM      5  C   UNL     1      -2.128   2.568   3.438  0.00  0.00    +0.002 A 
ATOM      6  C   UNL     1      -1.174   3.376   2.847  0.00  0.00    +0.000 A 
ATOM      7  C   UNL     1      -0.671   3.058   1.599  0.00  0.00    +0.003 A 
ATOM      8  C   UNL     1      -1.120   1.931   0.939  0.00  0.00    -0.043 A 
BRANCH   8   9
ATOM      9  C   UNL     1      -0.572   1.584  -0.421  0.00  0.00    -0.041 C 
BRANCH   9  11
ATOM     10  C   UNL     1      -1.638   3.478  -1.489  0.00  0.00    -0.095 C 
ATOM     11  N   UNL     1      -1.547   2.003  -1.450  0.00  0.00    +0.382 N 
ATOM     12  H   UNL     1      -2.469   1.618  -1.211  0.00  0.00    -0.081 HD
BRANCH  11  13
ATOM     13  C   UNL     1      -1.139   1.486  -2.773  0.00  0.00    -0.069 C 
ATOM     14  C   UNL     1       0.198   2.097  -3.198  0.00  0.00    -0.015 C 
ATOM     15  C   UNL     1       0.596   1.548  -4.570  0.00  0.00    -0.002 C 
ATOM     16  C   UNL     1      -0.479   1.910  -5.596  0.00  0.00    -0.000 C 
ATOM     17  C   UNL     1      -1.816   1.300  -5.171  0.00  0.00    -0.002 C 
ATOM     18  C   UNL     1      -2.215   1.849  -3.799  0.00  0.00    -0.015 C 
ENDBRANCH  11  13
ENDBRANCH   9  11
ENDBRANCH   8   9
ENDBRANCH   1   3
BRANCH   1  19
ATOM     19  C   UNL     1      -3.558  -0.871   1.482  0.00  0.00    +0.178 C 
BRANCH  19  34
ATOM     20  C   UNL     1      -5.427  -4.945  -2.669  0.00  0.00    +0.155 C 
ATOM     21  N   UNL     1      -5.490  -3.586  -2.125  0.00  0.00    -0.280 N 
ATOM     22  C   UNL     1      -6.303  -2.676  -2.703  0.00  0.00    +0.263 A 
ATOM     23  O   UNL     1      -6.980  -2.976  -3.668  0.00  0.00    -0.267 OA
ATOM     24  C   UNL     1      -6.356  -1.313  -2.144  0.00  0.00    +0.063 A 
ATOM     25  C   UNL     1      -7.177  -0.333  -2.699  0.00  0.00    +0.015 A 
ATOM     26  C   UNL     1      -7.199   0.930  -2.147  0.00  0.00    +0.001 A 
ATOM     27  C   UNL     1      -6.410   1.227  -1.046  0.00  0.00    +0.002 A 
ATOM     28  C   UNL     1      -5.593   0.265  -0.487  0.00  0.00    +0.027 A 
ATOM     29  C   UNL     1      -5.558  -1.011  -1.028  0.00  0.00    +0.063 A 
ATOM     30  N   UNL     1      -4.751  -2.003  -0.486  0.00  0.00    -0.263 N 
ATOM     31  C   UNL     1      -4.718  -3.255  -1.028  0.00  0.00    +0.239 A 
ATOM     32  N   UNL     1      -3.869  -3.957  -0.310  0.00  0.00    -0.110 NA
ATOM     33  N   UNL     1      -3.377  -3.225   0.625  0.00  0.00    -0.131 NA
ATOM     34  C   UNL     1      -3.878  -2.022   0.564  0.00  0.00    +0.157 A 
ENDBRANCH  19  34
ENDBRANCH   1  19
TORSDOF 6
