REMARK  Name = ZINC20898969
REMARK  8 active torsions:
REMARK  status: ('A' for Active; 'I' for Inactive)
REMARK    1  A    between atoms: C_1  and  C_2
REMARK    2  A    between atoms: C_2  and  C_3
REMARK    3  A    between atoms: C_3  and  C_4
REMARK    4  A    between atoms: C_4  and  N_5
REMARK    5  A    between atoms: C_18  and  C_21
REMARK    6  A    between atoms: C_24  and  C_27
REMARK    7  A    between atoms: C_27  and  C_28
REMARK    8  A    between atoms: C_27  and  C_29
REMARK                            x       y       z     vdW  Elec       q    Type
REMARK                         _______ _______ _______ _____ _____    ______ ____
ROOT
ATOM      1  N   UNL     1     -11.010   2.869  -0.508  0.00  0.00    -0.249 N 
ATOM      2  C   UNL     1      -9.991   1.987  -0.524  0.00  0.00    +0.259 C 
ATOM      3  O   UNL     1      -9.771   1.318  -1.517  0.00  0.00    -0.269 OA
ATOM      4  C   UNL     1      -9.176   1.847   0.631  0.00  0.00    +0.117 C 
ATOM      5  C   UNL     1      -9.463   2.625   1.746  0.00  0.00    +0.256 C 
ATOM      6  N   UNL     1     -10.510   3.505   1.694  0.00  0.00    -0.263 N 
ATOM      7  H   UNL     1     -10.744   4.133   2.566  0.00  0.00    +0.157 HD
ATOM      8  C   UNL     1     -11.261   3.612   0.584  0.00  0.00    +0.146 C 
ATOM      9  S   UNL     1     -12.565   4.720   0.560  0.00  0.00    -0.018 S 
ATOM     10  O   UNL     1      -8.716   2.517   2.864  0.00  0.00    -0.270 OA
ATOM     11  C   UNL     1      -8.054   0.892   0.648  0.00  0.00    +0.038 C 
ATOM     12  N   UNL     1      -7.714   0.127  -0.331  0.00  0.00    -0.283 N 
ATOM     13  N   UNL     1      -6.614  -0.686  -0.063  0.00  0.00    -0.235 NA
ATOM     14  C   UNL     1      -6.150  -0.421   1.308  0.00  0.00    +0.108 C 
ATOM     15  C   UNL     1      -7.124   0.660   1.817  0.00  0.00    +0.077 C 
ATOM     16  H   UNL     1      -6.220  -1.322  -0.680  0.00  0.00    +0.145 HD
ATOM     17  H   UNL     1      -8.209   0.077  -1.312  0.00  0.00    +0.166 HD
ENDROOT
BRANCH  14  18
ATOM     18  C   UNL     1      -4.737   0.101   1.297  0.00  0.00    -0.029 A 
ATOM     19  C   UNL     1      -3.871  -0.227   2.324  0.00  0.00    +0.005 A 
ATOM     20  C   UNL     1      -2.574   0.251   2.314  0.00  0.00    +0.004 A 
ATOM     21  C   UNL     1      -2.143   1.058   1.278  0.00  0.00    -0.045 A 
ATOM     22  C   UNL     1      -3.010   1.390   0.254  0.00  0.00    +0.004 A 
ATOM     23  C   UNL     1      -4.306   0.908   0.261  0.00  0.00    +0.005 A 
BRANCH  21  24
ATOM     24  C   UNL     1      -0.729   1.579   1.267  0.00  0.00    +0.013 C 
ATOM     25  C   UNL     1      -0.013   1.086   0.008  0.00  0.00    +0.012 C 
ATOM     26  C   UNL     1      -0.750   3.109   1.275  0.00  0.00    +0.012 C 
ENDBRANCH  21  24
ENDBRANCH  14  18
BRANCH   1  27
ATOM     27  C   UNL     1     -11.855   3.019  -1.695  0.00  0.00    +0.116 C 
BRANCH  27  28
ATOM     28  C   UNL     1     -13.031   2.043  -1.611  0.00  0.00    +0.019 C 
BRANCH  28  30
ATOM     29  C   UNL     1     -15.090   1.225  -2.766  0.00  0.00    +0.004 C 
ATOM     30  C   UNL     1     -13.914   2.200  -2.850  0.00  0.00    -0.002 C 
ENDBRANCH  28  30
ENDBRANCH  27  28
ENDBRANCH   1  27
TORSDOF 5
