REMARK  Name = ZINC08770037
REMARK  7 active torsions:
REMARK  status: ('A' for Active; 'I' for Inactive)
REMARK    1  A    between atoms: C_1  and  C_2
REMARK    2  A    between atoms: C_2  and  C_31
REMARK    3  A    between atoms: N_3  and  N_4
REMARK    4  A    between atoms: C_5  and  C_7
REMARK    5  A    between atoms: C_13  and  C_27
REMARK    6  A    between atoms: C_15  and  C_17
REMARK    7  A    between atoms: C_35  and  N_37
REMARK                            x       y       z     vdW  Elec       q    Type
REMARK                         _______ _______ _______ _____ _____    ______ ____
ROOT
ATOM      1  C   UNL     1       1.090   1.904  -0.867  0.00  0.00    +0.136 A 
ATOM      2  C   UNL     1       0.095   0.965  -0.777  0.00  0.00    +0.081 A 
ATOM      3  S   UNL     1      -1.328   1.950  -0.911  0.00  0.00    -0.056 S 
ATOM      4  C   UNL     1      -0.513   3.531  -1.077  0.00  0.00    +0.195 A 
ATOM      5  N   UNL     1       0.756   3.187  -1.012  0.00  0.00    -0.216 NA
ATOM      6  N   UNL     1      -1.074   4.796  -1.229  0.00  0.00    -0.203 N 
ATOM      7  C   UNL     1      -0.780   5.896  -0.484  0.00  0.00    +0.150 A 
ATOM      8  C   UNL     1      -1.532   6.919  -0.942  0.00  0.00    +0.062 A 
ATOM      9  C   UNL     1      -2.319   6.436  -2.007  0.00  0.00    +0.094 A 
ATOM     10  N   UNL     1      -2.035   5.162  -2.180  0.00  0.00    -0.164 NA
ENDROOT
BRANCH   9  11
ATOM     11  C   UNL     1      -3.291   7.227  -2.800  0.00  0.00    +0.003 A 
ATOM     12  C   UNL     1      -3.348   8.621  -2.643  0.00  0.00    +0.011 A 
ATOM     13  C   UNL     1      -4.229   9.368  -3.357  0.00  0.00    +0.009 A 
ATOM     14  C   UNL     1      -5.100   8.746  -4.269  0.00  0.00    -0.018 A 
ATOM     15  C   UNL     1      -6.021   9.496  -5.020  0.00  0.00    +0.008 A 
ATOM     16  C   UNL     1      -6.851   8.866  -5.895  0.00  0.00    +0.001 A 
ATOM     17  C   UNL     1      -6.803   7.483  -6.060  0.00  0.00    +0.001 A 
ATOM     18  C   UNL     1      -5.925   6.723  -5.350  0.00  0.00    +0.008 A 
ATOM     19  C   UNL     1      -5.052   7.339  -4.436  0.00  0.00    -0.017 A 
ATOM     20  C   UNL     1      -4.130   6.586  -3.693  0.00  0.00    +0.018 A 
ENDBRANCH   9  11
BRANCH   1  22
ATOM     21  N   UNL     1       3.473   2.441  -0.817  0.00  0.00    -0.201 N 
ATOM     22  C   UNL     1       2.505   1.504  -0.798  0.00  0.00    +0.282 C 
ATOM     23  O   UNL     1       2.801   0.325  -0.730  0.00  0.00    -0.267 OA
ATOM     24  H   UNL     1       3.241   3.374  -0.947  0.00  0.00    +0.178 HD
BRANCH  21  27
ATOM     25  C   UNL     1       7.160   2.593  -0.296  0.00  0.00    +0.068 C 
ATOM     26  C   UNL     1       5.740   2.976  -0.626  0.00  0.00    +0.063 C 
ATOM     27  N   UNL     1       4.812   2.069  -0.648  0.00  0.00    -0.184 NA
BRANCH  26  28
ATOM     28  C   UNL     1       5.405   4.381  -0.924  0.00  0.00    -0.000 A 
ATOM     29  C   UNL     1       4.566   4.690  -1.996  0.00  0.00    +0.010 A 
ATOM     30  C   UNL     1       4.256   6.006  -2.269  0.00  0.00    +0.003 A 
ATOM     31  C   UNL     1       4.775   7.019  -1.482  0.00  0.00    +0.033 A 
ATOM     32  C   UNL     1       5.607   6.721  -0.418  0.00  0.00    +0.127 A 
ATOM     33  C   UNL     1       5.921   5.408  -0.131  0.00  0.00    +0.042 A 
BRANCH  32  34
ATOM     34  N   UNL     1       6.157   7.811   0.418  0.00  0.00    +0.056 N 
ATOM     35  O   UNL     1       5.802   8.961   0.230  0.00  0.00    -0.126 OA
ATOM     36  O   UNL     1       6.965   7.559   1.294  0.00  0.00    -0.126 OA
ENDBRANCH  32  34
ENDBRANCH  26  28
ENDBRANCH  21  27
ENDBRANCH   1  22
BRANCH   7  37
ATOM     37  C   UNL     1       0.210   5.960   0.650  0.00  0.00    +0.434 C 
ATOM     38  F   UNL     1       1.468   6.317   0.152  0.00  0.00    -0.164 F 
ATOM     39  F   UNL     1      -0.210   6.914   1.583  0.00  0.00    -0.164 F 
ATOM     40  F   UNL     1       0.293   4.708   1.269  0.00  0.00    -0.164 F 
ENDBRANCH   7  37
TORSDOF 6
