REMARK  Name = ZINC38583060
REMARK  4 active torsions:
REMARK  status: ('A' for Active; 'I' for Inactive)
REMARK    1  A    between atoms: C_1  and  C_2
REMARK    2  A    between atoms: C_2  and  C_21
REMARK    3  A    between atoms: C_8  and  C_16
REMARK    4  A    between atoms: C_12  and  C_14
REMARK                            x       y       z     vdW  Elec       q    Type
REMARK                         _______ _______ _______ _____ _____    ______ ____
ROOT
ATOM      1  C   UNL     1      -0.067   1.515   0.003  0.00  0.00    +0.022 C 
ATOM      2  C   UNL     1      -0.034  -0.015  -0.005  0.00  0.00    +0.015 C 
ATOM      3  C   UNL     1       0.735  -0.509  -1.219  0.00  0.00    +0.050 C 
ATOM      4  C   UNL     1       0.994  -1.994  -1.227  0.00  0.00    -0.037 C 
ATOM      5  C   UNL     1       0.998  -2.800  -0.183  0.00  0.00    -0.010 C 
ATOM      6  C   UNL     1       0.703  -2.419   1.249  0.00  0.00    +0.106 C 
ATOM      7  S   UNL     1       0.842  -0.625   1.472  0.00  0.00    -0.149 S 
ATOM      8  C   UNL     1       1.319  -4.237  -0.364  0.00  0.00    +0.103 C 
ATOM      9  N   UNL     1       1.582  -4.752  -1.549  0.00  0.00    -0.176 NA
ATOM     10  C   UNL     1       1.570  -4.002  -2.634  0.00  0.00    +0.258 C 
ATOM     11  O   UNL     1       1.816  -4.528  -3.702  0.00  0.00    -0.272 OA
ATOM     12  C   UNL     1       1.270  -2.546  -2.616  0.00  0.00    +0.205 C 
ATOM     13  C   UNL     1      -1.460  -0.566  -0.030  0.00  0.00    +0.022 C 
ENDROOT
BRANCH   8  14
ATOM     14  C   UNL     1       1.343  -5.109   0.809  0.00  0.00    +0.151 A 
ATOM     15  C   UNL     1       2.047  -6.291   0.930  0.00  0.00    +0.051 A 
ATOM     16  C   UNL     1       1.779  -6.785   2.213  0.00  0.00    +0.042 A 
ATOM     17  C   UNL     1       0.943  -5.908   2.814  0.00  0.00    +0.196 A 
ATOM     18  O   UNL     1       0.687  -4.900   1.970  0.00  0.00    -0.462 OA
ENDBRANCH   8  14
BRANCH  12  19
ATOM     19  C   UNL     1       2.417  -1.823  -3.190  0.00  0.00    +0.080 C 
ATOM     20  N   UNL     1       3.301  -1.265  -3.633  0.00  0.00    -0.195 NA
ENDBRANCH  12  19
TORSDOF 2
