REMARK  Name = ZINC20729436
REMARK  9 active torsions:
REMARK  status: ('A' for Active; 'I' for Inactive)
REMARK    1  A    between atoms: C_1  and  C_2
REMARK    2  A    between atoms: C_2  and  C_3
REMARK    3  A    between atoms: C_2  and  C_4
REMARK    4  A    between atoms: C_4  and  C_5
REMARK    5  A    between atoms: C_5  and  C_7
REMARK    6  A    between atoms: C_5  and  N_11
REMARK    7  A    between atoms: C_7  and  O_9
REMARK    8  A    between atoms: O_9  and  C_10
REMARK    9  A    between atoms: C_23  and  C_25
REMARK                            x       y       z     vdW  Elec       q    Type
REMARK                         _______ _______ _______ _____ _____    ______ ____
ROOT
ATOM      1  N   UNL     1      -2.414   1.011  -3.291  0.00  0.00    -0.286 N 
ATOM      2  C   UNL     1      -2.417   1.693  -2.128  0.00  0.00    +0.304 C 
ATOM      3  O   UNL     1      -2.412   1.093  -1.071  0.00  0.00    -0.253 OA
ATOM      4  N   UNL     1      -2.425   3.041  -2.138  0.00  0.00    -0.273 N 
ATOM      5  C   UNL     1      -2.311   3.804  -0.886  0.00  0.00    +0.116 C 
ATOM      6  C   UNL     1      -1.004   4.609  -0.906  0.00  0.00    +0.074 C 
ATOM      7  C   UNL     1      -0.862   5.269  -2.252  0.00  0.00    +0.040 A 
ATOM      8  C   UNL     1      -1.538   4.908  -3.364  0.00  0.00    +0.062 A 
ATOM      9  N   UNL     1      -1.154   5.708  -4.361  0.00  0.00    -0.348 N 
ATOM     10  C   UNL     1      -0.266   6.557  -3.912  0.00  0.00    +0.171 A 
ATOM     11  N   UNL     1      -0.059   6.314  -2.597  0.00  0.00    -0.349 N 
ATOM     12  H   UNL     1       0.548   6.793  -2.011  0.00  0.00    +0.166 HD
ATOM     13  C   UNL     1      -2.541   3.786  -3.405  0.00  0.00    +0.159 C 
ATOM     14  H   UNL     1      -2.488   1.487  -4.133  0.00  0.00    +0.151 HD
ATOM     15  H   UNL     1      -1.481   5.667  -5.274  0.00  0.00    +0.167 HD
ENDROOT
BRANCH  13  16
ATOM     16  C   UNL     1      -3.931   4.352  -3.541  0.00  0.00    +0.017 A 
ATOM     17  C   UNL     1      -4.110   5.647  -3.989  0.00  0.00    +0.009 A 
ATOM     18  C   UNL     1      -5.384   6.168  -4.115  0.00  0.00    +0.003 A 
ATOM     19  C   UNL     1      -6.483   5.394  -3.792  0.00  0.00    +0.041 A 
ATOM     20  C   UNL     1      -6.308   4.097  -3.343  0.00  0.00    +0.159 A 
ATOM     21  C   UNL     1      -5.030   3.573  -3.222  0.00  0.00    +0.164 A 
ATOM     22  F   UNL     1      -4.857   2.305  -2.789  0.00  0.00    -0.202 F 
ATOM     23  F   UNL     1      -7.382   3.340  -3.027  0.00  0.00    -0.202 F 
ENDBRANCH  13  16
BRANCH   1  24
ATOM     24  C   UNL     1      -2.301  -0.450  -3.283  0.00  0.00    +0.183 C 
BRANCH  24  25
ATOM     25  C   UNL     1      -0.847  -0.840  -3.217  0.00  0.00    +0.327 C 
ATOM     26  O   UNL     1       0.007   0.014  -3.181  0.00  0.00    -0.249 OA
BRANCH  25  27
ATOM     27  O   UNL     1      -0.500  -2.137  -3.199  0.00  0.00    -0.467 OA
ATOM     28  C   UNL     1       0.896  -2.434  -3.136  0.00  0.00    +0.280 C 
ENDBRANCH  25  27
ENDBRANCH  24  25
BRANCH  24  29
ATOM     29  C   UNL     1      -2.924  -1.017  -4.559  0.00  0.00    +0.036 C 
BRANCH  29  31
ATOM     30  C   UNL     1      -5.010  -1.119  -5.931  0.00  0.00    +0.007 C 
ATOM     31  C   UNL     1      -4.418  -0.686  -4.588  0.00  0.00    -0.015 C 
ATOM     32  C   UNL     1      -5.127  -1.431  -3.455  0.00  0.00    +0.007 C 
ENDBRANCH  29  31
ENDBRANCH  24  29
ENDBRANCH   1  24
TORSDOF 6
