REMARK  Name = ZINC36803018
REMARK  11 active torsions:
REMARK  status: ('A' for Active; 'I' for Inactive)
REMARK    1  A    between atoms: C_1  and  C_2
REMARK    2  A    between atoms: C_2  and  C_3
REMARK    3  A    between atoms: C_10  and  C_12
REMARK    4  A    between atoms: C_12  and  S_13
REMARK    5  A    between atoms: S_13  and  C_14
REMARK    6  A    between atoms: N_27  and  C_28
REMARK    7  A    between atoms: C_28  and  C_29
REMARK    8  A    between atoms: C_29  and  C_30
REMARK    9  A    between atoms: C_30  and  N_31
REMARK   10  A    between atoms: N_31  and  C_32
REMARK   11  A    between atoms: N_31  and  C_33
REMARK                            x       y       z     vdW  Elec       q    Type
REMARK                         _______ _______ _______ _____ _____    ______ ____
ROOT
ATOM      1  C   UNL     1       6.132   2.336   1.199  0.00  0.00    +0.173 A 
ATOM      2  N   UNL     1       6.842   1.813   0.219  0.00  0.00    -0.216 NA
ATOM      3  C   UNL     1       8.142   2.062   0.114  0.00  0.00    +0.117 A 
ATOM      4  C   UNL     1       8.821   2.885   1.027  0.00  0.00    +0.076 A 
ATOM      5  C   UNL     1      10.253   3.067   0.781  0.00  0.00    -0.023 A 
ATOM      6  C   UNL     1      10.776   2.433  -0.288  0.00  0.00    -0.004 A 
ATOM      7  S   UNL     1       9.414   1.569  -1.022  0.00  0.00    -0.073 S 
ATOM      8  C   UNL     1      12.201   2.457  -0.750  0.00  0.00    +0.043 C 
ATOM      9  C   UNL     1      12.921   3.613  -0.041  0.00  0.00    +0.005 C 
ATOM     10  C   UNL     1      12.596   3.550   1.454  0.00  0.00    +0.005 C 
ATOM     11  C   UNL     1      11.132   3.929   1.683  0.00  0.00    +0.037 C 
ATOM     12  C   UNL     1       8.025   3.439   2.080  0.00  0.00    +0.263 A 
ATOM     13  O   UNL     1       8.530   4.166   2.919  0.00  0.00    -0.267 OA
ATOM     14  N   UNL     1       6.712   3.151   2.127  0.00  0.00    -0.287 N 
ENDROOT
BRANCH   1  15
ATOM     15  S   UNL     1       4.409   1.983   1.308  0.00  0.00    -0.078 S 
BRANCH  15  16
ATOM     16  C   UNL     1       4.096   0.886  -0.103  0.00  0.00    +0.173 C 
BRANCH  16  23
ATOM     17  C   UNL     1       0.735  -0.599  -1.203  0.00  0.00    +0.076 C 
ATOM     18  C   UNL     1       0.532  -2.118  -1.211  0.00  0.00    +0.022 C 
ATOM     19  C   UNL     1       1.382  -2.736  -2.323  0.00  0.00    +0.003 C 
ATOM     20  C   UNL     1       2.862  -2.448  -2.057  0.00  0.00    +0.019 C 
ATOM     21  C   UNL     1       3.091  -0.934  -2.058  0.00  0.00    +0.108 C 
ATOM     22  N   UNL     1       2.172  -0.312  -1.095  0.00  0.00    -0.298 N 
ATOM     23  C   UNL     1       2.638   0.503  -0.128  0.00  0.00    +0.226 C 
ATOM     24  O   UNL     1       1.885   0.928   0.722  0.00  0.00    -0.275 OA
BRANCH  17  26
ATOM     25  C   UNL     1      -1.497  -0.289  -0.125  0.00  0.00    +0.006 C 
ATOM     26  C   UNL     1      -0.001   0.011  -0.009  0.00  0.00    +0.019 C 
ENDBRANCH  17  26
ENDBRANCH  16  23
ENDBRANCH  15  16
ENDBRANCH   1  15
BRANCH  14  27
ATOM     27  C   UNL     1       5.890   3.719   3.198  0.00  0.00    +0.125 C 
BRANCH  27  28
ATOM     28  C   UNL     1       5.890   2.771   4.399  0.00  0.00    +0.003 C 
BRANCH  28  29
ATOM     29  C   UNL     1       5.032   3.364   5.518  0.00  0.00    -0.078 C 
BRANCH  29  30
ATOM     30  N   UNL     1       5.032   2.453   6.671  0.00  0.00    +0.376 N 
ATOM     31  C   UNL     1       6.389   2.367   7.226  0.00  0.00    -0.097 C 
ATOM     32  C   UNL     1       4.114   2.963   7.698  0.00  0.00    -0.097 C 
ATOM     33  H   UNL     1       4.731   1.537   6.375  0.00  0.00    -0.083 HD
ENDBRANCH  29  30
ENDBRANCH  28  29
ENDBRANCH  27  28
ENDBRANCH  14  27
TORSDOF 8
