REMARK  Name = ZINC53517347
REMARK  8 active torsions:
REMARK  status: ('A' for Active; 'I' for Inactive)
REMARK    1  A    between atoms: C_1  and  C_2
REMARK    2  A    between atoms: C_4  and  C_15
REMARK    3  A    between atoms: C_5  and  C_14
REMARK    4  A    between atoms: N_6  and  C_7
REMARK    5  A    between atoms: C_7  and  C_8
REMARK    6  A    between atoms: C_15  and  C_17
REMARK    7  A    between atoms: C_17  and  N_18
REMARK    8  A    between atoms: C_21  and  N_24
REMARK                            x       y       z     vdW  Elec       q    Type
REMARK                         _______ _______ _______ _____ _____    ______ ____
ROOT
ATOM      1  N   UNL     1       0.052  -4.614  -3.541  0.00  0.00    -0.295 NA
ATOM      2  C   UNL     1      -1.188  -5.339  -3.232  0.00  0.00    +0.087 C 
ATOM      3  C   UNL     1      -1.076  -6.780  -3.735  0.00  0.00    +0.040 C 
ATOM      4  C   UNL     1      -0.831  -6.771  -5.246  0.00  0.00    +0.095 C 
ATOM      5  C   UNL     1       0.438  -5.969  -5.545  0.00  0.00    +0.040 C 
ATOM      6  C   UNL     1       0.283  -4.551  -4.989  0.00  0.00    +0.087 C 
ENDROOT
BRANCH   4   7
ATOM      7  N   UNL     1      -0.665  -8.146  -5.724  0.00  0.00    -0.289 N 
ATOM      8  C   UNL     1      -1.460  -8.779  -6.676  0.00  0.00    +0.070 A 
ATOM      9  C   UNL     1      -2.560  -8.376  -7.419  0.00  0.00    +0.028 A 
ATOM     10  C   UNL     1      -3.149  -9.253  -8.307  0.00  0.00    +0.002 A 
ATOM     11  C   UNL     1      -2.646 -10.534  -8.460  0.00  0.00    +0.002 A 
ATOM     12  C   UNL     1      -1.552 -10.946  -7.724  0.00  0.00    +0.028 A 
ATOM     13  C   UNL     1      -0.954 -10.071  -6.830  0.00  0.00    +0.067 A 
ATOM     14  N   UNL     1       0.133 -10.183  -5.966  0.00  0.00    -0.306 N 
ATOM     15  H   UNL     1       0.689 -10.969  -5.852  0.00  0.00    +0.170 HD
ATOM     16  C   UNL     1       0.285  -9.011  -5.321  0.00  0.00    +0.328 A 
ATOM     17  O   UNL     1       1.147  -8.770  -4.497  0.00  0.00    -0.247 OA
ENDBRANCH   4   7
BRANCH   1  18
ATOM     18  C   UNL     1       0.035  -3.269  -2.951  0.00  0.00    +0.164 C 
BRANCH  18  19
ATOM     19  C   UNL     1       0.043  -3.379  -1.448  0.00  0.00    +0.179 C 
ATOM     20  O   UNL     1       0.060  -4.471  -0.920  0.00  0.00    -0.291 OA
BRANCH  19  24
ATOM     21  C   UNL     1      -0.018   1.503   0.010  0.00  0.00    +0.063 C 
ATOM     22  C   UNL     1       0.002  -0.004   0.002  0.00  0.00    +0.017 A 
ATOM     23  C   UNL     1       0.008  -0.777  -1.097  0.00  0.00    +0.034 A 
ATOM     24  C   UNL     1       0.030  -2.167  -0.625  0.00  0.00    +0.039 A 
ATOM     25  C   UNL     1       0.035  -2.098   0.755  0.00  0.00    +0.026 A 
ATOM     26  N   UNL     1       0.023  -0.801   1.110  0.00  0.00    -0.345 N 
ATOM     27  C   UNL     1       0.056  -3.273   1.700  0.00  0.00    +0.064 C 
BRANCH  26  28
ATOM     28  C   UNL     1       0.029  -0.312   2.491  0.00  0.00    +0.153 C 
BRANCH  28  29
ATOM     29  C   UNL     1      -1.411  -0.163   2.985  0.00  0.00    +0.138 C 
ATOM     30  C   UNL     1      -1.427   0.267   4.474  0.00  0.00    +0.035 C 
ATOM     31  C   UNL     1      -2.813   0.961   4.565  0.00  0.00    +0.031 C 
ATOM     32  C   UNL     1      -2.952   1.602   3.167  0.00  0.00    +0.160 C 
ATOM     33  O   UNL     1      -2.073   0.899   2.279  0.00  0.00    -0.375 OA
ENDBRANCH  28  29
ENDBRANCH  26  28
ENDBRANCH  19  24
ENDBRANCH  18  19
ENDBRANCH   1  18
TORSDOF 6
