REMARK  Name = ZINC51319174
REMARK  5 active torsions:
REMARK  status: ('A' for Active; 'I' for Inactive)
REMARK    1  A    between atoms: C_7  and  C_23
REMARK    2  A    between atoms: N_9  and  C_10
REMARK    3  A    between atoms: C_10  and  C_11
REMARK    4  A    between atoms: N_13  and  C_14
REMARK    5  A    between atoms: C_14  and  C_15
REMARK                            x       y       z     vdW  Elec       q    Type
REMARK                         _______ _______ _______ _____ _____    ______ ____
ROOT
ATOM      1  C   UNL     1       5.354  -0.290   1.363  0.00  0.00    +0.233 C 
ATOM      2  O   UNL     1       4.579  -0.403   2.288  0.00  0.00    -0.274 OA
ATOM      3  N   UNL     1       6.639   0.042   1.597  0.00  0.00    -0.310 N 
ATOM      4  H   UNL     1       7.259   0.133   0.857  0.00  0.00    +0.149 HD
ENDROOT
BRANCH   1   5
ATOM      5  C   UNL     1       4.881  -0.522  -0.049  0.00  0.00    +0.217 C 
BRANCH   5  14
ATOM      6  C   UNL     1      -0.017   1.373   0.010  0.00  0.00    +0.001 A 
ATOM      7  C   UNL     1       1.172   2.090   0.002  0.00  0.00    +0.002 A 
ATOM      8  C   UNL     1       2.385   1.437  -0.013  0.00  0.00    +0.026 A 
ATOM      9  C   UNL     1       2.425   0.046  -0.021  0.00  0.00    +0.051 A 
ATOM     10  C   UNL     1       1.222  -0.677  -0.013  0.00  0.00    +0.017 A 
ATOM     11  C   UNL     1       0.002  -0.004   0.002  0.00  0.00    +0.011 A 
ATOM     12  C   UNL     1       1.605  -2.100  -0.025  0.00  0.00    +0.077 A 
ATOM     13  C   UNL     1       2.968  -2.134  -0.038  0.00  0.00    +0.106 A 
ATOM     14  N   UNL     1       3.458  -0.868  -0.036  0.00  0.00    -0.337 N 
BRANCH  12  15
ATOM     15  C   UNL     1       0.720  -3.227  -0.021  0.00  0.00    +0.101 C 
ATOM     16  N   UNL     1       0.019  -4.120  -0.019  0.00  0.00    -0.191 NA
ENDBRANCH  12  15
ENDBRANCH   5  14
ENDBRANCH   1   5
BRANCH   3  17
ATOM     17  C   UNL     1       7.099   0.268   2.969  0.00  0.00    +0.141 C 
BRANCH  17  18
ATOM     18  C   UNL     1       8.563   0.624   2.956  0.00  0.00    -0.012 A 
ATOM     19  C   UNL     1       9.511  -0.340   3.246  0.00  0.00    +0.009 A 
ATOM     20  C   UNL     1      10.854  -0.015   3.235  0.00  0.00    +0.039 A 
ATOM     21  C   UNL     1      11.252   1.277   2.932  0.00  0.00    +0.125 A 
ATOM     22  C   UNL     1      10.303   2.242   2.642  0.00  0.00    +0.058 A 
ATOM     23  C   UNL     1       8.959   1.913   2.649  0.00  0.00    +0.048 A 
ATOM     24 CL   UNL     1       7.768   3.121   2.278  0.00  0.00    -0.083 Cl
ATOM     25  F   UNL     1      12.564   1.595   2.922  0.00  0.00    -0.205 F 
ENDBRANCH  17  18
ENDBRANCH   3  17
TORSDOF 5
