REMARK  Name = ZINC59171131
REMARK  5 active torsions:
REMARK  status: ('A' for Active; 'I' for Inactive)
REMARK    1  A    between atoms: C_1  and  O_2
REMARK    2  A    between atoms: O_2  and  C_3
REMARK    3  A    between atoms: C_7  and  N_9
REMARK    4  A    between atoms: C_11  and  C_22
REMARK    5  A    between atoms: C_22  and  N_24
REMARK                            x       y       z     vdW  Elec       q    Type
REMARK                         _______ _______ _______ _____ _____    ______ ____
ROOT
ATOM      1  N   UNL     1       0.976  -4.149  -2.053  0.00  0.00    -0.325 N 
ATOM      2  C   UNL     1       0.872  -4.625  -3.274  0.00  0.00    +0.209 A 
ATOM      3  C   UNL     1       1.198  -6.034  -3.572  0.00  0.00    +0.064 A 
ATOM      4  C   UNL     1       0.562  -6.614  -4.663  0.00  0.00    +0.027 A 
ATOM      5  C   UNL     1      -0.373  -5.777  -5.418  0.00  0.00    +0.020 A 
ATOM      6  C   UNL     1      -1.247  -6.346  -6.353  0.00  0.00    +0.027 A 
ATOM      7  C   UNL     1      -2.119  -5.538  -7.048  0.00  0.00    +0.020 A 
ATOM      8  C   UNL     1      -2.135  -4.168  -6.827  0.00  0.00    +0.034 A 
ATOM      9  C   UNL     1      -1.279  -3.593  -5.909  0.00  0.00    +0.062 A 
ATOM     10  C   UNL     1      -0.390  -4.388  -5.199  0.00  0.00    +0.151 A 
ATOM     11  O   UNL     1       0.456  -3.838  -4.299  0.00  0.00    -0.438 OA
ATOM     12 BR   UNL     1      -1.316  -1.724  -5.621  0.00  0.00    -0.046 Br
ATOM     13 BR   UNL     1      -3.302  -6.300  -8.312  0.00  0.00    -0.050 Br
ATOM     14  H   UNL     1       1.177  -4.746  -1.315  0.00  0.00    +0.169 HD
ENDROOT
BRANCH   1  19
ATOM     15  C   UNL     1      -0.158  -1.028  -0.524  0.00  0.00    +0.122 A 
ATOM     16  C   UNL     1       0.448  -0.100  -1.362  0.00  0.00    +0.046 A 
ATOM     17  C   UNL     1       1.225  -0.524  -2.425  0.00  0.00    +0.006 A 
ATOM     18  C   UNL     1       1.405  -1.871  -2.660  0.00  0.00    +0.026 A 
ATOM     19  C   UNL     1       0.800  -2.812  -1.823  0.00  0.00    +0.045 A 
ATOM     20  C   UNL     1       0.020  -2.383  -0.747  0.00  0.00    +0.071 A 
BRANCH  15  22
ATOM     21  C   UNL     1      -1.061   0.806   0.689  0.00  0.00    +0.277 C 
ATOM     22  O   UNL     1      -0.921  -0.606   0.518  0.00  0.00    -0.495 OA
ENDBRANCH  15  22
ENDBRANCH   1  19
BRANCH   3  23
ATOM     23  C   UNL     1       2.155  -6.791  -2.750  0.00  0.00    +0.082 C 
ATOM     24  S   UNL     1       3.033  -6.000  -1.511  0.00  0.00    -0.035 S 
BRANCH  23  25
ATOM     25  N   UNL     1       2.340  -8.108  -2.971  0.00  0.00    -0.352 N 
ATOM     26  H   UNL     1       1.842  -8.556  -3.673  0.00  0.00    +0.143 HD
ATOM     27  H   UNL     1       2.970  -8.607  -2.429  0.00  0.00    +0.143 HD
ENDBRANCH  23  25
ENDBRANCH   3  23
TORSDOF 4
