REMARK  Name = ZINC65182722
REMARK  9 active torsions:
REMARK  status: ('A' for Active; 'I' for Inactive)
REMARK    1  A    between atoms: C_1  and  C_2
REMARK    2  A    between atoms: C_7  and  C_13
REMARK    3  A    between atoms: C_9  and  C_12
REMARK    4  A    between atoms: C_16  and  C_19
REMARK    5  A    between atoms: C_19  and  C_20
REMARK    6  A    between atoms: C_20  and  N_21
REMARK    7  A    between atoms: N_21  and  C_22
REMARK    8  A    between atoms: C_23  and  C_25
REMARK    9  A    between atoms: C_30  and  C_31
REMARK                            x       y       z     vdW  Elec       q    Type
REMARK                         _______ _______ _______ _____ _____    ______ ____
ROOT
ATOM      1  C   UNL     1       1.623  -5.374   1.294  0.00  0.00    +0.318 C 
ATOM      2  N   UNL     1       1.785  -6.729   0.743  0.00  0.00    -0.291 N 
ATOM      3  C   UNL     1       1.580  -7.608   1.781  0.00  0.00    +0.139 C 
ATOM      4  N   UNL     1       1.318  -6.991   2.875  0.00  0.00    -0.072 NA
ATOM      5  O   UNL     1       1.322  -5.586   2.682  0.00  0.00    -0.367 OA
ATOM      6  H   UNL     1       1.997  -6.958  -0.175  0.00  0.00    +0.151 HD
ENDROOT
BRANCH   1  13
ATOM      7  C   UNL     1       0.844   0.989  -1.667  0.00  0.00    +0.044 C 
ATOM      8  C   UNL     1       0.811  -0.503  -1.460  0.00  0.00    -0.050 A 
ATOM      9  C   UNL     1       0.996  -1.349  -2.562  0.00  0.00    +0.005 A 
ATOM     10  C   UNL     1       0.980  -2.695  -2.459  0.00  0.00    +0.026 A 
ATOM     11  C   UNL     1       0.769  -3.317  -1.197  0.00  0.00    +0.043 A 
ATOM     12  N   UNL     1       0.710  -4.578  -0.845  0.00  0.00    -0.373 N 
ATOM     13  C   UNL     1       0.468  -4.649   0.600  0.00  0.00    +0.168 C 
ATOM     14  C   UNL     1       0.387  -3.217   1.078  0.00  0.00    -0.036 C 
ATOM     15  C   UNL     1       0.571  -2.445  -0.017  0.00  0.00    -0.001 A 
ATOM     16  C   UNL     1       0.609  -0.991  -0.215  0.00  0.00    +0.013 A 
ATOM     17  C   UNL     1       0.150  -2.744   2.490  0.00  0.00    +0.042 C 
ATOM     18  H   UNL     1       0.810  -5.338  -1.440  0.00  0.00    +0.160 HD
ENDBRANCH   1  13
BRANCH   3  19
ATOM     19  C   UNL     1       1.653  -9.107   1.649  0.00  0.00    +0.094 C 
BRANCH  19  20
ATOM     20  C   UNL     1       1.369  -9.753   3.007  0.00  0.00    +0.115 C 
BRANCH  20  21
ATOM     21  N   UNL     1       1.440 -11.211   2.879  0.00  0.00    -0.300 N 
ATOM     22  C   UNL     1       2.713 -11.904   3.090  0.00  0.00    +0.132 C 
ATOM     23  C   UNL     1       0.334 -11.914   2.567  0.00  0.00    +0.247 C 
ATOM     24  O   UNL     1      -0.699 -11.334   2.293  0.00  0.00    -0.270 OA
BRANCH  23  25
ATOM     25  C   UNL     1       0.376 -13.392   2.556  0.00  0.00    +0.049 A 
ATOM     26  C   UNL     1       0.897 -14.086   3.649  0.00  0.00    +0.013 A 
ATOM     27  C   UNL     1       0.933 -15.465   3.633  0.00  0.00    +0.001 A 
ATOM     28  C   UNL     1       0.454 -16.160   2.537  0.00  0.00    +0.001 A 
ATOM     29  C   UNL     1      -0.064 -15.478   1.450  0.00  0.00    +0.013 A 
ATOM     30  C   UNL     1      -0.111 -14.099   1.456  0.00  0.00    +0.067 A 
BRANCH  30  31
ATOM     31  C   UNL     1      -0.680 -13.358   0.273  0.00  0.00    +0.418 C 
ATOM     32  F   UNL     1      -1.099 -14.277  -0.695  0.00  0.00    -0.166 F 
ATOM     33  F   UNL     1      -1.772 -12.587   0.688  0.00  0.00    -0.166 F 
ATOM     34  F   UNL     1       0.301 -12.522  -0.270  0.00  0.00    -0.166 F 
ENDBRANCH  30  31
ENDBRANCH  23  25
ENDBRANCH  20  21
ENDBRANCH  19  20
ENDBRANCH   3  19
TORSDOF 6
