REMARK  Name = ZINC63213222
REMARK  5 active torsions:
REMARK  status: ('A' for Active; 'I' for Inactive)
REMARK    1  A    between atoms: C_1  and  N_2
REMARK    2  A    between atoms: C_4  and  S_7
REMARK    3  A    between atoms: S_7  and  N_10
REMARK    4  A    between atoms: N_10  and  C_11
REMARK    5  A    between atoms: C_18  and  N_20
REMARK                            x       y       z     vdW  Elec       q    Type
REMARK                         _______ _______ _______ _____ _____    ______ ____
ROOT
ATOM      1  N   UNL     1       0.793  -4.654  -0.708  0.00  0.00    -0.187 NA
ATOM      2  H   UNL     1       1.688  -4.956  -0.926  0.00  0.00    +0.148 HD
ENDROOT
BRANCH   1   3
ATOM      3  C   UNL     1       0.132  -5.141   0.506  0.00  0.00    +0.062 C 
ATOM      4  C   UNL     1       0.500  -4.213   1.679  0.00  0.00    +0.019 C 
ATOM      5  C   UNL     1       0.228  -4.841   3.018  0.00  0.00    +0.001 C 
ATOM      6  C   UNL     1       1.524  -5.512   3.517  0.00  0.00    -0.000 C 
ATOM      7  C   UNL     1       1.748  -6.812   2.901  0.00  0.00    -0.002 C 
ATOM      8  C   UNL     1       1.915  -6.716   1.371  0.00  0.00    -0.015 C 
ATOM      9  C   UNL     1       0.553  -6.603   0.749  0.00  0.00    -0.056 C 
BRANCH   9  10
ATOM     10  N   UNL     1       0.559  -7.316  -0.536  0.00  0.00    +0.381 N 
ATOM     11  H   UNL     1       1.213  -6.872  -1.163  0.00  0.00    -0.090 HD
ATOM     12  H   UNL     1       0.834  -8.275  -0.387  0.00  0.00    -0.090 HD
ATOM     13  H   UNL     1      -0.365  -7.289  -0.940  0.00  0.00    -0.090 HD
ENDBRANCH   9  10
ENDBRANCH   1   3
BRANCH   1  14
ATOM     14  S   UNL     1       0.011  -3.590  -1.706  0.00  0.00    +0.077 S 
ATOM     15  O   UNL     1       0.891  -3.329  -2.791  0.00  0.00    -0.152 OA
ATOM     16  O   UNL     1      -0.502  -2.556  -0.877  0.00  0.00    -0.152 OA
BRANCH  14  20
ATOM     17  C   UNL     1      -4.685  -4.729  -3.793  0.00  0.00    +0.150 C 
ATOM     18  N   UNL     1      -3.334  -4.873  -3.244  0.00  0.00    -0.338 N 
ATOM     19  C   UNL     1      -2.527  -3.862  -2.798  0.00  0.00    +0.135 A 
ATOM     20  C   UNL     1      -1.382  -4.433  -2.379  0.00  0.00    +0.211 A 
ATOM     21  N   UNL     1      -1.487  -5.758  -2.564  0.00  0.00    -0.216 NA
ATOM     22  C   UNL     1      -2.656  -6.029  -3.077  0.00  0.00    +0.201 A 
ENDBRANCH  14  20
ENDBRANCH   1  14
TORSDOF 4
