REMARK  Name = ZINC36119771
REMARK  14 active torsions:
REMARK  status: ('A' for Active; 'I' for Inactive)
REMARK    1  A    between atoms: C_1  and  C_2
REMARK    2  A    between atoms: C_5  and  O_8
REMARK    3  A    between atoms: O_8  and  C_9
REMARK    4  A    between atoms: C_9  and  C_10
REMARK    5  A    between atoms: C_20  and  C_22
REMARK    6  A    between atoms: C_22  and  N_23
REMARK    7  A    between atoms: N_23  and  C_24
REMARK    8  A    between atoms: C_24  and  C_25
REMARK    9  A    between atoms: C_25  and  C_26
REMARK   10  A    between atoms: C_25  and  C_27
REMARK   11  A    between atoms: C_28  and  C_30
REMARK   12  A    between atoms: C_30  and  C_31
REMARK   13  A    between atoms: C_31  and  C_32
REMARK   14  A    between atoms: C_31  and  C_33
REMARK                            x       y       z     vdW  Elec       q    Type
REMARK                         _______ _______ _______ _____ _____    ______ ____
ROOT
ATOM      1  C   UNL     1       0.090  -6.300   1.040  0.00  0.00    +0.144 C 
ATOM      2  C   UNL     1       1.256  -6.683   0.131  0.00  0.00    -0.014 A 
ATOM      3  C   UNL     1       2.587  -6.668   0.547  0.00  0.00    +0.013 A 
ATOM      4  C   UNL     1       3.569  -7.016  -0.314  0.00  0.00    +0.046 A 
ATOM      5  S   UNL     1       2.644  -7.392  -1.795  0.00  0.00    -0.101 S 
ATOM      6  C   UNL     1       1.023  -7.062  -1.155  0.00  0.00    -0.004 A 
ATOM      7  C   UNL     1      -0.292  -7.175  -1.855  0.00  0.00    +0.061 C 
ATOM      8  C   UNL     1      -1.350  -6.414  -1.041  0.00  0.00    +0.114 C 
ATOM      9  N   UNL     1      -1.152  -6.727   0.383  0.00  0.00    -0.289 N 
ATOM     10  C   UNL     1      -2.096  -7.397   1.073  0.00  0.00    +0.234 C 
ATOM     11  O   UNL     1      -1.922  -7.652   2.247  0.00  0.00    -0.274 OA
ENDROOT
BRANCH   1  12
ATOM     12  C   UNL     1       0.072  -4.785   1.249  0.00  0.00    +0.256 C 
BRANCH  12  13
ATOM     13  O   UNL     1       0.057  -4.129  -0.021  0.00  0.00    -0.490 OA
BRANCH  13  18
ATOM     14  C   UNL     1      -0.018   1.503   0.010  0.00  0.00    +0.044 C 
ATOM     15  C   UNL     1       0.002  -0.004   0.002  0.00  0.00    -0.050 A 
ATOM     16  C   UNL     1       0.006  -0.688  -1.200  0.00  0.00    +0.007 A 
ATOM     17  C   UNL     1       0.024  -2.069  -1.210  0.00  0.00    +0.046 A 
ATOM     18  C   UNL     1       0.039  -2.770  -0.013  0.00  0.00    +0.121 A 
ATOM     19  C   UNL     1       0.036  -2.082   1.191  0.00  0.00    +0.046 A 
ATOM     20  C   UNL     1       0.023  -0.701   1.196  0.00  0.00    +0.007 A 
ENDBRANCH  13  18
ENDBRANCH  12  13
ENDBRANCH   1  12
BRANCH  10  21
ATOM     21  C   UNL     1      -3.366  -7.830   0.389  0.00  0.00    +0.203 C 
BRANCH  21  22
ATOM     22  N   UNL     1      -4.222  -8.534   1.347  0.00  0.00    -0.292 N 
ATOM     23  C   UNL     1      -4.113  -9.870   1.493  0.00  0.00    +0.216 C 
ATOM     24  O   UNL     1      -3.306 -10.488   0.832  0.00  0.00    -0.276 OA
BRANCH  22  25
ATOM     25  C   UNL     1      -5.197  -7.787   2.145  0.00  0.00    +0.111 C 
BRANCH  25  26
ATOM     26  C   UNL     1      -6.528  -7.721   1.394  0.00  0.00    +0.000 C 
ATOM     27  C   UNL     1      -7.581  -7.050   2.279  0.00  0.00    +0.009 C 
ATOM     28  C   UNL     1      -6.350  -6.909   0.110  0.00  0.00    +0.009 C 
ENDBRANCH  25  26
ENDBRANCH  22  25
BRANCH  23  29
ATOM     29  C   UNL     1      -4.993 -10.594   2.479  0.00  0.00    +0.099 C 
BRANCH  29  30
ATOM     30  C   UNL     1      -4.670 -12.089   2.449  0.00  0.00    -0.008 C 
ATOM     31  C   UNL     1      -5.473 -12.806   3.535  0.00  0.00    +0.008 C 
ATOM     32  C   UNL     1      -5.037 -12.663   1.079  0.00  0.00    +0.008 C 
ENDBRANCH  29  30
ENDBRANCH  23  29
ENDBRANCH  21  22
ENDBRANCH  10  21
TORSDOF 9
