REMARK  Name = ZINC16756048
REMARK  10 active torsions:
REMARK  status: ('A' for Active; 'I' for Inactive)
REMARK    1  A    between atoms: C_1  and  O_2
REMARK    2  A    between atoms: O_2  and  C_3
REMARK    3  A    between atoms: C_8  and  C_9
REMARK    4  A    between atoms: C_12  and  S_15
REMARK    5  A    between atoms: N_13  and  N_14
REMARK    6  A    between atoms: S_15  and  C_16
REMARK    7  A    between atoms: C_16  and  C_17
REMARK    8  A    between atoms: N_19  and  C_20
REMARK    9  A    between atoms: C_25  and  O_26
REMARK   10  A    between atoms: O_26  and  C_27
REMARK                            x       y       z     vdW  Elec       q    Type
REMARK                         _______ _______ _______ _____ _____    ______ ____
ROOT
ATOM      1  C   UNL     1       2.232  -8.330  -0.057  0.00  0.00    +0.228 C 
ATOM      2  O   UNL     1       3.440  -8.446  -0.073  0.00  0.00    -0.275 OA
ATOM      3  N   UNL     1       1.450  -9.427  -0.059  0.00  0.00    -0.282 N 
ATOM      4  H   UNL     1       0.487  -9.337   0.021  0.00  0.00    +0.155 HD
ENDROOT
BRANCH   3   5
ATOM      5  C   UNL     1       2.026 -10.698  -0.176  0.00  0.00    +0.079 A 
ATOM      6  C   UNL     1       3.259 -10.951   0.403  0.00  0.00    +0.074 A 
ATOM      7  C   UNL     1       3.834 -12.210   0.295  0.00  0.00    +0.138 A 
ATOM      8  C   UNL     1       3.160 -13.214  -0.413  0.00  0.00    +0.031 A 
ATOM      9  C   UNL     1       1.924 -12.956  -0.999  0.00  0.00    +0.059 A 
ATOM     10  C   UNL     1       1.358 -11.700  -0.881  0.00  0.00    +0.142 A 
ATOM     11  C   UNL     1       4.029 -14.405  -0.345  0.00  0.00    +0.028 A 
ATOM     12  C   UNL     1       3.932 -15.701  -0.838  0.00  0.00    +0.012 A 
ATOM     13  C   UNL     1       4.945 -16.604  -0.592  0.00  0.00    +0.001 A 
ATOM     14  C   UNL     1       6.055 -16.220   0.143  0.00  0.00    +0.004 A 
ATOM     15  C   UNL     1       6.162 -14.937   0.636  0.00  0.00    +0.047 A 
ATOM     16  C   UNL     1       5.151 -14.013   0.399  0.00  0.00    +0.136 A 
ATOM     17  O   UNL     1       4.999 -12.719   0.757  0.00  0.00    -0.455 OA
BRANCH  10  18
ATOM     18  O   UNL     1       0.151 -11.442  -1.452  0.00  0.00    -0.493 OA
ATOM     19  C   UNL     1      -0.476 -12.514  -2.158  0.00  0.00    +0.277 C 
ENDBRANCH  10  18
ENDBRANCH   3   5
BRANCH   1  20
ATOM     20  C   UNL     1       1.607  -6.959  -0.033  0.00  0.00    +0.173 C 
BRANCH  20  21
ATOM     21  S   UNL     1       2.909  -5.702  -0.036  0.00  0.00    -0.075 S 
BRANCH  21  25
ATOM     22  C   UNL     1       1.261  -2.160   0.026  0.00  0.00    +0.185 A 
ATOM     23  N   UNL     1       0.222  -2.962   0.036  0.00  0.00    -0.127 NA
ATOM     24  N   UNL     1       0.612  -4.186   0.011  0.00  0.00    -0.121 NA
ATOM     25  C   UNL     1       1.925  -4.241  -0.006  0.00  0.00    +0.209 A 
ATOM     26  N   UNL     1       2.384  -2.954   0.002  0.00  0.00    -0.224 N 
BRANCH  22  32
ATOM     27  C   UNL     1       0.005  -0.004   0.067  0.00  0.00    +0.131 A 
ATOM     28  C   UNL     1      -0.013   1.381   0.084  0.00  0.00    +0.046 A 
ATOM     29  C   UNL     1       1.174   2.090   0.076  0.00  0.00    +0.004 A 
ATOM     30  C   UNL     1       2.386   1.423   0.053  0.00  0.00    +0.001 A 
ATOM     31  C   UNL     1       2.421   0.044   0.036  0.00  0.00    +0.015 A 
ATOM     32  C   UNL     1       1.230  -0.682   0.043  0.00  0.00    +0.062 A 
BRANCH  27  34
ATOM     33  C   UNL     1      -2.371   0.058   0.100  0.00  0.00    +0.277 C 
ATOM     34  O   UNL     1      -1.160  -0.702   0.074  0.00  0.00    -0.494 OA
ENDBRANCH  27  34
ENDBRANCH  22  32
BRANCH  26  35
ATOM     35  N   UNL     1       3.686  -2.542  -0.010  0.00  0.00    -0.295 N 
ATOM     36  H   UNL     1       4.043  -2.444   0.929  0.00  0.00    +0.163 HD
ATOM     37  H   UNL     1       4.260  -3.172  -0.551  0.00  0.00    +0.163 HD
ENDBRANCH  26  35
ENDBRANCH  21  25
ENDBRANCH  20  21
ENDBRANCH   1  20
TORSDOF 8
