REMARK  Name = ZINC05053642
REMARK  5 active torsions:
REMARK  status: ('A' for Active; 'I' for Inactive)
REMARK    1  A    between atoms: C_3  and  C_6
REMARK    2  A    between atoms: C_6  and  N_7
REMARK    3  A    between atoms: C_11  and  N_22
REMARK    4  A    between atoms: C_12  and  N_14
REMARK    5  A    between atoms: N_14  and  C_15
REMARK                            x       y       z     vdW  Elec       q    Type
REMARK                         _______ _______ _______ _____ _____    ______ ____
ROOT
ATOM      1  N   UNL     1      -1.264   3.025   1.474  0.00  0.00    -0.306 N 
ATOM      2  C   UNL     1      -2.471   3.658   1.714  0.00  0.00    +0.219 A 
ATOM      3  N   UNL     1      -3.161   4.139   0.691  0.00  0.00    -0.197 NA
ATOM      4  C   UNL     1      -4.326   4.755   0.883  0.00  0.00    +0.154 A 
ATOM      5  C   UNL     1      -4.815   4.888   2.179  0.00  0.00    +0.205 A 
ATOM      6  C   UNL     1      -4.062   4.370   3.228  0.00  0.00    +0.160 A 
ATOM      7  N   UNL     1      -2.908   3.762   2.959  0.00  0.00    -0.197 NA
ATOM      8  N   UNL     1      -5.042   5.256  -0.193  0.00  0.00    -0.341 N 
ATOM      9  H   UNL     1      -0.749   2.667   2.214  0.00  0.00    +0.149 HD
ATOM     10  H   UNL     1      -4.694   5.160  -1.093  0.00  0.00    +0.144 HD
ATOM     11  H   UNL     1      -5.889   5.703  -0.045  0.00  0.00    +0.144 HD
ENDROOT
BRANCH   5  12
ATOM     12  N   UNL     1      -6.106   5.566   2.436  0.00  0.00    +0.063 N 
ATOM     13  O   UNL     1      -7.140   4.922   2.447  0.00  0.00    -0.126 OA
ATOM     14  O   UNL     1      -6.135   6.767   2.636  0.00  0.00    -0.126 OA
ENDBRANCH   5  12
BRANCH   6  15
ATOM     15  N   UNL     1      -4.510   4.480   4.537  0.00  0.00    -0.297 N 
ATOM     16  H   UNL     1      -5.311   4.990   4.734  0.00  0.00    +0.154 HD
BRANCH  15  17
ATOM     17  C   UNL     1      -3.806   3.856   5.572  0.00  0.00    +0.033 A 
ATOM     18  C   UNL     1      -3.152   2.652   5.341  0.00  0.00    +0.025 A 
ATOM     19  C   UNL     1      -2.453   2.042   6.364  0.00  0.00    +0.022 A 
ATOM     20  C   UNL     1      -2.413   2.622   7.620  0.00  0.00    +0.041 A 
ATOM     21  C   UNL     1      -3.068   3.818   7.853  0.00  0.00    +0.022 A 
ATOM     22  C   UNL     1      -3.764   4.436   6.833  0.00  0.00    +0.025 A 
ATOM     23 CL   UNL     1      -1.539   1.847   8.904  0.00  0.00    -0.084 Cl
ENDBRANCH  15  17
ENDBRANCH   6  15
BRANCH   1  24
ATOM     24  C   UNL     1      -0.766   2.893   0.103  0.00  0.00    +0.178 C 
BRANCH  24  27
ATOM     25  C   UNL     1       2.120   0.601   0.072  0.00  0.00    +0.041 A 
ATOM     26  C   UNL     1       0.727   0.840   0.025  0.00  0.00    +0.046 A 
ATOM     27  C   UNL     1       0.557   2.171   0.116  0.00  0.00    +0.122 A 
ATOM     28  O   UNL     1       1.766   2.748   0.215  0.00  0.00    -0.466 OA
ATOM     29  C   UNL     1       2.717   1.800   0.189  0.00  0.00    +0.195 A 
ENDBRANCH  24  27
ENDBRANCH   1  24
TORSDOF 5
