REMARK  Name = ZINC43619920
REMARK  8 active torsions:
REMARK  status: ('A' for Active; 'I' for Inactive)
REMARK    1  A    between atoms: C_1  and  O_2
REMARK    2  A    between atoms: O_2  and  C_3
REMARK    3  A    between atoms: C_6  and  C_9
REMARK    4  A    between atoms: C_10  and  C_11
REMARK    5  A    between atoms: C_11  and  N_12
REMARK    6  A    between atoms: N_24  and  C_25
REMARK    7  A    between atoms: C_25  and  C_26
REMARK    8  A    between atoms: C_26  and  C_27
REMARK                            x       y       z     vdW  Elec       q    Type
REMARK                         _______ _______ _______ _____ _____    ______ ____
ROOT
ATOM      1  N   UNL     1      -5.718  -5.651  -1.659  0.00  0.00    +0.382 N 
ATOM      2  C   UNL     1      -4.901  -6.815  -1.294  0.00  0.00    -0.077 C 
ATOM      3  C   UNL     1      -4.998  -7.870  -2.398  0.00  0.00    +0.004 C 
ATOM      4  C   UNL     1      -6.455  -8.296  -2.572  0.00  0.00    +0.076 C 
ATOM      5  C   UNL     1      -7.330  -7.074  -2.842  0.00  0.00    -0.007 C 
ATOM      6  C   UNL     1      -7.130  -6.042  -1.729  0.00  0.00    -0.073 C 
ATOM      7  C   UNL     1      -8.799  -7.519  -2.846  0.00  0.00    +0.013 C 
ATOM      8  C   UNL     1      -9.178  -7.946  -1.426  0.00  0.00    +0.096 C 
ATOM      9  C   UNL     1      -8.145  -8.889  -0.881  0.00  0.00    +0.216 C 
ATOM     10  O   UNL     1      -8.438  -9.571   0.079  0.00  0.00    -0.276 OA
ATOM     11  N   UNL     1      -6.927  -8.997  -1.387  0.00  0.00    -0.298 N 
ATOM     12  H   UNL     1      -5.421  -5.302  -2.558  0.00  0.00    -0.081 HD
ENDROOT
BRANCH   1  13
ATOM     13  C   UNL     1      -5.551  -4.599  -0.647  0.00  0.00    -0.051 C 
BRANCH  13  15
ATOM     14  C   UNL     1      -3.869  -2.820  -0.822  0.00  0.00    +0.002 C 
ATOM     15  C   UNL     1      -4.126  -4.111  -0.660  0.00  0.00    -0.045 C 
BRANCH  14  19
ATOM     16  C   UNL     1       0.150  -1.443  -0.858  0.00  0.00    +0.120 A 
ATOM     17  C   UNL     1      -0.893  -0.540  -1.016  0.00  0.00    +0.046 A 
ATOM     18  C   UNL     1      -2.198  -0.983  -1.005  0.00  0.00    +0.011 A 
ATOM     19  C   UNL     1      -2.471  -2.341  -0.835  0.00  0.00    -0.025 A 
ATOM     20  C   UNL     1      -1.420  -3.246  -0.677  0.00  0.00    +0.011 A 
ATOM     21  C   UNL     1      -0.117  -2.796  -0.694  0.00  0.00    +0.046 A 
BRANCH  16  23
ATOM     22  C   UNL     1       1.639   0.402  -1.043  0.00  0.00    +0.277 C 
ATOM     23  O   UNL     1       1.435  -1.002  -0.870  0.00  0.00    -0.495 OA
ENDBRANCH  16  23
ENDBRANCH  14  19
ENDBRANCH  13  15
ENDBRANCH   1  13
BRANCH  11  24
ATOM     24  C   UNL     1      -6.001  -9.909  -0.712  0.00  0.00    +0.108 C 
BRANCH  24  25
ATOM     25  C   UNL     1      -6.046 -11.279  -1.392  0.00  0.00    +0.022 C 
BRANCH  25  26
ATOM     26  C   UNL     1      -4.985 -12.191  -0.774  0.00  0.00    -0.009 C 
ATOM     27  C   UNL     1      -5.331 -12.456   0.693  0.00  0.00    +0.003 C 
ATOM     28  C   UNL     1      -4.270 -13.368   1.311  0.00  0.00    +0.000 C 
ATOM     29  C   UNL     1      -4.230 -14.694   0.549  0.00  0.00    +0.000 C 
ATOM     30  C   UNL     1      -3.884 -14.429  -0.917  0.00  0.00    +0.000 C 
ATOM     31  C   UNL     1      -4.945 -13.517  -1.536  0.00  0.00    +0.003 C 
ENDBRANCH  25  26
ENDBRANCH  24  25
ENDBRANCH  11  24
TORSDOF 7
