REMARK  Name = ZINC32835875
REMARK  10 active torsions:
REMARK  status: ('A' for Active; 'I' for Inactive)
REMARK    1  A    between atoms: C_1  and  C_2
REMARK    2  A    between atoms: C_2  and  C_3
REMARK    3  A    between atoms: C_3  and  C_4
REMARK    4  A    between atoms: C_4  and  N_5
REMARK    5  A    between atoms: C_9  and  C_34
REMARK    6  A    between atoms: C_10  and  C_33
REMARK    7  A    between atoms: C_14  and  S_15
REMARK    8  A    between atoms: S_15  and  C_16
REMARK    9  A    between atoms: C_16  and  C_17
REMARK   10  A    between atoms: C_30  and  C_32
REMARK                            x       y       z     vdW  Elec       q    Type
REMARK                         _______ _______ _______ _____ _____    ______ ____
ROOT
ATOM      1  S   UNL     1      -1.519  -0.894   0.012  0.00  0.00    -0.078 S 
ENDROOT
BRANCH   1  11
ATOM      2  N   UNL     1      -0.016   1.361   0.009  0.00  0.00    -0.287 N 
ATOM      3  C   UNL     1       1.124   2.074   0.003  0.00  0.00    +0.263 A 
ATOM      4  O   UNL     1       1.090   3.293   0.009  0.00  0.00    -0.267 OA
ATOM      5  C   UNL     1       2.377   1.385  -0.013  0.00  0.00    +0.075 A 
ATOM      6  C   UNL     1       3.725   1.926  -0.023  0.00  0.00    -0.026 A 
ATOM      7  C   UNL     1       4.770   1.085  -0.036  0.00  0.00    -0.008 A 
ATOM      8  S   UNL     1       4.004  -0.525  -0.038  0.00  0.00    -0.073 S 
ATOM      9  C   UNL     1       2.303  -0.021  -0.020  0.00  0.00    +0.117 A 
ATOM     10  N   UNL     1       1.142  -0.665  -0.013  0.00  0.00    -0.216 NA
ATOM     11  C   UNL     1       0.002  -0.004   0.002  0.00  0.00    +0.173 A 
ATOM     12  C   UNL     1       6.239   1.420  -0.047  0.00  0.00    +0.052 C 
ATOM     13  C   UNL     1       3.948   3.417  -0.017  0.00  0.00    +0.045 C 
BRANCH   2  14
ATOM     14  C   UNL     1      -1.303   2.062   0.019  0.00  0.00    +0.127 C 
BRANCH  14  15
ATOM     15  C   UNL     1      -1.744   2.298   1.465  0.00  0.00    +0.021 C 
BRANCH  15  17
ATOM     16  C   UNL     1      -3.528   3.267   2.921  0.00  0.00    +0.004 C 
ATOM     17  C   UNL     1      -3.087   3.030   1.476  0.00  0.00    -0.002 C 
ENDBRANCH  15  17
ENDBRANCH  14  15
ENDBRANCH   2  14
ENDBRANCH   1  11
BRANCH   1  18
ATOM     18  C   UNL     1      -0.890  -2.591  -0.003  0.00  0.00    +0.173 C 
BRANCH  18  19
ATOM     19  C   UNL     1      -2.047  -3.556   0.003  0.00  0.00    +0.230 C 
ATOM     20  O   UNL     1      -3.186  -3.137   0.017  0.00  0.00    -0.274 OA
ATOM     21  N   UNL     1      -1.818  -4.884  -0.006  0.00  0.00    -0.266 N 
ATOM     22  C   UNL     1      -0.507  -5.382  -0.022  0.00  0.00    +0.058 A 
ATOM     23  C   UNL     1       0.295  -5.294   1.104  0.00  0.00    +0.025 A 
ATOM     24  C   UNL     1       1.577  -5.811   1.077  0.00  0.00    +0.002 A 
ATOM     25  C   UNL     1       2.061  -6.417  -0.069  0.00  0.00    +0.002 A 
ATOM     26  C   UNL     1       1.269  -6.500  -1.200  0.00  0.00    +0.025 A 
ATOM     27  C   UNL     1      -0.013  -5.975  -1.184  0.00  0.00    +0.055 A 
ATOM     28  N   UNL     1      -0.812  -5.999  -2.332  0.00  0.00    -0.284 N 
ATOM     29  C   UNL     1      -2.093  -6.422  -2.266  0.00  0.00    +0.219 C 
ATOM     30  O   UNL     1      -2.800  -6.359  -3.250  0.00  0.00    -0.275 OA
ATOM     31  C   UNL     1      -2.650  -6.972  -0.980  0.00  0.00    +0.118 C 
ATOM     32  C   UNL     1      -2.932  -5.833   0.006  0.00  0.00    +0.087 C 
ATOM     33  C   UNL     1      -3.098  -6.404   1.416  0.00  0.00    +0.029 C 
ATOM     34  H   UNL     1      -0.398  -5.671  -3.297  0.00  0.00    +0.155 HD
ENDBRANCH  18  19
ENDBRANCH   1  18
TORSDOF 6
