REMARK  Name = ZINC06894671
REMARK  5 active torsions:
REMARK  status: ('A' for Active; 'I' for Inactive)
REMARK    1  A    between atoms: C_1  and  C_2
REMARK    2  A    between atoms: C_2  and  C_4
REMARK    3  A    between atoms: C_2  and  C_26
REMARK    4  A    between atoms: C_4  and  N_5
REMARK    5  A    between atoms: C_6  and  C_8
REMARK                            x       y       z     vdW  Elec       q    Type
REMARK                         _______ _______ _______ _____ _____    ______ ____
ROOT
ATOM      1  C   UNL     1      -2.670   1.070  -2.610  0.00  0.00    +0.076 C 
ATOM      2  C   UNL     1      -1.408   0.437  -1.964  0.00  0.00    -0.003 C 
ATOM      3  C   UNL     1      -0.810   1.638  -1.194  0.00  0.00    -0.066 C 
ATOM      4  C   UNL     1      -0.028   1.121   0.023  0.00  0.00    -0.017 C 
ATOM      5  C   UNL     1      -0.806   1.635   1.256  0.00  0.00    -0.020 C 
ATOM      6  C   UNL     1      -2.231   1.865   0.691  0.00  0.00    -0.077 C 
ATOM      7  C   UNL     1      -3.136   2.069  -1.539  0.00  0.00    +0.052 C 
ATOM      8  C   UNL     1      -3.701   3.311  -2.175  0.00  0.00    -0.027 A 
ATOM      9  C   UNL     1      -3.172   4.266  -3.014  0.00  0.00    +0.004 A 
ATOM     10  C   UNL     1      -3.957   5.321  -3.443  0.00  0.00    +0.000 A 
ATOM     11  C   UNL     1      -5.273   5.413  -3.028  0.00  0.00    +0.002 A 
ATOM     12  C   UNL     1      -5.807   4.457  -2.189  0.00  0.00    +0.023 A 
ATOM     13  C   UNL     1      -5.023   3.392  -1.752  0.00  0.00    +0.036 A 
ATOM     14  N   UNL     1      -5.328   2.318  -0.914  0.00  0.00    -0.286 N 
ATOM     15  C   UNL     1      -4.277   1.496  -0.737  0.00  0.00    +0.212 C 
ATOM     16  O   UNL     1      -4.252   0.488  -0.063  0.00  0.00    -0.277 OA
ATOM     17  H   UNL     1      -6.197   2.180  -0.506  0.00  0.00    +0.155 HD
ATOM     18  N   UNL     1      -1.972   2.352  -0.676  0.00  0.00    +0.394 N 
ATOM     19  H   UNL     1      -1.789   3.362  -0.660  0.00  0.00    -0.079 HD
ENDROOT
BRANCH   1  21
ATOM     20  N   UNL     1      -3.239   1.910  -4.866  0.00  0.00    -0.315 N 
ATOM     21  C   UNL     1      -2.319   1.785  -3.889  0.00  0.00    +0.216 C 
ATOM     22  O   UNL     1      -1.208   2.248  -4.039  0.00  0.00    -0.276 OA
ATOM     23  H   UNL     1      -4.127   1.540  -4.745  0.00  0.00    +0.149 HD
BRANCH  20  24
ATOM     24  C   UNL     1      -2.897   2.605  -6.109  0.00  0.00    +0.112 C 
BRANCH  24  26
ATOM     25  C   UNL     1      -5.235   3.430  -6.415  0.00  0.00    +0.014 C 
ATOM     26  C   UNL     1      -4.109   2.606  -7.043  0.00  0.00    +0.033 C 
BRANCH  26  27
ATOM     27  C   UNL     1      -3.723   3.211  -8.367  0.00  0.00    -0.043 A 
ATOM     28  C   UNL     1      -3.262   4.513  -8.425  0.00  0.00    +0.004 A 
ATOM     29  C   UNL     1      -2.903   5.067  -9.639  0.00  0.00    +0.000 A 
ATOM     30  C   UNL     1      -3.014   4.322 -10.798  0.00  0.00    +0.000 A 
ATOM     31  C   UNL     1      -3.480   3.021 -10.742  0.00  0.00    +0.000 A 
ATOM     32  C   UNL     1      -3.834   2.466  -9.527  0.00  0.00    +0.004 A 
ENDBRANCH  26  27
ENDBRANCH  24  26
ENDBRANCH  20  24
ENDBRANCH   1  21
TORSDOF 4
