REMARK  Name = ZINC17243078
REMARK  14 active torsions:
REMARK  status: ('A' for Active; 'I' for Inactive)
REMARK    1  A    between atoms: C_1  and  C_2
REMARK    2  A    between atoms: C_3  and  C_28
REMARK    3  A    between atoms: C_4  and  C_20
REMARK    4  A    between atoms: C_10  and  S_14
REMARK    5  A    between atoms: S_14  and  C_15
REMARK    6  A    between atoms: C_15  and  C_16
REMARK    7  A    between atoms: C_16  and  C_17
REMARK    8  A    between atoms: C_16  and  C_18
REMARK    9  A    between atoms: C_25  and  O_26
REMARK   10  A    between atoms: O_26  and  C_27
REMARK   11  A    between atoms: C_28  and  O_30
REMARK   12  A    between atoms: O_30  and  C_31
REMARK   13  A    between atoms: C_31  and  C_32
REMARK   14  A    between atoms: C_31  and  C_33
REMARK                            x       y       z     vdW  Elec       q    Type
REMARK                         _______ _______ _______ _____ _____    ______ ____
ROOT
ATOM      1  C   UNL     1      -0.018   1.503   0.010  0.00  0.00    +0.061 C 
ATOM      2  C   UNL     1       0.002  -0.004   0.002  0.00  0.00    +0.017 C 
ATOM      3  C   UNL     1      -1.158  -0.682   0.004  0.00  0.00    +0.065 C 
ATOM      4  C   UNL     1      -1.195  -2.183  -0.013  0.00  0.00    +0.100 C 
ATOM      5  C   UNL     1       0.141  -2.758   0.362  0.00  0.00    +0.069 A 
ATOM      6  C   UNL     1       1.265  -1.992   0.345  0.00  0.00    +0.111 A 
ATOM      7  N   UNL     1       2.466  -2.556   0.689  0.00  0.00    -0.322 N 
ATOM      8  H   UNL     1       3.274  -2.019   0.678  0.00  0.00    +0.169 HD
ATOM      9  C   UNL     1       2.527  -3.870   1.044  0.00  0.00    +0.171 A 
ATOM     10  N   UNL     1       1.445  -4.620   1.067  0.00  0.00    -0.185 NA
ATOM     11  C   UNL     1       0.246  -4.114   0.739  0.00  0.00    +0.280 A 
ATOM     12  O   UNL     1      -0.749  -4.823   0.766  0.00  0.00    -0.265 OA
ATOM     13  N   UNL     1       1.201  -0.662  -0.013  0.00  0.00    -0.304 N 
ATOM     14  H   UNL     1       2.008  -0.190  -0.273  0.00  0.00    +0.153 HD
ENDROOT
BRANCH   4  15
ATOM     15  C   UNL     1      -1.565  -2.654  -1.396  0.00  0.00    +0.007 A 
ATOM     16  C   UNL     1      -0.764  -2.328  -2.474  0.00  0.00    +0.008 A 
ATOM     17  C   UNL     1      -1.103  -2.759  -3.744  0.00  0.00    +0.001 A 
ATOM     18  C   UNL     1      -2.243  -3.517  -3.938  0.00  0.00    +0.004 A 
ATOM     19  C   UNL     1      -3.047  -3.845  -2.863  0.00  0.00    +0.046 A 
ATOM     20  C   UNL     1      -2.706  -3.419  -1.587  0.00  0.00    +0.124 A 
BRANCH  20  21
ATOM     21  O   UNL     1      -3.492  -3.745  -0.528  0.00  0.00    -0.495 OA
ATOM     22  C   UNL     1      -4.651  -4.536  -0.799  0.00  0.00    +0.277 C 
ENDBRANCH  20  21
ENDBRANCH   4  15
BRANCH   3  23
ATOM     23  C   UNL     1      -2.375   0.036   0.023  0.00  0.00    +0.338 C 
ATOM     24  O   UNL     1      -2.363   1.253   0.038  0.00  0.00    -0.245 OA
BRANCH  23  25
ATOM     25  O   UNL     1      -3.550  -0.627   0.025  0.00  0.00    -0.459 OA
BRANCH  25  26
ATOM     26  C   UNL     1      -4.741   0.162   0.045  0.00  0.00    +0.171 C 
ATOM     27  C   UNL     1      -5.179   0.461  -1.390  0.00  0.00    +0.052 C 
ATOM     28  C   UNL     1      -5.850  -0.606   0.767  0.00  0.00    +0.052 C 
ENDBRANCH  25  26
ENDBRANCH  23  25
ENDBRANCH   3  23
BRANCH   9  29
ATOM     29  S   UNL     1       4.080  -4.577   1.482  0.00  0.00    -0.087 S 
BRANCH  29  30
ATOM     30  C   UNL     1       3.682  -6.303   1.872  0.00  0.00    +0.080 C 
BRANCH  30  31
ATOM     31  C   UNL     1       4.960  -7.043   2.273  0.00  0.00    -0.007 C 
ATOM     32  C   UNL     1       5.506  -6.450   3.574  0.00  0.00    +0.008 C 
ATOM     33  C   UNL     1       4.646  -8.526   2.482  0.00  0.00    +0.008 C 
ENDBRANCH  30  31
ENDBRANCH  29  30
ENDBRANCH   9  29
TORSDOF 8
