REMARK  Name = ZINC14954741
REMARK  13 active torsions:
REMARK  status: ('A' for Active; 'I' for Inactive)
REMARK    1  A    between atoms: C_1  and  C_2
REMARK    2  A    between atoms: C_4  and  C_36
REMARK    3  A    between atoms: C_6  and  S_8
REMARK    4  A    between atoms: S_8  and  C_9
REMARK    5  A    between atoms: C_12  and  C_30
REMARK    6  A    between atoms: C_15  and  C_16
REMARK    7  A    between atoms: C_15  and  N_69
REMARK    8  A    between atoms: C_19  and  O_22
REMARK    9  A    between atoms: O_22  and  C_23
REMARK   10  A    between atoms: C_23  and  C_24
REMARK   11  A    between atoms: N_32  and  C_33
REMARK   12  A    between atoms: C_33  and  C_34
REMARK   13  A    between atoms: C_33  and  C_35
REMARK                            x       y       z     vdW  Elec       q    Type
REMARK                         _______ _______ _______ _____ _____    ______ ____
ROOT
ATOM      1  C   UNL     1       5.120   2.710  -2.217  0.00  0.00    +0.037 C 
ATOM      2  C   UNL     1       3.783   2.796  -1.431  0.00  0.00    +0.006 C 
ATOM      3  C   UNL     1       3.736   1.447  -0.681  0.00  0.00    +0.021 C 
ATOM      4  C   UNL     1       5.173   1.206  -2.585  0.00  0.00    -0.063 C 
ATOM      5  N   UNL     1       4.624   0.518  -1.399  0.00  0.00    +0.391 N 
ATOM      6  H   UNL     1       5.394   0.239  -0.781  0.00  0.00    -0.080 HD
ENDROOT
BRANCH   3   7
ATOM      7  C   UNL     1       2.324   0.921  -0.660  0.00  0.00    +0.200 C 
ATOM      8  O   UNL     1       1.796   0.560  -1.691  0.00  0.00    -0.278 OA
ATOM      9  N   UNL     1       1.648   0.851   0.504  0.00  0.00    -0.314 N 
ATOM     10  H   UNL     1       2.071   1.140   1.328  0.00  0.00    +0.149 HD
BRANCH   9  11
ATOM     11  C   UNL     1       0.276   0.340   0.524  0.00  0.00    +0.067 C 
ATOM     12  C   UNL     1      -0.697   1.475   0.197  0.00  0.00    +0.027 C 
ATOM     13  C   UNL     1      -0.040  -0.217   1.914  0.00  0.00    +0.027 C 
ENDBRANCH   9  11
ENDBRANCH   3   7
BRANCH   1  14
ATOM     14  S   UNL     1       5.068   3.740  -3.704  0.00  0.00    -0.085 S 
BRANCH  14  20
ATOM     15  C   UNL     1       9.589   1.355  -3.448  0.00  0.00    +0.066 C 
ATOM     16  C   UNL     1       8.678   2.300  -4.189  0.00  0.00    +0.043 A 
ATOM     17  C   UNL     1       9.095   2.894  -5.370  0.00  0.00    +0.046 A 
ATOM     18  C   UNL     1       8.227   3.758  -6.020  0.00  0.00    +0.043 A 
ATOM     19  N   UNL     1       7.034   3.989  -5.497  0.00  0.00    -0.227 NA
ATOM     20  C   UNL     1       6.666   3.404  -4.365  0.00  0.00    +0.189 A 
ATOM     21  N   UNL     1       7.474   2.578  -3.717  0.00  0.00    -0.227 NA
ATOM     22  C   UNL     1       8.638   4.427  -7.306  0.00  0.00    +0.066 C 
ENDBRANCH  14  20
ENDBRANCH   1  14
BRANCH   5  23
ATOM     23  C   UNL     1       3.870  -0.694  -1.814  0.00  0.00    -0.042 C 
BRANCH  23  24
ATOM     24  C   UNL     1       4.845  -1.777  -2.199  0.00  0.00    -0.064 A 
ATOM     25  C   UNL     1       5.272  -1.886  -3.510  0.00  0.00    +0.005 A 
ATOM     26  C   UNL     1       6.169  -2.875  -3.865  0.00  0.00    +0.046 A 
ATOM     27  C   UNL     1       6.633  -3.765  -2.907  0.00  0.00    +0.121 A 
ATOM     28  C   UNL     1       6.198  -3.657  -1.594  0.00  0.00    +0.046 A 
ATOM     29  C   UNL     1       5.305  -2.663  -1.243  0.00  0.00    +0.005 A 
BRANCH  27  30
ATOM     30  O   UNL     1       7.510  -4.743  -3.255  0.00  0.00    -0.487 OA
BRANCH  30  31
ATOM     31  C   UNL     1       7.915  -4.795  -4.625  0.00  0.00    +0.264 C 
BRANCH  31  32
ATOM     32  C   UNL     1       8.882  -5.933  -4.821  0.00  0.00    -0.010 A 
ATOM     33  C   UNL     1      10.240  -5.720  -4.674  0.00  0.00    +0.007 A 
ATOM     34  C   UNL     1      11.127  -6.765  -4.849  0.00  0.00    +0.000 A 
ATOM     35  C   UNL     1      10.657  -8.022  -5.181  0.00  0.00    +0.000 A 
ATOM     36  C   UNL     1       9.299  -8.235  -5.332  0.00  0.00    +0.000 A 
ATOM     37  C   UNL     1       8.412  -7.190  -5.152  0.00  0.00    +0.007 A 
ENDBRANCH  31  32
ENDBRANCH  30  31
ENDBRANCH  27  30
ENDBRANCH  23  24
ENDBRANCH   5  23
TORSDOF 9
