REMARK  Name = ZINC40155988
REMARK  7 active torsions:
REMARK  status: ('A' for Active; 'I' for Inactive)
REMARK    1  A    between atoms: C_1  and  C_2
REMARK    2  A    between atoms: C_2  and  C_4
REMARK    3  A    between atoms: C_2  and  N_23
REMARK    4  A    between atoms: C_12  and  C_14
REMARK    5  A    between atoms: C_14  and  O_15
REMARK    6  A    between atoms: O_15  and  C_16
REMARK    7  A    between atoms: C_24  and  C_26
REMARK                            x       y       z     vdW  Elec       q    Type
REMARK                         _______ _______ _______ _____ _____    ______ ____
ROOT
ATOM      1  C   UNL     1      -1.420  -0.486   0.130  0.00  0.00    +0.236 C 
ATOM      2  O   UNL     1      -1.880  -1.245  -0.697  0.00  0.00    -0.274 OA
ATOM      3  N   UNL     1      -2.181  -0.075   1.163  0.00  0.00    -0.297 N 
ATOM      4  C   UNL     1      -1.678   0.933   2.108  0.00  0.00    +0.127 C 
ATOM      5  C   UNL     1      -2.677   2.094   2.164  0.00  0.00    +0.127 C 
ATOM      6  N   UNL     1      -4.025   1.545   2.366  0.00  0.00    -0.296 N 
ATOM      7  C   UNL     1      -4.528   0.537   1.422  0.00  0.00    +0.127 C 
ATOM      8  C   UNL     1      -3.531  -0.620   1.362  0.00  0.00    +0.127 C 
ATOM      9  C   UNL     1      -4.786   1.956   3.400  0.00  0.00    +0.253 C 
ATOM     10  O   UNL     1      -4.360   2.788   4.173  0.00  0.00    -0.272 OA
ENDROOT
BRANCH   1  12
ATOM     11  C   UNL     1       0.024   1.330  -0.745  0.00  0.00    +0.038 C 
ATOM     12  C   UNL     1       0.002  -0.005   0.003  0.00  0.00    +0.156 C 
BRANCH  12  13
ATOM     13  N   UNL     1       0.788  -0.993  -0.740  0.00  0.00    -0.300 N 
ATOM     14  C   UNL     1       2.122  -1.064  -0.564  0.00  0.00    +0.251 C 
ATOM     15  O   UNL     1       2.675  -0.306   0.211  0.00  0.00    -0.270 OA
ATOM     16  H   UNL     1       0.348  -1.597  -1.359  0.00  0.00    +0.150 HD
BRANCH  14  17
ATOM     17  C   UNL     1       2.909  -2.053  -1.308  0.00  0.00    +0.074 A 
ATOM     18  C   UNL     1       4.274  -2.292  -1.269  0.00  0.00    +0.021 A 
ATOM     19  C   UNL     1       4.727  -3.297  -2.089  0.00  0.00    +0.008 A 
ATOM     20  C   UNL     1       3.838  -3.971  -2.859  0.00  0.00    +0.046 A 
ATOM     21  S   UNL     1       2.357  -3.267  -2.490  0.00  0.00    -0.092 S 
ENDBRANCH  14  17
ENDBRANCH  12  13
ENDBRANCH   1  12
BRANCH   9  22
ATOM     22  C   UNL     1      -6.166   1.384   3.595  0.00  0.00    +0.324 C 
BRANCH  22  23
ATOM     23  O   UNL     1      -6.768   1.974   4.748  0.00  0.00    -0.483 OA
BRANCH  23  24
ATOM     24  C   UNL     1      -8.024   1.564   5.067  0.00  0.00    +0.121 A 
ATOM     25  C   UNL     1      -8.662   0.609   4.288  0.00  0.00    +0.047 A 
ATOM     26  C   UNL     1      -9.938   0.194   4.613  0.00  0.00    +0.023 A 
ATOM     27  C   UNL     1     -10.582   0.729   5.715  0.00  0.00    +0.041 A 
ATOM     28  C   UNL     1      -9.948   1.682   6.493  0.00  0.00    +0.023 A 
ATOM     29  C   UNL     1      -8.669   2.095   6.175  0.00  0.00    +0.047 A 
ATOM     30 CL   UNL     1     -12.186   0.206   6.121  0.00  0.00    -0.084 Cl
ENDBRANCH  23  24
ENDBRANCH  22  23
ENDBRANCH   9  22
TORSDOF 6
