REMARK  Name = ZINC10245362
REMARK  6 active torsions:
REMARK  status: ('A' for Active; 'I' for Inactive)
REMARK    1  A    between atoms: C_1  and  C_2
REMARK    2  A    between atoms: C_12  and  C_14
REMARK    3  A    between atoms: C_14  and  S_15
REMARK    4  A    between atoms: S_15  and  C_16
REMARK    5  A    between atoms: N_30  and  C_31
REMARK    6  A    between atoms: C_31  and  C_32
REMARK                            x       y       z     vdW  Elec       q    Type
REMARK                         _______ _______ _______ _____ _____    ______ ____
ROOT
ATOM      1  C   UNL     1      -2.995   0.308  -0.959  0.00  0.00    +0.173 A 
ATOM      2  N   UNL     1      -3.745  -0.122  -1.948  0.00  0.00    -0.221 NA
ATOM      3  C   UNL     1      -3.705   0.466  -3.154  0.00  0.00    +0.104 A 
ATOM      4  C   UNL     1      -4.403   0.224  -4.425  0.00  0.00    +0.026 A 
ATOM      5  C   UNL     1      -5.360  -0.707  -4.833  0.00  0.00    +0.012 A 
ATOM      6  C   UNL     1      -5.832  -0.680  -6.115  0.00  0.00    +0.001 A 
ATOM      7  C   UNL     1      -5.366   0.267  -7.016  0.00  0.00    +0.002 A 
ATOM      8  C   UNL     1      -4.422   1.194  -6.635  0.00  0.00    +0.026 A 
ATOM      9  C   UNL     1      -3.927   1.185  -5.332  0.00  0.00    +0.049 A 
ATOM     10  N   UNL     1      -3.000   1.972  -4.683  0.00  0.00    -0.349 N 
ATOM     11  H   UNL     1      -2.519   2.712  -5.085  0.00  0.00    +0.166 HD
ATOM     12  C   UNL     1      -2.856   1.550  -3.370  0.00  0.00    +0.131 A 
ATOM     13  C   UNL     1      -2.060   2.005  -2.298  0.00  0.00    +0.279 A 
ATOM     14  O   UNL     1      -1.306   2.953  -2.440  0.00  0.00    -0.265 OA
ATOM     15  N   UNL     1      -2.146   1.365  -1.112  0.00  0.00    -0.282 N 
ENDROOT
BRANCH   1  16
ATOM     16  S   UNL     1      -3.088  -0.500   0.605  0.00  0.00    -0.078 S 
BRANCH  16  17
ATOM     17  C   UNL     1      -4.323  -1.769   0.230  0.00  0.00    +0.173 C 
BRANCH  17  29
ATOM     18  C   UNL     1      -6.798  -7.989   7.694  0.00  0.00    +0.044 C 
ATOM     19  C   UNL     1      -6.338  -6.992   6.663  0.00  0.00    -0.049 A 
ATOM     20  C   UNL     1      -5.389  -6.034   6.989  0.00  0.00    +0.005 A 
ATOM     21  C   UNL     1      -4.954  -5.115   6.070  0.00  0.00    +0.029 A 
ATOM     22  C   UNL     1      -5.462  -5.117   4.750  0.00  0.00    +0.080 A 
ATOM     23  C   UNL     1      -6.426  -6.107   4.454  0.00  0.00    +0.041 A 
ATOM     24  C   UNL     1      -6.856  -7.023   5.381  0.00  0.00    +0.020 A 
ATOM     25  S   UNL     1      -6.802  -5.771   2.750  0.00  0.00    -0.052 S 
ATOM     26  C   UNL     1      -5.686  -4.391   2.542  0.00  0.00    +0.165 A 
ATOM     27  N   UNL     1      -5.142  -4.289   3.732  0.00  0.00    -0.225 NA
ATOM     28  N   UNL     1      -5.458  -3.620   1.413  0.00  0.00    -0.264 N 
ATOM     29  C   UNL     1      -4.571  -2.607   1.457  0.00  0.00    +0.229 C 
ATOM     30  O   UNL     1      -3.972  -2.370   2.485  0.00  0.00    -0.275 OA
ATOM     31  H   UNL     1      -5.938  -3.810   0.592  0.00  0.00    +0.157 HD
ENDBRANCH  17  29
ENDBRANCH  16  17
ENDBRANCH   1  16
BRANCH  15  32
ATOM     32  C   UNL     1      -1.328   1.812   0.018  0.00  0.00    +0.154 C 
BRANCH  32  33
ATOM     33  C   UNL     1      -0.013   1.076   0.008  0.00  0.00    -0.013 C 
ATOM     34  C   UNL     1       1.113   1.746   0.001  0.00  0.00    +0.005 C 
ENDBRANCH  32  33
ENDBRANCH  15  32
TORSDOF 5
