REMARK  Name = ZINC65179009
REMARK  9 active torsions:
REMARK  status: ('A' for Active; 'I' for Inactive)
REMARK    1  A    between atoms: C_1  and  C_2
REMARK    2  A    between atoms: C_2  and  C_3
REMARK    3  A    between atoms: C_2  and  C_4
REMARK    4  A    between atoms: C_4  and  N_5
REMARK    5  A    between atoms: N_8  and  N_9
REMARK    6  A    between atoms: C_10  and  C_12
REMARK    7  A    between atoms: C_17  and  C_19
REMARK    8  A    between atoms: C_24  and  O_25
REMARK    9  A    between atoms: O_25  and  C_26
REMARK                            x       y       z     vdW  Elec       q    Type
REMARK                         _______ _______ _______ _____ _____    ______ ____
ROOT
ATOM      1  C   UNL     1      -2.999   1.764  -5.908  0.00  0.00    +0.164 C 
ATOM      2  C   UNL     1      -2.362   3.119  -5.533  0.00  0.00    +0.033 C 
ATOM      3  C   UNL     1      -2.506   3.944  -6.839  0.00  0.00    +0.021 C 
ATOM      4  C   UNL     1      -3.869   3.441  -7.376  0.00  0.00    +0.109 C 
ATOM      5  N   UNL     1      -3.898   2.005  -7.046  0.00  0.00    -0.286 N 
ATOM      6  C   UNL     1      -4.628   1.067  -7.683  0.00  0.00    +0.251 C 
ATOM      7  O   UNL     1      -4.500  -0.106  -7.388  0.00  0.00    -0.270 OA
ENDROOT
BRANCH   6   8
ATOM      8  C   UNL     1      -5.581   1.464  -8.736  0.00  0.00    +0.079 A 
ATOM      9  C   UNL     1      -6.308   2.650  -8.616  0.00  0.00    +0.017 A 
ATOM     10  C   UNL     1      -7.196   3.015  -9.604  0.00  0.00    +0.001 A 
ATOM     11  C   UNL     1      -7.372   2.211 -10.717  0.00  0.00    +0.004 A 
ATOM     12  C   UNL     1      -6.660   1.035 -10.850  0.00  0.00    +0.046 A 
ATOM     13  C   UNL     1      -5.758   0.655  -9.867  0.00  0.00    +0.139 A 
BRANCH  13  14
ATOM     14  O   UNL     1      -5.053  -0.497  -9.998  0.00  0.00    -0.433 OA
BRANCH  14  15
ATOM     15  C   UNL     1      -5.286  -1.269 -11.178  0.00  0.00    +0.541 C 
ATOM     16  F   UNL     1      -6.633  -1.644 -11.231  0.00  0.00    -0.166 F 
ATOM     17  F   UNL     1      -4.970  -0.505 -12.306  0.00  0.00    -0.166 F 
ENDBRANCH  14  15
ENDBRANCH  13  14
ENDBRANCH   6   8
BRANCH   1  19
ATOM     18  N   UNL     1      -3.155   0.932  -3.584  0.00  0.00    -0.232 N 
ATOM     19  C   UNL     1      -3.784   1.225  -4.740  0.00  0.00    +0.250 C 
ATOM     20  O   UNL     1      -4.980   1.055  -4.840  0.00  0.00    -0.272 OA
ATOM     21  H   UNL     1      -2.198   1.068  -3.504  0.00  0.00    +0.173 HD
BRANCH  18  25
ATOM     22  N   UNL     1      -1.927   0.327  -1.231  0.00  0.00    -0.298 N 
ATOM     23  C   UNL     1      -3.257   0.138  -1.342  0.00  0.00    +0.316 C 
ATOM     24  O   UNL     1      -3.890  -0.297  -0.399  0.00  0.00    -0.251 OA
ATOM     25  N   UNL     1      -3.885   0.431  -2.498  0.00  0.00    -0.218 N 
ATOM     26  H   UNL     1      -1.422   0.674  -1.983  0.00  0.00    +0.150 HD
ATOM     27  H   UNL     1      -4.842   0.295  -2.578  0.00  0.00    +0.174 HD
BRANCH  22  28
ATOM     28  C   UNL     1      -1.244   0.009   0.026  0.00  0.00    +0.108 C 
BRANCH  28  30
ATOM     29  C   UNL     1       0.447   1.816  -0.312  0.00  0.00    +0.009 C 
ATOM     30  C   UNL     1       0.249   0.312  -0.114  0.00  0.00    -0.000 C 
ATOM     31  C   UNL     1       0.981  -0.136   1.153  0.00  0.00    +0.009 C 
ENDBRANCH  28  30
ENDBRANCH  22  28
ENDBRANCH  18  25
ENDBRANCH   1  19
TORSDOF 7
