REMARK  Name = ZINC39753321
REMARK  13 active torsions:
REMARK  status: ('A' for Active; 'I' for Inactive)
REMARK    1  A    between atoms: C_1  and  C_2
REMARK    2  A    between atoms: C_5  and  N_9
REMARK    3  A    between atoms: C_10  and  C_12
REMARK    4  A    between atoms: C_12  and  C_13
REMARK    5  A    between atoms: C_13  and  C_14
REMARK    6  A    between atoms: C_17  and  S_22
REMARK    7  A    between atoms: N_18  and  C_19
REMARK    8  A    between atoms: C_19  and  C_20
REMARK    9  A    between atoms: S_22  and  C_23
REMARK   10  A    between atoms: C_23  and  C_24
REMARK   11  A    between atoms: C_30  and  C_32
REMARK   12  A    between atoms: C_32  and  C_33
REMARK   13  A    between atoms: C_32  and  C_34
REMARK                            x       y       z     vdW  Elec       q    Type
REMARK                         _______ _______ _______ _____ _____    ______ ____
ROOT
ATOM      1  C   UNL     1       0.560  -8.370   2.536  0.00  0.00    +0.135 A 
ATOM      2  N   UNL     1      -0.416  -9.233   2.572  0.00  0.00    -0.133 NA
ATOM      3  N   UNL     1       0.052 -10.430   2.542  0.00  0.00    -0.122 NA
ATOM      4  C   UNL     1       1.363 -10.395   2.485  0.00  0.00    +0.192 A 
ATOM      5  N   UNL     1       1.728  -9.079   2.474  0.00  0.00    -0.302 N 
ENDROOT
BRANCH   1   6
ATOM      6  C   UNL     1       0.426  -6.869   2.554  0.00  0.00    +0.085 C 
BRANCH   6   7
ATOM      7  C   UNL     1       0.310  -6.351   1.119  0.00  0.00    +0.104 C 
BRANCH   7   9
ATOM      8  N   UNL     1       0.059  -4.170  -0.022  0.00  0.00    -0.285 N 
ATOM      9  C   UNL     1       0.176  -4.850   1.136  0.00  0.00    +0.218 C 
ATOM     10  O   UNL     1       0.174  -4.254   2.192  0.00  0.00    -0.275 OA
ATOM     11  H   UNL     1      -0.015  -4.651  -0.861  0.00  0.00    +0.155 HD
BRANCH   8  16
ATOM     12  C   UNL     1       0.008   1.503   0.012  0.00  0.00    +0.045 C 
ATOM     13  C   UNL     1       0.022  -0.004   0.003  0.00  0.00    -0.032 A 
ATOM     14  C   UNL     1       0.777  -0.693   0.934  0.00  0.00    +0.006 A 
ATOM     15  C   UNL     1       0.792  -2.074   0.928  0.00  0.00    +0.023 A 
ATOM     16  C   UNL     1       0.046  -2.771  -0.014  0.00  0.00    +0.035 A 
ATOM     17  C   UNL     1      -0.712  -2.078  -0.948  0.00  0.00    +0.043 A 
ATOM     18  C   UNL     1      -0.726  -0.695  -0.934  0.00  0.00    +0.046 A 
ATOM     19 CL   UNL     1      -1.678   0.174  -2.096  0.00  0.00    -0.083 Cl
ENDBRANCH   8  16
ENDBRANCH   7   9
ENDBRANCH   6   7
ENDBRANCH   1   6
BRANCH   5  20
ATOM     20  C   UNL     1       3.088  -8.539   2.412  0.00  0.00    +0.152 C 
BRANCH  20  21
ATOM     21  C   UNL     1       3.623  -8.365   3.810  0.00  0.00    -0.013 C 
ATOM     22  C   UNL     1       4.757  -8.925   4.152  0.00  0.00    +0.005 C 
ENDBRANCH  20  21
ENDBRANCH   5  20
BRANCH   4  23
ATOM     23  S   UNL     1       2.446 -11.783   2.426  0.00  0.00    -0.077 S 
BRANCH  23  24
ATOM     24  C   UNL     1       1.330 -13.213   2.462  0.00  0.00    +0.173 C 
BRANCH  24  25
ATOM     25  C   UNL     1       2.139 -14.483   2.416  0.00  0.00    +0.229 C 
ATOM     26  O   UNL     1       3.350 -14.429   2.364  0.00  0.00    -0.275 OA
ATOM     27  N   UNL     1       1.518 -15.679   2.433  0.00  0.00    -0.263 N 
ATOM     28  C   UNL     1       2.265 -16.851   2.391  0.00  0.00    +0.188 A 
ATOM     29  N   UNL     1       3.574 -17.002   2.339  0.00  0.00    -0.126 NA
ATOM     30  N   UNL     1       4.114 -18.144   2.305  0.00  0.00    -0.144 NA
ATOM     31  C   UNL     1       3.347 -19.216   2.322  0.00  0.00    +0.106 A 
ATOM     32  S   UNL     1       1.734 -18.451   2.401  0.00  0.00    -0.035 S 
ATOM     33  H   UNL     1       0.550 -15.722   2.475  0.00  0.00    +0.157 HD
BRANCH  31  34
ATOM     34  C   UNL     1       3.725 -20.675   2.291  0.00  0.00    +0.040 C 
ATOM     35  C   UNL     1       4.503 -20.973   1.007  0.00  0.00    +0.014 C 
ATOM     36  C   UNL     1       4.598 -21.001   3.504  0.00  0.00    +0.014 C 
ENDBRANCH  31  34
ENDBRANCH  24  25
ENDBRANCH  23  24
ENDBRANCH   4  23
TORSDOF 10
