REMARK  Name = ZINC13060156
REMARK  6 active torsions:
REMARK  status: ('A' for Active; 'I' for Inactive)
REMARK    1  A    between atoms: C_1  and  C_2
REMARK    2  A    between atoms: N_7  and  C_8
REMARK    3  A    between atoms: C_8  and  C_10
REMARK    4  A    between atoms: C_8  and  C_17
REMARK    5  A    between atoms: C_15  and  O_16
REMARK    6  A    between atoms: C_26  and  O_27
REMARK                            x       y       z     vdW  Elec       q    Type
REMARK                         _______ _______ _______ _____ _____    ______ ____
ROOT
ATOM      1  C   UNL     1       1.436   2.283   4.760  0.00  0.00    +0.139 C 
ENDROOT
BRANCH   1   8
ATOM      2  C   UNL     1       0.584   0.603  -0.006  0.00  0.00    +0.044 C 
ATOM      3  C   UNL     1      -0.287   1.068   1.132  0.00  0.00    -0.046 A 
ATOM      4  C   UNL     1      -1.669   1.107   0.999  0.00  0.00    +0.021 A 
ATOM      5  C   UNL     1      -2.439   1.533   2.062  0.00  0.00    +0.084 A 
ATOM      6  C   UNL     1      -0.565   1.893   3.360  0.00  0.00    +0.097 A 
ATOM      7  C   UNL     1       0.271   1.470   2.332  0.00  0.00    +0.045 A 
ATOM      8  N   UNL     1      -0.017   2.300   4.571  0.00  0.00    -0.319 N 
ATOM      9  H   UNL     1      -0.596   2.596   5.290  0.00  0.00    +0.148 HD
ATOM     10  N   UNL     1      -1.925   1.935   3.255  0.00  0.00    -0.350 N 
ATOM     11  H   UNL     1      -2.522   2.252   4.028  0.00  0.00    +0.166 HD
ENDBRANCH   1   8
BRANCH   1  12
ATOM     12  C   UNL     1       1.815   3.276   5.828  0.00  0.00    +0.021 A 
ATOM     13  C   UNL     1       2.150   2.820   7.100  0.00  0.00    +0.010 A 
ATOM     14  C   UNL     1       2.503   3.691   8.085  0.00  0.00    +0.010 A 
ATOM     15  C   UNL     1       2.519   5.071   7.823  0.00  0.00    +0.004 A 
ATOM     16  C   UNL     1       2.873   6.002   8.818  0.00  0.00    +0.011 A 
ATOM     17  C   UNL     1       2.867   7.328   8.490  0.00  0.00    +0.020 A 
ATOM     18  C   UNL     1       2.518   7.724   7.201  0.00  0.00    +0.111 A 
ATOM     19  N   UNL     1       2.189   6.854   6.277  0.00  0.00    -0.251 NA
ATOM     20  C   UNL     1       2.174   5.542   6.532  0.00  0.00    +0.113 A 
ATOM     21  C   UNL     1       1.820   4.610   5.535  0.00  0.00    +0.148 A 
BRANCH  21  22
ATOM     22  O   UNL     1       1.485   5.037   4.289  0.00  0.00    -0.504 OA
ATOM     23  H   UNL     1       0.542   5.218   4.176  0.00  0.00    +0.292 HD
ENDBRANCH  21  22
ENDBRANCH   1  12
BRANCH   1  24
ATOM     24  C   UNL     1       1.871   0.903   5.179  0.00  0.00    +0.019 A 
ATOM     25  C   UNL     1       0.970   0.048   5.784  0.00  0.00    +0.009 A 
ATOM     26  C   UNL     1       1.369  -1.219   6.168  0.00  0.00    +0.001 A 
ATOM     27  C   UNL     1       2.670  -1.633   5.949  0.00  0.00    +0.004 A 
ATOM     28  C   UNL     1       3.575  -0.782   5.345  0.00  0.00    +0.046 A 
ATOM     29  C   UNL     1       3.175   0.488   4.953  0.00  0.00    +0.122 A 
BRANCH  29  30
ATOM     30  O   UNL     1       4.062   1.325   4.354  0.00  0.00    -0.506 OA
ATOM     31  H   UNL     1       4.504   1.932   4.963  0.00  0.00    +0.292 HD
ENDBRANCH  29  30
ENDBRANCH   1  24
TORSDOF 5
