REMARK  Name = ZINC13495906
REMARK  13 active torsions:
REMARK  status: ('A' for Active; 'I' for Inactive)
REMARK    1  A    between atoms: C_1  and  C_2
REMARK    2  A    between atoms: C_2  and  C_3
REMARK    3  A    between atoms: C_3  and  C_5
REMARK    4  A    between atoms: C_3  and  N_75
REMARK    5  A    between atoms: N_9  and  C_10
REMARK    6  A    between atoms: C_15  and  C_16
REMARK    7  A    between atoms: C_15  and  N_75
REMARK    8  A    between atoms: C_16  and  C_17
REMARK    9  A    between atoms: C_22  and  C_23
REMARK   10  A    between atoms: C_24  and  C_25
REMARK   11  A    between atoms: C_24  and  N_75
REMARK   12  A    between atoms: C_29  and  C_38
REMARK   13  A    between atoms: C_31  and  C_37
REMARK                            x       y       z     vdW  Elec       q    Type
REMARK                         _______ _______ _______ _____ _____    ______ ____
ROOT
ATOM      1  N   UNL     1      -1.337   8.481  -1.541  0.00  0.00    +0.389 N 
ATOM      2  H   UNL     1      -2.086   8.325  -2.226  0.00  0.00    -0.080 HD
ENDROOT
BRANCH   1   3
ATOM      3  C   UNL     1      -1.498   9.828  -0.954  0.00  0.00    +0.003 C 
BRANCH   3   4
ATOM      4  C   UNL     1      -2.969  10.119  -0.812  0.00  0.00    +0.138 A 
ATOM      5  N   UNL     1      -3.879   9.324  -0.304  0.00  0.00    -0.115 NA
ATOM      6  N   UNL     1      -5.014   9.931  -0.360  0.00  0.00    -0.023 NA
ATOM      7  N   UNL     1      -4.852  11.093  -0.889  0.00  0.00    -0.044 NA
ATOM      8  N   UNL     1      -3.604  11.249  -1.177  0.00  0.00    -0.228 N 
BRANCH   8   9
ATOM      9  C   UNL     1      -2.993  12.431  -1.789  0.00  0.00    +0.111 C 
ATOM     10  C   UNL     1      -3.259  13.675  -0.917  0.00  0.00    +0.027 C 
ATOM     11  C   UNL     1      -3.483  14.816  -1.942  0.00  0.00    +0.002 C 
ATOM     12  C   UNL     1      -4.272  14.110  -3.072  0.00  0.00    +0.002 C 
ATOM     13  C   UNL     1      -3.636  12.707  -3.159  0.00  0.00    +0.027 C 
ENDBRANCH   8   9
ENDBRANCH   3   4
BRANCH   3  15
ATOM     14  C   UNL     1       0.684   9.745   0.261  0.00  0.00    +0.002 C 
ATOM     15  C   UNL     1      -0.830   9.894   0.422  0.00  0.00    -0.011 C 
ENDBRANCH   3  15
ENDBRANCH   1   3
BRANCH   1  16
ATOM     16  C   UNL     1      -0.031   8.380  -2.225  0.00  0.00    -0.073 C 
BRANCH  16  17
ATOM     17  C   UNL     1      -0.100   9.168  -3.535  0.00  0.00    +0.017 C 
BRANCH  17  18
ATOM     18  C   UNL     1       1.170   8.955  -4.317  0.00  0.00    -0.046 A 
ATOM     19  C   UNL     1       2.206   9.866  -4.214  0.00  0.00    +0.004 A 
ATOM     20  C   UNL     1       3.373   9.668  -4.928  0.00  0.00    +0.000 A 
ATOM     21  C   UNL     1       3.500   8.565  -5.753  0.00  0.00    +0.000 A 
ATOM     22  C   UNL     1       2.463   7.658  -5.859  0.00  0.00    +0.003 A 
ATOM     23  C   UNL     1       1.298   7.853  -5.141  0.00  0.00    -0.047 A 
ATOM     24  C   UNL     1       0.166   6.864  -5.258  0.00  0.00    +0.044 C 
ENDBRANCH  17  18
ENDBRANCH  16  17
ENDBRANCH   1  16
BRANCH   1  25
ATOM     25  C   UNL     1      -1.434   7.454  -0.482  0.00  0.00    -0.037 C 
BRANCH  25  26
ATOM     26  C   UNL     1      -1.636   6.108  -1.131  0.00  0.00    +0.001 A 
ATOM     27  C   UNL     1      -0.570   5.301  -1.357  0.00  0.00    +0.017 A 
ATOM     28  C   UNL     1      -0.800   4.000  -1.989  0.00  0.00    -0.001 A 
ATOM     29  C   UNL     1       0.259   3.124  -2.247  0.00  0.00    +0.013 A 
ATOM     30  C   UNL     1       0.011   1.917  -2.837  0.00  0.00    -0.050 A 
ATOM     31  C   UNL     1      -1.284   1.552  -3.183  0.00  0.00    +0.008 A 
ATOM     32  C   UNL     1      -2.341   2.402  -2.943  0.00  0.00    -0.026 A 
ATOM     33  C   UNL     1      -2.114   3.634  -2.337  0.00  0.00    +0.052 A 
ATOM     34  N   UNL     1      -3.154   4.501  -2.080  0.00  0.00    -0.322 N 
ATOM     35  H   UNL     1      -4.059   4.247  -2.321  0.00  0.00    +0.169 HD
ATOM     36  C   UNL     1      -2.933   5.693  -1.499  0.00  0.00    +0.251 A 
ATOM     37  O   UNL     1      -3.877   6.434  -1.287  0.00  0.00    -0.268 OA
ATOM     38  C   UNL     1      -3.740   1.996  -3.329  0.00  0.00    +0.046 C 
ATOM     39  C   UNL     1       1.152   0.973  -3.115  0.00  0.00    +0.044 C 
ENDBRANCH  25  26
ENDBRANCH   1  25
TORSDOF 9
