REMARK  Name = ZINC39607006
REMARK  8 active torsions:
REMARK  status: ('A' for Active; 'I' for Inactive)
REMARK    1  A    between atoms: C_1  and  C_2
REMARK    2  A    between atoms: C_5  and  C_9
REMARK    3  A    between atoms: C_6  and  C_8
REMARK    4  A    between atoms: C_9  and  N_10
REMARK    5  A    between atoms: C_11  and  C_13
REMARK    6  A    between atoms: C_24  and  C_26
REMARK    7  A    between atoms: C_27  and  C_38
REMARK    8  A    between atoms: C_30  and  C_31
REMARK                            x       y       z     vdW  Elec       q    Type
REMARK                         _______ _______ _______ _____ _____    ______ ____
ROOT
ATOM      1  C   UNL     1      -2.909  -6.633   0.512  0.00  0.00    +0.100 C 
ATOM      2  C   UNL     1      -3.350  -6.313   1.958  0.00  0.00    +0.121 C 
ATOM      3  N   UNL     1      -4.126  -7.502   2.384  0.00  0.00    -0.296 N 
ATOM      4  C   UNL     1      -3.381  -8.651   1.815  0.00  0.00    +0.115 C 
ATOM      5  C   UNL     1      -2.930  -8.168   0.422  0.00  0.00    -0.004 C 
ATOM      6  C   UNL     1      -1.534  -8.697   0.107  0.00  0.00    -0.010 C 
ATOM      7  C   UNL     1      -1.591 -10.221  -0.034  0.00  0.00    -0.082 C 
ATOM      8  N   UNL     1      -2.527 -10.580  -1.107  0.00  0.00    +0.379 N 
ATOM      9  C   UNL     1      -3.884 -10.149  -0.753  0.00  0.00    -0.082 C 
ATOM     10  C   UNL     1      -3.924  -8.622  -0.642  0.00  0.00    -0.010 C 
ATOM     11  C   UNL     1      -5.253  -7.532   3.121  0.00  0.00    +0.252 C 
ATOM     12  O   UNL     1      -5.776  -8.597   3.391  0.00  0.00    -0.270 OA
ATOM     13  H   UNL     1      -2.244 -10.127  -1.963  0.00  0.00    -0.086 HD
ATOM     14  H   UNL     1      -2.517 -11.580  -1.239  0.00  0.00    -0.086 HD
ENDROOT
BRANCH  11  15
ATOM     15  C   UNL     1      -5.853  -6.275   3.601  0.00  0.00    +0.106 A 
ATOM     16  C   UNL     1      -6.788  -5.521   2.955  0.00  0.00    +0.147 A 
ATOM     17  O   UNL     1      -7.073  -4.463   3.718  0.00  0.00    -0.359 OA
ATOM     18  N   UNL     1      -6.305  -4.516   4.903  0.00  0.00    -0.077 NA
ATOM     19  C   UNL     1      -5.564  -5.594   4.872  0.00  0.00    +0.127 A 
ATOM     20  C   UNL     1      -7.395  -5.830   1.611  0.00  0.00    +0.090 C 
BRANCH  19  21
ATOM     21  C   UNL     1      -4.611  -6.042   5.917  0.00  0.00    +0.023 A 
ATOM     22  C   UNL     1      -3.879  -7.214   5.740  0.00  0.00    +0.011 A 
ATOM     23  C   UNL     1      -2.994  -7.626   6.716  0.00  0.00    +0.001 A 
ATOM     24  C   UNL     1      -2.833  -6.878   7.869  0.00  0.00    +0.001 A 
ATOM     25  C   UNL     1      -3.557  -5.714   8.051  0.00  0.00    +0.020 A 
ATOM     26  C   UNL     1      -4.441  -5.288   7.078  0.00  0.00    +0.050 A 
ATOM     27 CL   UNL     1      -5.343  -3.822   7.304  0.00  0.00    -0.083 Cl
ENDBRANCH  19  21
ENDBRANCH  11  15
BRANCH   1  29
ATOM     28  N   UNL     1      -1.149  -5.750  -0.985  0.00  0.00    -0.311 N 
ATOM     29  C   UNL     1      -1.518  -6.111   0.260  0.00  0.00    +0.218 C 
ATOM     30  O   UNL     1      -0.731  -6.015   1.178  0.00  0.00    -0.275 OA
ATOM     31  H   UNL     1      -1.778  -5.827  -1.719  0.00  0.00    +0.149 HD
BRANCH  28  32
ATOM     32  C   UNL     1       0.204  -5.243  -1.230  0.00  0.00    +0.139 C 
BRANCH  32  37
ATOM     33  C   UNL     1       0.801  -3.985  -6.838  0.00  0.00    +0.044 C 
ATOM     34  C   UNL     1       0.645  -4.313  -5.375  0.00  0.00    -0.050 A 
ATOM     35  C   UNL     1       1.145  -5.502  -4.877  0.00  0.00    +0.004 A 
ATOM     36  C   UNL     1       1.003  -5.803  -3.535  0.00  0.00    +0.006 A 
ATOM     37  C   UNL     1       0.360  -4.915  -2.692  0.00  0.00    -0.027 A 
ATOM     38  C   UNL     1      -0.139  -3.726  -3.191  0.00  0.00    -0.046 A 
ATOM     39  C   UNL     1       0.008  -3.423  -4.532  0.00  0.00    +0.007 A 
ATOM     40  C   UNL     1      -0.839  -2.759  -2.272  0.00  0.00    +0.044 C 
ENDBRANCH  32  37
ENDBRANCH  28  32
ENDBRANCH   1  29
TORSDOF 5
