REMARK  Name = ZINC57996126
REMARK  10 active torsions:
REMARK  status: ('A' for Active; 'I' for Inactive)
REMARK    1  A    between atoms: C_1  and  C_2
REMARK    2  A    between atoms: C_2  and  N_3
REMARK    3  A    between atoms: C_11  and  C_12
REMARK    4  A    between atoms: C_12  and  N_13
REMARK    5  A    between atoms: C_14  and  C_16
REMARK    6  A    between atoms: C_16  and  C_18
REMARK    7  A    between atoms: C_16  and  N_21
REMARK    8  A    between atoms: C_18  and  C_19
REMARK    9  A    between atoms: C_18  and  C_20
REMARK   10  A    between atoms: C_22  and  C_24
REMARK                            x       y       z     vdW  Elec       q    Type
REMARK                         _______ _______ _______ _____ _____    ______ ____
ROOT
ATOM      1  N   UNL     1       3.343  -2.047   0.317  0.00  0.00    -0.307 N 
ATOM      2  C   UNL     1       3.994  -1.966   1.494  0.00  0.00    +0.234 C 
ATOM      3  O   UNL     1       4.528  -0.927   1.822  0.00  0.00    -0.274 OA
ATOM      4  H   UNL     1       2.975  -2.895   0.023  0.00  0.00    +0.149 HD
ENDROOT
BRANCH   1   5
ATOM      5  C   UNL     1       3.190  -0.854  -0.519  0.00  0.00    +0.178 C 
BRANCH   5  14
ATOM      6  N   UNL     1       1.077  -1.159  -1.903  0.00  0.00    -0.327 N 
ATOM      7  C   UNL     1       0.775  -1.554  -3.190  0.00  0.00    +0.069 A 
ATOM      8  C   UNL     1      -0.407  -1.696  -3.906  0.00  0.00    +0.028 A 
ATOM      9  C   UNL     1      -0.364  -2.124  -5.215  0.00  0.00    +0.002 A 
ATOM     10  C   UNL     1       0.850  -2.413  -5.822  0.00  0.00    +0.002 A 
ATOM     11  C   UNL     1       2.022  -2.279  -5.134  0.00  0.00    +0.030 A 
ATOM     12  C   UNL     1       2.004  -1.845  -3.805  0.00  0.00    +0.089 A 
ATOM     13  N   UNL     1       2.972  -1.619  -2.881  0.00  0.00    -0.231 NA
ATOM     14  C   UNL     1       2.430  -1.211  -1.771  0.00  0.00    +0.128 A 
BRANCH   6  16
ATOM     15  C   UNL     1      -0.117   0.757  -0.961  0.00  0.00    +0.027 C 
ATOM     16  C   UNL     1       0.119  -0.752  -0.872  0.00  0.00    +0.120 C 
ENDBRANCH   6  16
ENDBRANCH   5  14
ENDBRANCH   1   5
BRANCH   2  17
ATOM     17  C   UNL     1       4.060  -3.166   2.403  0.00  0.00    +0.162 C 
BRANCH  17  18
ATOM     18  N   UNL     1       5.278  -3.098   3.215  0.00  0.00    -0.299 N 
ATOM     19  C   UNL     1       5.822  -4.227   3.710  0.00  0.00    +0.251 C 
ATOM     20  O   UNL     1       5.301  -5.303   3.483  0.00  0.00    -0.270 OA
ATOM     21  H   UNL     1       5.693  -2.240   3.396  0.00  0.00    +0.150 HD
BRANCH  19  22
ATOM     22  C   UNL     1       7.040  -4.158   4.522  0.00  0.00    +0.074 A 
ATOM     23  C   UNL     1       7.755  -5.189   5.115  0.00  0.00    +0.021 A 
ATOM     24  C   UNL     1       8.870  -4.811   5.824  0.00  0.00    +0.008 A 
ATOM     25  C   UNL     1       9.190  -3.495   5.897  0.00  0.00    +0.046 A 
ATOM     26  S   UNL     1       7.994  -2.730   5.000  0.00  0.00    -0.092 S 
ENDBRANCH  19  22
ENDBRANCH  17  18
BRANCH  17  27
ATOM     27  C   UNL     1       2.836  -3.179   3.320  0.00  0.00    +0.012 C 
ATOM     28  C   UNL     1       1.567  -3.305   2.475  0.00  0.00    +0.009 C 
ATOM     29  C   UNL     1       2.930  -4.367   4.280  0.00  0.00    +0.009 C 
ENDBRANCH  17  27
ENDBRANCH   2  17
TORSDOF 7
