REMARK  Name = ZINC19500440
REMARK  7 active torsions:
REMARK  status: ('A' for Active; 'I' for Inactive)
REMARK    1  A    between atoms: C_1  and  C_2
REMARK    2  A    between atoms: C_2  and  C_3
REMARK    3  A    between atoms: C_3  and  C_5
REMARK    4  A    between atoms: C_3  and  N_12
REMARK    5  A    between atoms: C_14  and  C_17
REMARK    6  A    between atoms: N_22  and  C_32
REMARK    7  A    between atoms: C_24  and  C_26
REMARK                            x       y       z     vdW  Elec       q    Type
REMARK                         _______ _______ _______ _____ _____    ______ ____
ROOT
ATOM      1  N   UNL     1       3.798   4.963   0.160  0.00  0.00    -0.244 N 
ATOM      2  C   UNL     1       4.537   4.210  -0.679  0.00  0.00    +0.144 A 
ATOM      3  C   UNL     1       4.557   4.860  -1.880  0.00  0.00    +0.167 A 
ATOM      4  N   UNL     1       3.845   5.994  -1.762  0.00  0.00    -0.125 NA
ATOM      5  N   UNL     1       3.381   6.088  -0.565  0.00  0.00    -0.064 NA
ENDROOT
BRANCH   3   6
ATOM      6  C   UNL     1       5.247   4.399  -3.100  0.00  0.00    +0.269 C 
ATOM      7  O   UNL     1       5.788   3.309  -3.117  0.00  0.00    -0.268 OA
ATOM      8  N   UNL     1       5.279   5.184  -4.194  0.00  0.00    -0.287 N 
ATOM      9  C   UNL     1       4.510   6.437  -4.247  0.00  0.00    +0.124 C 
ATOM     10  C   UNL     1       3.679   6.445  -5.535  0.00  0.00    +0.103 C 
ATOM     11  N   UNL     1       4.563   6.209  -6.685  0.00  0.00    -0.302 NA
ATOM     12  C   UNL     1       5.190   4.883  -6.612  0.00  0.00    +0.111 C 
ATOM     13  C   UNL     1       6.087   4.814  -5.366  0.00  0.00    +0.121 C 
ATOM     14  C   UNL     1       3.836   6.380  -7.950  0.00  0.00    +0.105 C 
BRANCH  13  15
ATOM     15  C   UNL     1       6.613   3.412  -5.196  0.00  0.00    -0.026 A 
ATOM     16  C   UNL     1       5.740   2.340  -5.207  0.00  0.00    +0.005 A 
ATOM     17  C   UNL     1       6.223   1.054  -5.057  0.00  0.00    +0.000 A 
ATOM     18  C   UNL     1       7.578   0.840  -4.883  0.00  0.00    +0.000 A 
ATOM     19  C   UNL     1       8.450   1.912  -4.865  0.00  0.00    +0.000 A 
ATOM     20  C   UNL     1       7.968   3.198  -5.022  0.00  0.00    +0.005 A 
ENDBRANCH  13  15
ENDBRANCH   3   6
BRANCH   1  21
ATOM     21  C   UNL     1       3.495   4.665   1.563  0.00  0.00    +0.138 C 
BRANCH  21  22
ATOM     22  C   UNL     1       3.280   3.183   1.727  0.00  0.00    -0.023 A 
ATOM     23  C   UNL     1       4.366   2.340   1.879  0.00  0.00    +0.008 A 
ATOM     24  C   UNL     1       4.170   0.981   2.030  0.00  0.00    +0.038 A 
ATOM     25  C   UNL     1       2.886   0.462   2.028  0.00  0.00    +0.123 A 
ATOM     26  C   UNL     1       1.800   1.307   1.875  0.00  0.00    +0.038 A 
ATOM     27  C   UNL     1       1.998   2.666   1.725  0.00  0.00    +0.008 A 
ATOM     28  F   UNL     1       2.693  -0.867   2.175  0.00  0.00    -0.205 F 
ENDBRANCH  21  22
BRANCH  21  30
ATOM     29  C   UNL     1       4.804   6.634   2.373  0.00  0.00    +0.006 C 
ATOM     30  C   UNL     1       4.665   5.112   2.443  0.00  0.00    +0.028 C 
ENDBRANCH  21  30
ENDBRANCH   1  21
TORSDOF 5
