REMARK  Name = ZINC52094631
REMARK  8 active torsions:
REMARK  status: ('A' for Active; 'I' for Inactive)
REMARK    1  A    between atoms: C_1  and  C_2
REMARK    2  A    between atoms: C_2  and  N_3
REMARK    3  A    between atoms: N_3  and  C_4
REMARK    4  A    between atoms: C_4  and  C_6
REMARK    5  A    between atoms: C_4  and  C_19
REMARK    6  A    between atoms: C_19  and  C_20
REMARK    7  A    between atoms: C_19  and  C_21
REMARK    8  A    between atoms: C_19  and  C_22
REMARK                            x       y       z     vdW  Elec       q    Type
REMARK                         _______ _______ _______ _____ _____    ______ ____
ROOT
ATOM      1  C   UNL     1      -2.678  -2.424   0.005  0.00  0.00    -0.045 A 
ATOM      2  C   UNL     1      -3.641  -1.548  -0.456  0.00  0.00    +0.031 A 
ATOM      3  C   UNL     1      -4.969  -1.943  -0.501  0.00  0.00    +0.067 A 
ATOM      4  C   UNL     1      -5.328  -3.225  -0.080  0.00  0.00    +0.068 A 
ATOM      5  C   UNL     1      -4.356  -4.098   0.381  0.00  0.00    +0.043 A 
ATOM      6  C   UNL     1      -3.033  -3.698   0.417  0.00  0.00    +0.022 A 
ATOM      7 BR   UNL     1      -1.704  -4.891   1.038  0.00  0.00    -0.050 Br
ATOM      8  N   UNL     1      -6.708  -3.329  -0.240  0.00  0.00    -0.306 N 
ATOM      9  H   UNL     1      -7.246  -4.109  -0.030  0.00  0.00    +0.170 HD
ATOM     10  C   UNL     1      -7.167  -2.165  -0.735  0.00  0.00    +0.325 A 
ATOM     11  O   UNL     1      -8.332  -1.923  -0.991  0.00  0.00    -0.247 OA
ATOM     12  N   UNL     1      -6.142  -1.308  -0.903  0.00  0.00    -0.306 N 
ATOM     13  H   UNL     1      -6.210  -0.403  -1.246  0.00  0.00    +0.170 HD
ENDROOT
BRANCH   1  14
ATOM     14  C   UNL     1      -1.234  -1.994   0.054  0.00  0.00    -0.034 C 
BRANCH  14  15
ATOM     15  C   UNL     1      -0.524  -2.448  -1.223  0.00  0.00    -0.046 C 
ATOM     16  C   UNL     1       0.908  -1.910  -1.228  0.00  0.00    +0.009 C 
ATOM     17  C   UNL     1      -0.495  -3.977  -1.275  0.00  0.00    +0.009 C 
ATOM     18  C   UNL     1      -1.275  -1.910  -2.443  0.00  0.00    +0.009 C 
ENDBRANCH  14  15
BRANCH  14  19
ATOM     19  N   UNL     1      -1.162  -0.531   0.161  0.00  0.00    +0.384 N 
ATOM     20  H   UNL     1      -1.691  -0.112  -0.590  0.00  0.00    -0.085 HD
ATOM     21  H   UNL     1      -0.199  -0.236   0.100  0.00  0.00    -0.085 HD
BRANCH  19  23
ATOM     22  C   UNL     1      -1.537   1.403   1.616  0.00  0.00    -0.017 C 
ATOM     23  C   UNL     1      -1.724  -0.106   1.451  0.00  0.00    -0.085 C 
ENDBRANCH  19  23
ENDBRANCH  14  19
ENDBRANCH   1  14
TORSDOF 4
