REMARK  Name = ZINC13063673
REMARK  11 active torsions:
REMARK  status: ('A' for Active; 'I' for Inactive)
REMARK    1  A    between atoms: C_1  and  C_2
REMARK    2  A    between atoms: C_2  and  C_3
REMARK    3  A    between atoms: C_10  and  C_15
REMARK    4  A    between atoms: C_15  and  N_70
REMARK    5  A    between atoms: C_16  and  N_70
REMARK    6  A    between atoms: C_21  and  C_23
REMARK    7  A    between atoms: C_21  and  C_25
REMARK    8  A    between atoms: C_21  and  N_70
REMARK    9  A    between atoms: C_23  and  C_24
REMARK   10  A    between atoms: N_29  and  C_30
REMARK   11  A    between atoms: C_30  and  C_31
REMARK                            x       y       z     vdW  Elec       q    Type
REMARK                         _______ _______ _______ _____ _____    ______ ____
ROOT
ATOM      1  N   UNL     1       3.424   5.967   2.330  0.00  0.00    +0.391 N 
ATOM      2  H   UNL     1       3.125   6.316   3.249  0.00  0.00    -0.080 HD
ENDROOT
BRANCH   1   3
ATOM      3  C   UNL     1       3.273   7.048   1.334  0.00  0.00    -0.067 C 
ATOM      4  C   UNL     1       4.094   6.747   0.062  0.00  0.00    -0.015 C 
ATOM      5  C   UNL     1       4.641   8.130  -0.372  0.00  0.00    -0.002 C 
ATOM      6  C   UNL     1       4.971   8.808   0.981  0.00  0.00    -0.002 C 
ATOM      7  C   UNL     1       3.830   8.358   1.917  0.00  0.00    -0.015 C 
ENDBRANCH   1   3
BRANCH   1   8
ATOM      8  C   UNL     1       4.839   5.549   2.413  0.00  0.00    -0.036 C 
BRANCH   8  16
ATOM      9  C   UNL     1       5.496   0.837   6.370  0.00  0.00    -0.047 A 
ATOM     10  C   UNL     1       5.684   1.613   7.506  0.00  0.00    +0.005 A 
ATOM     11  C   UNL     1       5.671   2.989   7.428  0.00  0.00    +0.026 A 
ATOM     12  C   UNL     1       5.467   3.609   6.199  0.00  0.00    +0.049 A 
ATOM     13  C   UNL     1       5.277   2.819   5.050  0.00  0.00    -0.001 A 
ATOM     14  C   UNL     1       5.294   1.424   5.153  0.00  0.00    +0.013 A 
ATOM     15  C   UNL     1       5.063   3.481   3.762  0.00  0.00    +0.017 A 
ATOM     16  C   UNL     1       5.056   4.836   3.723  0.00  0.00    +0.001 A 
ATOM     17  C   UNL     1       5.257   5.582   4.904  0.00  0.00    +0.251 A 
ATOM     18  O   UNL     1       5.252   6.799   4.846  0.00  0.00    -0.268 OA
ATOM     19  N   UNL     1       5.448   4.983   6.093  0.00  0.00    -0.322 N 
ATOM     20  H   UNL     1       5.580   5.526   6.886  0.00  0.00    +0.169 HD
BRANCH   9  22
ATOM     21  C   UNL     1       4.098  -1.174   6.753  0.00  0.00    +0.009 C 
ATOM     22  C   UNL     1       5.514  -0.666   6.480  0.00  0.00    +0.032 C 
ENDBRANCH   9  22
ENDBRANCH   8  16
ENDBRANCH   1   8
BRANCH   1  23
ATOM     23  C   UNL     1       2.577   4.814   1.957  0.00  0.00    +0.003 C 
BRANCH  23  24
ATOM     24  C   UNL     1       3.259   3.979   0.904  0.00  0.00    +0.138 A 
ATOM     25  N   UNL     1       3.771   4.407  -0.224  0.00  0.00    -0.115 NA
ATOM     26  N   UNL     1       4.261   3.392  -0.849  0.00  0.00    -0.023 NA
ATOM     27  N   UNL     1       4.079   2.329  -0.146  0.00  0.00    -0.044 NA
ATOM     28  N   UNL     1       3.459   2.648   0.940  0.00  0.00    -0.228 N 
BRANCH  28  29
ATOM     29  C   UNL     1       3.055   1.736   2.012  0.00  0.00    +0.178 C 
BRANCH  29  30
ATOM     30  C   UNL     1       1.647   1.210   1.730  0.00  0.00    +0.140 C 
ATOM     31  C   UNL     1       1.187   0.250   2.857  0.00  0.00    +0.035 C 
ATOM     32  C   UNL     1       0.133  -0.622   2.131  0.00  0.00    +0.031 C 
ATOM     33  C   UNL     1       0.477  -0.464   0.637  0.00  0.00    +0.160 C 
ATOM     34  O   UNL     1       1.642   0.373   0.553  0.00  0.00    -0.375 OA
ENDBRANCH  29  30
ENDBRANCH  28  29
ENDBRANCH  23  24
BRANCH  23  35
ATOM     35  C   UNL     1       1.240   5.324   1.416  0.00  0.00    -0.011 C 
ATOM     36  C   UNL     1       0.577   6.224   2.461  0.00  0.00    +0.002 C 
ENDBRANCH  23  35
ENDBRANCH   1  23
TORSDOF 9
