REMARK  Name = ZINC13880650
REMARK  8 active torsions:
REMARK  status: ('A' for Active; 'I' for Inactive)
REMARK    1  A    between atoms: C_1  and  C_2
REMARK    2  A    between atoms: C_6  and  C_23
REMARK    3  A    between atoms: C_7  and  O_8
REMARK    4  A    between atoms: O_8  and  C_9
REMARK    5  A    between atoms: C_9  and  C_10
REMARK    6  A    between atoms: N_12  and  N_13
REMARK    7  A    between atoms: N_13  and  C_14
REMARK    8  A    between atoms: C_20  and  O_22
REMARK                            x       y       z     vdW  Elec       q    Type
REMARK                         _______ _______ _______ _____ _____    ______ ____
ROOT
ATOM      1  C   UNL     1      -1.049   1.011   4.253  0.00  0.00    +0.267 C 
ATOM      2  O   UNL     1       0.072   1.256   4.646  0.00  0.00    -0.271 OA
ATOM      3  N   UNL     1      -2.116   1.402   4.977  0.00  0.00    -0.234 N 
ATOM      4  H   UNL     1      -3.013   1.206   4.663  0.00  0.00    +0.173 HD
ENDROOT
BRANCH   3   5
ATOM      5  N   UNL     1      -1.931   2.091   6.183  0.00  0.00    -0.271 N 
ATOM      6  H   UNL     1      -1.034   2.287   6.497  0.00  0.00    +0.169 HD
BRANCH   5   7
ATOM      7  C   UNL     1      -2.994   2.480   6.903  0.00  0.00    +0.095 C 
ATOM      8  C   UNL     1      -2.809   3.168   8.107  0.00  0.00    -0.006 C 
ATOM      9  C   UNL     1      -1.505   3.459   8.562  0.00  0.00    +0.013 C 
ATOM     10  C   UNL     1      -1.326   4.127   9.731  0.00  0.00    +0.055 C 
ATOM     11  C   UNL     1      -2.438   4.531  10.490  0.00  0.00    +0.220 C 
ATOM     12  O   UNL     1      -2.274   5.133  11.543  0.00  0.00    -0.284 OA
ATOM     13  C   UNL     1      -3.745   4.243  10.039  0.00  0.00    +0.164 C 
ATOM     14  C   UNL     1      -3.929   3.579   8.867  0.00  0.00    +0.058 C 
BRANCH  13  15
ATOM     15  O   UNL     1      -4.820   4.634  10.775  0.00  0.00    -0.503 OA
ATOM     16  H   UNL     1      -4.590   5.102  11.590  0.00  0.00    +0.292 HD
ENDBRANCH  13  15
ENDBRANCH   5   7
ENDBRANCH   3   5
BRANCH   1  17
ATOM     17  C   UNL     1      -1.248   0.270   2.957  0.00  0.00    +0.326 C 
BRANCH  17  18
ATOM     18  O   UNL     1       0.025  -0.033   2.381  0.00  0.00    -0.482 OA
BRANCH  18  25
ATOM     19  C   UNL     1      -0.018   1.503   0.010  0.00  0.00    +0.047 C 
ATOM     20  C   UNL     1       0.002  -0.004   0.002  0.00  0.00    -0.007 A 
ATOM     21  C   UNL     1       0.006  -0.689  -1.198  0.00  0.00    +0.022 A 
ATOM     22  C   UNL     1       0.025  -2.072  -1.206  0.00  0.00    +0.019 A 
ATOM     23  C   UNL     1       0.040  -2.772  -0.013  0.00  0.00    +0.022 A 
ATOM     24  C   UNL     1       0.036  -2.092   1.189  0.00  0.00    -0.007 A 
ATOM     25  C   UNL     1       0.023  -0.705   1.199  0.00  0.00    +0.127 A 
ATOM     26  C   UNL     1       0.053  -2.855   2.488  0.00  0.00    +0.047 C 
ATOM     27 BR   UNL     1       0.029  -3.006  -2.850  0.00  0.00    -0.050 Br
ENDBRANCH  18  25
ENDBRANCH  17  18
ENDBRANCH   1  17
TORSDOF 6
