REMARK  Name = ZINC17173019
REMARK  9 active torsions:
REMARK  status: ('A' for Active; 'I' for Inactive)
REMARK    1  A    between atoms: C_1  and  C_2
REMARK    2  A    between atoms: C_2  and  C_38
REMARK    3  A    between atoms: C_6  and  C_21
REMARK    4  A    between atoms: C_13  and  S_17
REMARK    5  A    between atoms: S_17  and  C_18
REMARK    6  A    between atoms: C_18  and  C_19
REMARK    7  A    between atoms: C_24  and  O_27
REMARK    8  A    between atoms: O_27  and  C_28
REMARK    9  A    between atoms: C_28  and  C_29
REMARK                            x       y       z     vdW  Elec       q    Type
REMARK                         _______ _______ _______ _____ _____    ______ ____
ROOT
ATOM      1  C   UNL     1      -9.130  -6.220   1.598  0.00  0.00    +0.011 C 
ATOM      2  C   UNL     1      -7.858  -6.204   0.748  0.00  0.00    -0.023 C 
ATOM      3  C   UNL     1      -7.981  -5.138  -0.343  0.00  0.00    +0.058 C 
ATOM      4  C   UNL     1      -8.141  -3.778   0.292  0.00  0.00    +0.017 C 
ATOM      5  C   UNL     1      -7.574  -3.496   1.482  0.00  0.00    +0.024 C 
ATOM      6  C   UNL     1      -7.710  -2.133   2.112  0.00  0.00    +0.092 C 
ATOM      7  C   UNL     1      -8.842  -1.361   1.503  0.00  0.00    +0.069 A 
ATOM      8  C   UNL     1      -9.374  -0.246   2.162  0.00  0.00    +0.258 A 
ATOM      9  O   UNL     1      -8.926   0.110   3.240  0.00  0.00    -0.267 OA
ATOM     10  N   UNL     1     -10.390   0.427   1.583  0.00  0.00    -0.302 N 
ATOM     11  H   UNL     1     -10.772   1.202   2.025  0.00  0.00    +0.171 HD
ATOM     12  C   UNL     1     -10.881   0.020   0.379  0.00  0.00    +0.171 A 
ATOM     13  N   UNL     1     -10.386  -1.029  -0.245  0.00  0.00    -0.208 NA
ATOM     14  C   UNL     1      -9.380  -1.735   0.284  0.00  0.00    +0.135 A 
ATOM     15  N   UNL     1      -8.874  -2.836  -0.378  0.00  0.00    -0.302 N 
ATOM     16  C   UNL     1      -6.834  -4.469   2.180  0.00  0.00    +0.162 C 
ATOM     17  O   UNL     1      -6.330  -4.182   3.248  0.00  0.00    -0.292 OA
ATOM     18  C   UNL     1      -6.654  -5.857   1.630  0.00  0.00    +0.086 C 
ATOM     19  C   UNL     1      -7.651  -7.577   0.105  0.00  0.00    +0.011 C 
ATOM     20  H   UNL     1      -9.040  -2.944  -1.328  0.00  0.00    +0.153 HD
ENDROOT
BRANCH   6  21
ATOM     21  C   UNL     1      -6.428  -1.367   1.913  0.00  0.00    -0.035 A 
ATOM     22  C   UNL     1      -5.700  -0.943   3.009  0.00  0.00    +0.008 A 
ATOM     23  C   UNL     1      -4.524  -0.241   2.829  0.00  0.00    +0.046 A 
ATOM     24  C   UNL     1      -4.073   0.038   1.547  0.00  0.00    +0.121 A 
ATOM     25  C   UNL     1      -4.808  -0.384   0.449  0.00  0.00    +0.046 A 
ATOM     26  C   UNL     1      -5.981  -1.090   0.634  0.00  0.00    +0.008 A 
BRANCH  24  27
ATOM     27  O   UNL     1      -2.917   0.728   1.367  0.00  0.00    -0.487 OA
BRANCH  27  28
ATOM     28  C   UNL     1      -2.514   0.980   0.019  0.00  0.00    +0.264 C 
BRANCH  28  29
ATOM     29  C   UNL     1      -1.219   1.751   0.017  0.00  0.00    -0.010 A 
ATOM     30  C   UNL     1      -0.013   1.076   0.008  0.00  0.00    +0.007 A 
ATOM     31  C   UNL     1       1.175   1.783   0.000  0.00  0.00    +0.000 A 
ATOM     32  C   UNL     1       1.156   3.165   0.008  0.00  0.00    +0.000 A 
ATOM     33  C   UNL     1      -0.050   3.840   0.023  0.00  0.00    +0.000 A 
ATOM     34  C   UNL     1      -1.238   3.133   0.029  0.00  0.00    +0.007 A 
ENDBRANCH  28  29
ENDBRANCH  27  28
ENDBRANCH  24  27
ENDBRANCH   6  21
BRANCH  12  35
ATOM     35  S   UNL     1     -12.207   0.916  -0.359  0.00  0.00    -0.084 S 
BRANCH  35  36
ATOM     36  C   UNL     1     -12.427  -0.043  -1.878  0.00  0.00    +0.104 C 
BRANCH  36  37
ATOM     37  C   UNL     1     -13.543   0.557  -2.694  0.00  0.00    -0.023 C 
ATOM     38  C   UNL     1     -13.286   1.087  -3.865  0.00  0.00    +0.005 C 
ENDBRANCH  36  37
ENDBRANCH  35  36
ENDBRANCH  12  35
TORSDOF 7
