REMARK  Name = ZINC63806710
REMARK  9 active torsions:
REMARK  status: ('A' for Active; 'I' for Inactive)
REMARK    1  A    between atoms: C_1  and  C_2
REMARK    2  A    between atoms: N_4  and  C_5
REMARK    3  A    between atoms: C_5  and  C_7
REMARK    4  A    between atoms: C_5  and  C_17
REMARK    5  A    between atoms: C_7  and  C_8
REMARK    6  A    between atoms: N_19  and  N_20
REMARK    7  A    between atoms: C_21  and  C_23
REMARK    8  A    between atoms: C_23  and  S_24
REMARK    9  A    between atoms: S_24  and  C_25
REMARK                            x       y       z     vdW  Elec       q    Type
REMARK                         _______ _______ _______ _____ _____    ______ ____
ROOT
ATOM      1  C   UNL     1      -0.407  -2.658   1.222  0.00  0.00    +0.250 C 
ATOM      2  O   UNL     1       0.350  -1.922   1.819  0.00  0.00    -0.272 OA
ATOM      3  N   UNL     1      -0.597  -3.922   1.651  0.00  0.00    -0.233 N 
ATOM      4  H   UNL     1      -1.202  -4.510   1.173  0.00  0.00    +0.173 HD
ENDROOT
BRANCH   3   5
ATOM      5  N   UNL     1       0.081  -4.386   2.785  0.00  0.00    -0.234 N 
ATOM      6  C   UNL     1      -0.109  -5.649   3.214  0.00  0.00    +0.239 C 
ATOM      7  O   UNL     1      -0.866  -6.385   2.616  0.00  0.00    -0.273 OA
ATOM      8  H   UNL     1       0.686  -3.797   3.263  0.00  0.00    +0.173 HD
BRANCH   6   9
ATOM      9  C   UNL     1       0.620  -6.149   4.435  0.00  0.00    +0.173 C 
BRANCH   9  10
ATOM     10  S   UNL     1       0.157  -7.874   4.752  0.00  0.00    -0.089 S 
BRANCH  10  11
ATOM     11  C   UNL     1       1.080  -8.305   6.190  0.00  0.00    +0.136 A 
ATOM     12  N   UNL     1       1.910  -7.564   6.890  0.00  0.00    -0.233 NA
ATOM     13  C   UNL     1       2.554  -8.031   7.982  0.00  0.00    +0.079 A 
ATOM     14  C   UNL     1       3.466  -7.345   8.817  0.00  0.00    +0.029 A 
ATOM     15  C   UNL     1       4.036  -7.971   9.895  0.00  0.00    +0.002 A 
ATOM     16  C   UNL     1       3.742  -9.291  10.204  0.00  0.00    +0.001 A 
ATOM     17  C   UNL     1       2.855  -9.992   9.409  0.00  0.00    +0.017 A 
ATOM     18  C   UNL     1       2.279  -9.373   8.328  0.00  0.00    +0.040 A 
ATOM     19  S   UNL     1       1.119  -9.858   7.073  0.00  0.00    -0.061 S 
ENDBRANCH  10  11
ENDBRANCH   9  10
ENDBRANCH   6   9
ENDBRANCH   3   5
BRANCH   1  20
ATOM     20  C   UNL     1      -1.136  -2.159   0.001  0.00  0.00    +0.164 C 
BRANCH  20  24
ATOM     21  C   UNL     1      -0.018   1.503   0.010  0.00  0.00    +0.109 C 
ATOM     22  C   UNL     1       0.002  -0.004   0.002  0.00  0.00    +0.211 C 
ATOM     23  O   UNL     1       1.060  -0.596  -0.011  0.00  0.00    -0.276 OA
ATOM     24  N   UNL     1      -1.156  -0.694   0.009  0.00  0.00    -0.304 N 
ATOM     25  H   UNL     1      -2.002  -0.220   0.020  0.00  0.00    +0.149 HD
ENDBRANCH  20  24
BRANCH  20  26
ATOM     26  C   UNL     1      -0.420  -2.652  -1.258  0.00  0.00    +0.065 C 
BRANCH  26  27
ATOM     27  C   UNL     1      -1.215  -2.257  -2.475  0.00  0.00    -0.039 C 
ATOM     28  C   UNL     1      -1.033  -1.160  -3.245  0.00  0.00    -0.001 A 
ATOM     29  C   UNL     1      -0.077  -0.048  -3.181  0.00  0.00    +0.010 A 
ATOM     30  C   UNL     1      -0.143   0.928  -4.115  0.00  0.00    +0.001 A 
ATOM     31  C   UNL     1      -1.099   0.905  -5.139  0.00  0.00    +0.002 A 
ATOM     32  C   UNL     1      -2.010  -0.084  -5.264  0.00  0.00    +0.026 A 
ATOM     33  C   UNL     1      -2.033  -1.162  -4.337  0.00  0.00    +0.043 A 
ATOM     34  N   UNL     1      -2.803  -2.219  -4.246  0.00  0.00    -0.380 N 
ATOM     35  C   UNL     1      -2.374  -3.011  -3.088  0.00  0.00    +0.144 C 
ATOM     36  H   UNL     1      -3.532  -2.442  -4.846  0.00  0.00    +0.160 HD
ENDBRANCH  26  27
ENDBRANCH  20  26
ENDBRANCH   1  20
TORSDOF 8
