REMARK  Name = ZINC46061578
REMARK  5 active torsions:
REMARK  status: ('A' for Active; 'I' for Inactive)
REMARK    1  A    between atoms: C_1  and  C_2
REMARK    2  A    between atoms: C_3  and  C_11
REMARK    3  A    between atoms: C_7  and  N_8
REMARK    4  A    between atoms: N_13  and  N_14
REMARK    5  A    between atoms: C_15  and  C_17
REMARK                            x       y       z     vdW  Elec       q    Type
REMARK                         _______ _______ _______ _____ _____    ______ ____
ROOT
ATOM      1  N   UNL     1      -1.348  -0.321  -4.779  0.00  0.00    -0.230 N 
ATOM      2  C   UNL     1      -1.539  -1.077  -5.878  0.00  0.00    +0.268 C 
ATOM      3  O   UNL     1      -1.375  -2.282  -5.823  0.00  0.00    -0.268 OA
ATOM      4  H   UNL     1      -1.479   0.640  -4.823  0.00  0.00    +0.173 HD
ENDROOT
BRANCH   2   5
ATOM      5  C   UNL     1      -1.944  -0.448  -7.140  0.00  0.00    +0.095 A 
ATOM      6  C   UNL     1      -2.188  -1.039  -8.342  0.00  0.00    +0.068 A 
ATOM      7  C   UNL     1      -2.571  -0.253  -9.445  0.00  0.00    +0.008 A 
ATOM      8  C   UNL     1      -2.866  -0.679 -10.766  0.00  0.00    +0.013 A 
ATOM      9  C   UNL     1      -3.222   0.217 -11.722  0.00  0.00    +0.039 A 
ATOM     10  C   UNL     1      -3.313   1.579 -11.448  0.00  0.00    +0.124 A 
ATOM     11  C   UNL     1      -3.035   2.035 -10.173  0.00  0.00    +0.054 A 
ATOM     12  C   UNL     1      -2.671   1.136  -9.194  0.00  0.00    +0.024 A 
ATOM     13  S   UNL     1      -2.247   1.278  -7.476  0.00  0.00    -0.082 S 
ATOM     14  F   UNL     1      -3.671   2.446 -12.419  0.00  0.00    -0.205 F 
ATOM     15 CL   UNL     1      -2.027  -2.759  -8.514  0.00  0.00    -0.082 Cl
ENDBRANCH   2   5
BRANCH   1  18
ATOM     16  C   UNL     1      -0.770  -0.164  -2.475  0.00  0.00    +0.260 C 
ATOM     17  O   UNL     1      -0.933   1.039  -2.530  0.00  0.00    -0.269 OA
ATOM     18  N   UNL     1      -0.961  -0.921  -3.574  0.00  0.00    -0.230 N 
ATOM     19  H   UNL     1      -0.830  -1.881  -3.530  0.00  0.00    +0.173 HD
BRANCH  16  22
ATOM     20  C   UNL     1      -0.618   1.431  -0.066  0.00  0.00    +0.047 C 
ATOM     21  C   UNL     1      -0.284  -0.038  -0.035  0.00  0.00    -0.008 A 
ATOM     22  C   UNL     1      -0.361  -0.798  -1.203  0.00  0.00    +0.043 A 
ATOM     23  C   UNL     1      -0.050  -2.158  -1.166  0.00  0.00    +0.013 A 
ATOM     24  C   UNL     1       0.330  -2.743   0.025  0.00  0.00    +0.003 A 
ATOM     25  C   UNL     1       0.403  -1.984   1.179  0.00  0.00    +0.033 A 
ATOM     26  C   UNL     1       0.102  -0.634   1.148  0.00  0.00    +0.130 A 
BRANCH  26  27
ATOM     27  N   UNL     1       0.189   0.171   2.387  0.00  0.00    +0.057 N 
ATOM     28  O   UNL     1       0.396  -0.372   3.447  0.00  0.00    -0.126 OA
ATOM     29  O   UNL     1       0.053   1.371   2.338  0.00  0.00    -0.126 OA
ENDBRANCH  26  27
ENDBRANCH  16  22
ENDBRANCH   1  18
TORSDOF 4
