REMARK  Name = ZINC42077690
REMARK  2 active torsions:
REMARK  status: ('A' for Active; 'I' for Inactive)
REMARK    1  A    between atoms: C_7  and  N_12
REMARK    2  A    between atoms: N_12  and  C_13
REMARK                            x       y       z     vdW  Elec       q    Type
REMARK                         _______ _______ _______ _____ _____    ______ ____
ROOT
ATOM      1  C   UNL     1      -0.017   1.372   0.010  0.00  0.00    +0.046 A 
ATOM      2  C   UNL     1       1.175   2.080   0.002  0.00  0.00    +0.125 A 
ATOM      3  C   UNL     1       2.380   1.398  -0.013  0.00  0.00    +0.055 A 
ATOM      4  C   UNL     1       2.400   0.017  -0.021  0.00  0.00    +0.042 A 
ATOM      5  C   UNL     1       1.204  -0.700  -0.014  0.00  0.00    +0.053 A 
ATOM      6  C   UNL     1       0.002  -0.004   0.002  0.00  0.00    +0.003 A 
ATOM      7  C   UNL     1      -1.093  -1.046   0.006  0.00  0.00    +0.173 C 
ATOM      8  C   UNL     1      -0.347  -2.364  -0.008  0.00  0.00    +0.239 C 
ATOM      9  O   UNL     1      -0.842  -3.471  -0.009  0.00  0.00    -0.273 OA
ATOM     10  N   UNL     1       0.965  -2.076  -0.020  0.00  0.00    -0.283 N 
ATOM     11 BR   UNL     1       4.051  -0.903  -0.043  0.00  0.00    -0.048 Br
ATOM     12  F   UNL     1       1.162   3.431   0.009  0.00  0.00    -0.205 F 
ATOM     13  H   UNL     1       1.666  -2.747  -0.031  0.00  0.00    +0.155 HD
ENDROOT
BRANCH   7  14
ATOM     14  N   UNL     1      -1.911  -0.928   1.221  0.00  0.00    -0.298 NA
ATOM     15  H   UNL     1      -1.463  -1.380   2.004  0.00  0.00    +0.123 HD
BRANCH  14  16
ATOM     16  C   UNL     1      -3.259  -1.469   1.002  0.00  0.00    +0.077 C 
ATOM     17  C   UNL     1      -3.247  -2.986   1.250  0.00  0.00    +0.043 C 
ATOM     18  C   UNL     1      -4.721  -3.477   1.321  0.00  0.00    +0.167 C 
ATOM     19  S   UNL     1      -5.486  -2.109   2.291  0.00  0.00    -0.029 S 
ATOM     20  O   UNL     1      -5.455  -2.446   3.671  0.00  0.00    -0.174 OA
ATOM     21  O   UNL     1      -6.720  -1.748   1.687  0.00  0.00    -0.174 OA
ATOM     22  C   UNL     1      -4.251  -0.784   1.972  0.00  0.00    +0.184 C 
ENDBRANCH  14  16
ENDBRANCH   7  14
TORSDOF 2
