REMARK  Name = ZINC62952066
REMARK  5 active torsions:
REMARK  status: ('A' for Active; 'I' for Inactive)
REMARK    1  A    between atoms: C_1  and  C_2
REMARK    2  A    between atoms: C_2  and  C_4
REMARK    3  A    between atoms: C_2  and  N_22
REMARK    4  A    between atoms: C_4  and  C_6
REMARK    5  A    between atoms: C_4  and  N_12
REMARK                            x       y       z     vdW  Elec       q    Type
REMARK                         _______ _______ _______ _____ _____    ______ ____
ROOT
ATOM      1  C   UNL     1      -1.469  -0.424  -0.038  0.00  0.00    +0.079 C 
ENDROOT
BRANCH   1   2
ATOM      2  N   UNL     1      -2.174   0.155   1.113  0.00  0.00    -0.296 NA
ATOM      3  C   UNL     1      -2.116   1.622   1.083  0.00  0.00    +0.085 C 
ATOM      4  C   UNL     1      -2.724   2.184   2.371  0.00  0.00    +0.022 C 
ATOM      5  C   UNL     1      -4.168   1.702   2.500  0.00  0.00    -0.027 C 
ATOM      6  C   UNL     1      -4.774   2.216   3.818  0.00  0.00    +0.007 C 
ATOM      7  C   UNL     1      -5.533   3.503   3.409  0.00  0.00    +0.001 C 
ATOM      8  C   UNL     1      -6.123   3.129   2.026  0.00  0.00    +0.001 C 
ATOM      9  C   UNL     1      -5.019   2.281   1.360  0.00  0.00    +0.007 C 
ATOM     10  C   UNL     1      -4.217   0.176   2.466  0.00  0.00    +0.022 C 
ATOM     11  C   UNL     1      -3.562  -0.322   1.174  0.00  0.00    +0.085 C 
ENDBRANCH   1   2
BRANCH   1  12
ATOM     12  C   UNL     1      -1.542  -1.927   0.032  0.00  0.00    +0.006 A 
ATOM     13  C   UNL     1      -1.728  -2.820  -0.970  0.00  0.00    +0.014 A 
ATOM     14  C   UNL     1      -1.762  -4.169  -0.669  0.00  0.00    +0.023 A 
ATOM     15  C   UNL     1      -1.608  -4.559   0.621  0.00  0.00    +0.055 A 
ATOM     16  S   UNL     1      -1.400  -2.995   1.456  0.00  0.00    -0.085 S 
ATOM     17 BR   UNL     1      -1.607  -6.305   1.346  0.00  0.00    -0.043 Br
ENDBRANCH   1  12
BRANCH   1  19
ATOM     18  C   UNL     1       0.734  -0.595  -1.205  0.00  0.00    -0.012 C 
ATOM     19  C   UNL     1      -0.004   0.017  -0.012  0.00  0.00    -0.056 C 
BRANCH  19  20
ATOM     20  N   UNL     1       0.623  -0.439   1.236  0.00  0.00    +0.381 N 
ATOM     21  H   UNL     1       1.589  -0.148   1.253  0.00  0.00    -0.090 HD
ATOM     22  H   UNL     1       0.137  -0.036   2.023  0.00  0.00    -0.090 HD
ATOM     23  H   UNL     1       0.573  -1.445   1.290  0.00  0.00    -0.090 HD
ENDBRANCH  19  20
ENDBRANCH   1  19
TORSDOF 4
