REMARK  Name = ZINC06422278
REMARK  8 active torsions:
REMARK  status: ('A' for Active; 'I' for Inactive)
REMARK    1  A    between atoms: C_1  and  C_2
REMARK    2  A    between atoms: C_2  and  N_3
REMARK    3  A    between atoms: C_7  and  C_9
REMARK    4  A    between atoms: C_9  and  C_11
REMARK    5  A    between atoms: C_9  and  O_17
REMARK    6  A    between atoms: O_17  and  C_18
REMARK    7  A    between atoms: C_18  and  C_20
REMARK    8  A    between atoms: C_24  and  N_26
REMARK                            x       y       z     vdW  Elec       q    Type
REMARK                         _______ _______ _______ _____ _____    ______ ____
ROOT
ATOM      1  C   UNL     1      -0.013   1.086   0.008  0.00  0.00    +0.292 C 
ENDROOT
BRANCH   1   6
ATOM      2  N   UNL     1       4.315   1.456  -2.053  0.00  0.00    -0.299 N 
ATOM      3  C   UNL     1       3.490   1.765  -1.033  0.00  0.00    +0.306 C 
ATOM      4  O   UNL     1       3.887   2.464  -0.121  0.00  0.00    -0.252 OA
ATOM      5  N   UNL     1       2.226   1.299  -1.023  0.00  0.00    -0.237 N 
ATOM      6  C   UNL     1       1.401   1.607  -0.003  0.00  0.00    +0.266 C 
ATOM      7  O   UNL     1       1.797   2.305   0.907  0.00  0.00    -0.271 OA
ATOM      8  H   UNL     1       3.998   0.898  -2.781  0.00  0.00    +0.150 HD
ATOM      9  H   UNL     1       1.909   0.741  -1.751  0.00  0.00    +0.159 HD
BRANCH   2  11
ATOM     10  C   UNL     1       6.405   1.470  -3.322  0.00  0.00    +0.024 C 
ATOM     11  C   UNL     1       5.689   1.963  -2.063  0.00  0.00    +0.102 C 
ENDBRANCH   2  11
ENDBRANCH   1   6
BRANCH   1  12
ATOM     12  C   UNL     1      -0.742   1.585  -1.213  0.00  0.00    +0.002 A 
ATOM     13  C   UNL     1      -1.257   2.868  -1.234  0.00  0.00    +0.008 A 
ATOM     14  C   UNL     1      -1.922   3.327  -2.355  0.00  0.00    +0.000 A 
ATOM     15  C   UNL     1      -2.079   2.501  -3.452  0.00  0.00    +0.000 A 
ATOM     16  C   UNL     1      -1.568   1.216  -3.430  0.00  0.00    +0.000 A 
ATOM     17  C   UNL     1      -0.899   0.759  -2.310  0.00  0.00    +0.008 A 
ENDBRANCH   1  12
BRANCH   1  18
ATOM     18  O   UNL     1      -0.692   1.554   1.203  0.00  0.00    -0.444 OA
BRANCH  18  19
ATOM     19  C   UNL     1      -1.658   0.762   1.707  0.00  0.00    +0.340 C 
ATOM     20  O   UNL     1      -1.925  -0.291   1.164  0.00  0.00    -0.245 OA
BRANCH  19  21
ATOM     21  C   UNL     1      -2.392   1.174   2.921  0.00  0.00    +0.061 A 
ATOM     22  C   UNL     1      -2.083   2.382   3.550  0.00  0.00    +0.016 A 
ATOM     23  C   UNL     1      -2.773   2.767   4.681  0.00  0.00    +0.022 A 
ATOM     24  C   UNL     1      -3.766   1.955   5.201  0.00  0.00    +0.062 A 
ATOM     25  C   UNL     1      -4.078   0.748   4.584  0.00  0.00    +0.044 A 
ATOM     26  C   UNL     1      -3.393   0.355   3.445  0.00  0.00    +0.039 A 
ATOM     27 CL   UNL     1      -4.625   2.445   6.628  0.00  0.00    -0.082 Cl
BRANCH  25  28
ATOM     28  N   UNL     1      -5.082  -0.069   5.113  0.00  0.00    -0.357 N 
ATOM     29  H   UNL     1      -5.299  -0.910   4.683  0.00  0.00    +0.142 HD
ATOM     30  H   UNL     1      -5.560   0.206   5.910  0.00  0.00    +0.142 HD
ENDBRANCH  25  28
ENDBRANCH  19  21
ENDBRANCH  18  19
ENDBRANCH   1  18
TORSDOF 7
