REMARK  Name = ZINC11455173
REMARK  11 active torsions:
REMARK  status: ('A' for Active; 'I' for Inactive)
REMARK    1  A    between atoms: C_1  and  C_2
REMARK    2  A    between atoms: C_3  and  C_31
REMARK    3  A    between atoms: C_4  and  C_30
REMARK    4  A    between atoms: C_7  and  C_8
REMARK    5  A    between atoms: C_8  and  C_10
REMARK    6  A    between atoms: C_10  and  S_11
REMARK    7  A    between atoms: S_11  and  C_12
REMARK    8  A    between atoms: N_16  and  C_17
REMARK    9  A    between atoms: C_17  and  C_18
REMARK   10  A    between atoms: C_31  and  O_33
REMARK   11  A    between atoms: O_33  and  C_34
REMARK                            x       y       z     vdW  Elec       q    Type
REMARK                         _______ _______ _______ _____ _____    ______ ____
ROOT
ATOM      1  C   UNL     1      -0.084  -9.517  -2.080  0.00  0.00    +0.193 A 
ATOM      2  N   UNL     1       1.058  -9.634  -1.447  0.00  0.00    -0.121 NA
ATOM      3  N   UNL     1       1.375 -10.997  -1.374  0.00  0.00    -0.112 NA
ATOM      4  C   UNL     1       0.416 -11.667  -1.965  0.00  0.00    +0.220 A 
ATOM      5  N   UNL     1      -0.513 -10.771  -2.412  0.00  0.00    -0.288 N 
ATOM      6  N   UNL     1       0.353 -13.047  -2.107  0.00  0.00    -0.300 N 
ATOM      7  C   UNL     1       0.362 -13.712  -0.798  0.00  0.00    +0.108 C 
ATOM      8  C   UNL     1       0.146 -15.215  -0.986  0.00  0.00    +0.019 C 
ATOM      9  C   UNL     1       1.259 -15.779  -1.873  0.00  0.00    +0.003 C 
ATOM     10  C   UNL     1       1.259 -15.037  -3.213  0.00  0.00    +0.019 C 
ATOM     11  C   UNL     1       1.443 -13.539  -2.960  0.00  0.00    +0.108 C 
ENDROOT
BRANCH   1  12
ATOM     12  S   UNL     1      -0.922  -8.007  -2.433  0.00  0.00    -0.078 S 
BRANCH  12  13
ATOM     13  C   UNL     1       0.157  -6.731  -1.728  0.00  0.00    +0.158 C 
BRANCH  13  14
ATOM     14  C   UNL     1      -0.451  -5.372  -1.964  0.00  0.00    +0.190 C 
ATOM     15  O   UNL     1      -1.510  -5.275  -2.551  0.00  0.00    -0.290 OA
BRANCH  14  22
ATOM     16  C   UNL     1      -1.508  -2.470  -2.315  0.00  0.00    +0.047 C 
ATOM     17  C   UNL     1      -0.234  -2.914  -1.643  0.00  0.00    -0.008 A 
ATOM     18  C   UNL     1       0.734  -2.081  -1.042  0.00  0.00    +0.083 A 
ATOM     19  C   UNL     1       1.730  -2.904  -0.547  0.00  0.00    +0.028 A 
ATOM     20  N   UNL     1       1.413  -4.177  -0.824  0.00  0.00    -0.355 N 
ATOM     21  H   UNL     1       1.945  -4.953  -0.587  0.00  0.00    +0.166 HD
ATOM     22  C   UNL     1       0.211  -4.210  -1.502  0.00  0.00    +0.087 A 
ATOM     23  C   UNL     1       2.966  -2.446   0.183  0.00  0.00    +0.064 C 
BRANCH  18  24
ATOM     24  C   UNL     1       0.689  -0.612  -0.953  0.00  0.00    +0.341 C 
ATOM     25  O   UNL     1       1.184   0.066  -1.832  0.00  0.00    -0.245 OA
BRANCH  24  26
ATOM     26  O   UNL     1       0.099  -0.019   0.104  0.00  0.00    -0.464 OA
ATOM     27  C   UNL     1       0.092   1.433   0.126  0.00  0.00    +0.280 C 
ENDBRANCH  24  26
ENDBRANCH  18  24
ENDBRANCH  14  22
ENDBRANCH  13  14
ENDBRANCH  12  13
ENDBRANCH   1  12
BRANCH   5  28
ATOM     28  C   UNL     1      -1.751 -11.097  -3.125  0.00  0.00    +0.158 C 
BRANCH  28  29
ATOM     29  C   UNL     1      -1.455 -11.245  -4.619  0.00  0.00    +0.138 C 
ATOM     30  C   UNL     1      -2.742 -11.643  -5.384  0.00  0.00    +0.035 C 
ATOM     31  C   UNL     1      -2.413 -11.116  -6.808  0.00  0.00    +0.031 C 
ATOM     32  C   UNL     1      -1.584  -9.850  -6.505  0.00  0.00    +0.160 C 
ATOM     33  O   UNL     1      -1.062  -9.981  -5.177  0.00  0.00    -0.375 OA
ENDBRANCH  28  29
ENDBRANCH   5  28
TORSDOF 8
