REMARK  Name = ZINC37299751
REMARK  8 active torsions:
REMARK  status: ('A' for Active; 'I' for Inactive)
REMARK    1  A    between atoms: C_1  and  C_2
REMARK    2  A    between atoms: C_4  and  N_19
REMARK    3  A    between atoms: C_7  and  N_8
REMARK    4  A    between atoms: N_8  and  C_9
REMARK    5  A    between atoms: C_9  and  C_11
REMARK    6  A    between atoms: C_9  and  C_16
REMARK    7  A    between atoms: C_16  and  C_17
REMARK    8  A    between atoms: C_16  and  C_18
REMARK                            x       y       z     vdW  Elec       q    Type
REMARK                         _______ _______ _______ _____ _____    ______ ____
ROOT
ATOM      1  N   UNL     1       0.025  -0.016   2.415  0.00  0.00    -0.336 N 
ATOM      2  H   UNL     1       0.012   0.954   2.422  0.00  0.00    +0.147 HD
ENDROOT
BRANCH   1   9
ATOM      3  C   UNL     1      -0.018   1.503   0.010  0.00  0.00    +0.046 C 
ATOM      4  C   UNL     1       0.002  -0.004   0.002  0.00  0.00    -0.027 A 
ATOM      5  C   UNL     1       0.006  -0.689  -1.198  0.00  0.00    +0.038 A 
ATOM      6  C   UNL     1       0.025  -2.071  -1.206  0.00  0.00    +0.127 A 
ATOM      7  C   UNL     1       0.040  -2.773  -0.014  0.00  0.00    +0.034 A 
ATOM      8  C   UNL     1       0.036  -2.095   1.188  0.00  0.00    +0.025 A 
ATOM      9  C   UNL     1       0.023  -0.706   1.200  0.00  0.00    +0.031 A 
BRANCH   6  10
ATOM     10  N   UNL     1       0.028  -2.802  -2.493  0.00  0.00    +0.056 N 
ATOM     11  O   UNL     1       0.014  -2.190  -3.536  0.00  0.00    -0.126 OA
ATOM     12  O   UNL     1       0.044  -4.011  -2.502  0.00  0.00    -0.126 OA
ENDBRANCH   6  10
ENDBRANCH   1   9
BRANCH   1  13
ATOM     13  C   UNL     1       0.047  -0.758   3.678  0.00  0.00    +0.110 C 
BRANCH  13  14
ATOM     14  C   UNL     1       0.646   0.106   4.758  0.00  0.00    +0.010 A 
ATOM     15  C   UNL     1       1.505  -0.238   5.749  0.00  0.00    +0.013 A 
ATOM     16  C   UNL     1       1.928   0.733   6.637  0.00  0.00    +0.008 A 
ATOM     17  C   UNL     1       1.472   2.001   6.490  0.00  0.00    +0.045 A 
ATOM     18  S   UNL     1       0.415   1.851   5.059  0.00  0.00    -0.100 S 
ENDBRANCH  13  14
BRANCH  13  19
ATOM     19  C   UNL     1      -1.381  -1.144   4.068  0.00  0.00    +0.008 C 
ATOM     20  C   UNL     1      -1.358  -1.919   5.387  0.00  0.00    +0.009 C 
ATOM     21  C   UNL     1      -2.224   0.122   4.235  0.00  0.00    +0.009 C 
ENDBRANCH  13  19
ENDBRANCH   1  13
TORSDOF 5
