REMARK  Name = ZINC09971061
REMARK  8 active torsions:
REMARK  status: ('A' for Active; 'I' for Inactive)
REMARK    1  A    between atoms: C_1  and  C_2
REMARK    2  A    between atoms: C_5  and  S_9
REMARK    3  A    between atoms: C_7  and  C_8
REMARK    4  A    between atoms: S_9  and  C_12
REMARK    5  A    between atoms: N_24  and  C_25
REMARK    6  A    between atoms: C_25  and  C_26
REMARK    7  A    between atoms: C_29  and  O_32
REMARK    8  A    between atoms: O_32  and  C_33
REMARK                            x       y       z     vdW  Elec       q    Type
REMARK                         _______ _______ _______ _____ _____    ______ ____
ROOT
ATOM      1  C   UNL     1       1.654   2.302  -0.001  0.00  0.00    +0.249 A 
ATOM      2  C   UNL     1       2.434   2.551   1.117  0.00  0.00    +0.204 A 
ATOM      3  N   UNL     1       2.184   2.451   2.433  0.00  0.00    -0.209 NA
ATOM      4  C   UNL     1       3.122   2.748   3.317  0.00  0.00    +0.137 A 
ATOM      5  C   UNL     1       4.384   3.162   2.880  0.00  0.00    +0.077 A 
ATOM      6  C   UNL     1       4.691   3.273   1.520  0.00  0.00    +0.087 A 
ATOM      7  N   UNL     1       3.653   2.944   0.643  0.00  0.00    -0.192 N 
ATOM      8  N   UNL     1       3.567   2.929  -0.753  0.00  0.00    -0.057 NA
ATOM      9  N   UNL     1       2.382   2.547  -1.084  0.00  0.00    -0.108 NA
ATOM     10  C   UNL     1       5.987   3.697   1.222  0.00  0.00    +0.036 A 
ATOM     11  C   UNL     1       6.859   3.971   2.218  0.00  0.00    +0.048 A 
ATOM     12  S   UNL     1       5.891   3.644   3.682  0.00  0.00    -0.092 S 
ATOM     13  N   UNL     1       2.855   2.649   4.671  0.00  0.00    -0.324 N 
ATOM     14  H   UNL     1       3.544   2.866   5.319  0.00  0.00    +0.148 HD
ENDROOT
BRANCH   1  15
ATOM     15  S   UNL     1      -0.022   1.758   0.012  0.00  0.00    +0.047 S 
ATOM     16  O   UNL     1      -0.590   2.163  -1.226  0.00  0.00    -0.163 OA
ATOM     17  O   UNL     1      -0.566   2.150   1.264  0.00  0.00    -0.163 OA
BRANCH  15  22
ATOM     18  C   UNL     1       0.059  -4.275  -0.021  0.00  0.00    +0.044 C 
ATOM     19  C   UNL     1       0.039  -2.768  -0.013  0.00  0.00    -0.047 A 
ATOM     20  C   UNL     1       0.042  -2.084   1.188  0.00  0.00    +0.005 A 
ATOM     21  C   UNL     1       0.023  -0.702   1.196  0.00  0.00    +0.028 A 
ATOM     22  C   UNL     1       0.002  -0.004   0.002  0.00  0.00    +0.096 A 
ATOM     23  C   UNL     1      -0.006  -0.689  -1.199  0.00  0.00    +0.031 A 
ATOM     24  C   UNL     1       0.017  -2.071  -1.206  0.00  0.00    -0.046 A 
ATOM     25  C   UNL     1       0.013  -2.817  -2.515  0.00  0.00    +0.044 C 
ENDBRANCH  15  22
ENDBRANCH   1  15
BRANCH  13  26
ATOM     26  C   UNL     1       1.532   2.215   5.128  0.00  0.00    +0.138 C 
BRANCH  26  27
ATOM     27  C   UNL     1       1.504   2.192   6.634  0.00  0.00    -0.030 A 
ATOM     28  C   UNL     1       1.855   1.040   7.314  0.00  0.00    +0.009 A 
ATOM     29  C   UNL     1       1.835   1.018   8.695  0.00  0.00    +0.046 A 
ATOM     30  C   UNL     1       1.450   2.149   9.400  0.00  0.00    +0.120 A 
ATOM     31  C   UNL     1       1.093   3.302   8.716  0.00  0.00    +0.046 A 
ATOM     32  C   UNL     1       1.120   3.321   7.335  0.00  0.00    +0.009 A 
BRANCH  30  33
ATOM     33  O   UNL     1       1.425   2.128  10.758  0.00  0.00    -0.495 OA
ATOM     34  C   UNL     1       1.805   0.907  11.396  0.00  0.00    +0.277 C 
ENDBRANCH  30  33
ENDBRANCH  26  27
ENDBRANCH  13  26
TORSDOF 5
