REMARK  Name = ZINC02925920
REMARK  7 active torsions:
REMARK  status: ('A' for Active; 'I' for Inactive)
REMARK    1  A    between atoms: C_1  and  C_2
REMARK    2  A    between atoms: C_3  and  C_28
REMARK    3  A    between atoms: C_4  and  C_22
REMARK    4  A    between atoms: C_10  and  C_15
REMARK    5  A    between atoms: C_28  and  O_30
REMARK    6  A    between atoms: O_30  and  C_31
REMARK    7  A    between atoms: C_31  and  C_32
REMARK                            x       y       z     vdW  Elec       q    Type
REMARK                         _______ _______ _______ _____ _____    ______ ____
ROOT
ATOM      1  C   UNL     1      -5.010   3.888  -0.543  0.00  0.00    +0.061 C 
ATOM      2  C   UNL     1      -3.721   3.164  -0.252  0.00  0.00    +0.016 C 
ATOM      3  C   UNL     1      -3.703   1.820  -0.218  0.00  0.00    +0.065 C 
ATOM      4  C   UNL     1      -2.440   1.066   0.077  0.00  0.00    +0.092 C 
ATOM      5  C   UNL     1      -1.229   1.943  -0.113  0.00  0.00    +0.024 C 
ATOM      6  C   UNL     1      -1.349   3.287  -0.145  0.00  0.00    +0.016 C 
ATOM      7  N   UNL     1      -2.577   3.878  -0.013  0.00  0.00    -0.321 N 
ATOM      8  C   UNL     1      -0.141   4.171  -0.338  0.00  0.00    +0.059 C 
ATOM      9  C   UNL     1       1.092   3.495   0.265  0.00  0.00    +0.032 C 
ATOM     10  C   UNL     1       1.282   2.135  -0.415  0.00  0.00    +0.088 C 
ATOM     11  C   UNL     1       0.026   1.323  -0.245  0.00  0.00    +0.162 C 
ATOM     12  O   UNL     1       0.098   0.110  -0.226  0.00  0.00    -0.292 OA
ATOM     13  H   UNL     1      -2.640   4.934   0.289  0.00  0.00    +0.152 HD
ENDROOT
BRANCH   9  14
ATOM     14  C   UNL     1       2.307   4.354   0.028  0.00  0.00    -0.043 A 
ATOM     15  C   UNL     1       2.686   4.673  -1.262  0.00  0.00    +0.005 A 
ATOM     16  C   UNL     1       3.797   5.466  -1.480  0.00  0.00    +0.020 A 
ATOM     17  C   UNL     1       4.537   5.930  -0.407  0.00  0.00    +0.041 A 
ATOM     18  C   UNL     1       4.160   5.605   0.884  0.00  0.00    +0.020 A 
ATOM     19  C   UNL     1       3.046   4.817   1.101  0.00  0.00    +0.005 A 
ATOM     20 CL   UNL     1       5.937   6.919  -0.680  0.00  0.00    -0.084 Cl
ENDBRANCH   9  14
BRANCH   4  21
ATOM     21  C   UNL     1      -2.478   0.576   1.502  0.00  0.00    -0.035 A 
ATOM     22  C   UNL     1      -2.545   1.484   2.543  0.00  0.00    +0.004 A 
ATOM     23  C   UNL     1      -2.584   1.035   3.850  0.00  0.00    +0.000 A 
ATOM     24  C   UNL     1      -2.547  -0.321   4.116  0.00  0.00    +0.000 A 
ATOM     25  C   UNL     1      -2.476  -1.228   3.075  0.00  0.00    +0.000 A 
ATOM     26  C   UNL     1      -2.441  -0.780   1.768  0.00  0.00    +0.004 A 
ENDBRANCH   4  21
BRANCH   3  27
ATOM     27  C   UNL     1      -4.898   1.104  -0.465  0.00  0.00    +0.338 C 
ATOM     28  O   UNL     1      -5.054   0.528  -1.526  0.00  0.00    -0.245 OA
BRANCH  27  29
ATOM     29  O   UNL     1      -5.864   1.059   0.475  0.00  0.00    -0.457 OA
BRANCH  29  30
ATOM     30  C   UNL     1      -7.044   0.318   0.158  0.00  0.00    +0.268 C 
BRANCH  30  31
ATOM     31  C   UNL     1      -8.004   0.380   1.319  0.00  0.00    -0.010 A 
ATOM     32  C   UNL     1      -7.951  -0.582   2.310  0.00  0.00    +0.007 A 
ATOM     33  C   UNL     1      -8.828  -0.522   3.377  0.00  0.00    +0.000 A 
ATOM     34  C   UNL     1      -9.764   0.493   3.447  0.00  0.00    +0.000 A 
ATOM     35  C   UNL     1      -9.820   1.451   2.453  0.00  0.00    +0.000 A 
ATOM     36  C   UNL     1      -8.939   1.395   1.388  0.00  0.00    +0.007 A 
ENDBRANCH  30  31
ENDBRANCH  29  30
ENDBRANCH  27  29
ENDBRANCH   3  27
TORSDOF 6
