REMARK  Name = ZINC19841341
REMARK  7 active torsions:
REMARK  status: ('A' for Active; 'I' for Inactive)
REMARK    1  A    between atoms: C_1  and  O_2
REMARK    2  A    between atoms: O_2  and  C_3
REMARK    3  A    between atoms: C_6  and  C_19
REMARK    4  A    between atoms: C_8  and  C_9
REMARK    5  A    between atoms: C_9  and  O_10
REMARK    6  A    between atoms: O_10  and  C_11
REMARK    7  A    between atoms: C_24  and  C_25
REMARK                            x       y       z     vdW  Elec       q    Type
REMARK                         _______ _______ _______ _____ _____    ______ ____
ROOT
ATOM      1  C   UNL     1       2.349  -2.321   2.550  0.00  0.00    +0.127 A 
ATOM      2  C   UNL     1       2.786  -1.046   2.214  0.00  0.00    +0.046 A 
ATOM      3  C   UNL     1       1.895   0.004   2.184  0.00  0.00    +0.012 A 
ATOM      4  C   UNL     1       0.551  -0.214   2.491  0.00  0.00    -0.016 A 
ATOM      5  C   UNL     1       0.116  -1.495   2.834  0.00  0.00    +0.019 A 
ATOM      6  C   UNL     1       1.013  -2.542   2.857  0.00  0.00    +0.032 A 
ENDROOT
BRANCH   4   7
ATOM      7  C   UNL     1      -0.410   0.912   2.459  0.00  0.00    +0.008 A 
ATOM      8  C   UNL     1      -0.707   1.566   1.255  0.00  0.00    -0.017 A 
ATOM      9  C   UNL     1      -1.604   2.606   1.256  0.00  0.00    +0.047 A 
ATOM     10  N   UNL     1      -2.183   2.997   2.387  0.00  0.00    -0.236 NA
ATOM     11  C   UNL     1      -1.946   2.423   3.550  0.00  0.00    +0.135 A 
ATOM     12  C   UNL     1      -1.045   1.348   3.638  0.00  0.00    +0.099 A 
ATOM     13  N   UNL     1      -2.584   2.882   4.689  0.00  0.00    -0.342 N 
ATOM     14  C   UNL     1      -1.978   3.348  -0.002  0.00  0.00    +0.056 C 
ATOM     15  C   UNL     1      -0.946   3.100  -1.100  0.00  0.00    +0.006 C 
ATOM     16  C   UNL     1      -0.741   1.587  -1.238  0.00  0.00    +0.005 C 
ATOM     17  C   UNL     1      -0.013   1.086   0.008  0.00  0.00    +0.037 C 
ATOM     18  H   UNL     1      -2.387   2.405   5.660  0.00  0.00    +0.144 HD
ATOM     19  H   UNL     1      -3.289   3.725   4.622  0.00  0.00    +0.144 HD
BRANCH  12  20
ATOM     20  C   UNL     1      -0.780   0.712   4.894  0.00  0.00    +0.103 C 
ATOM     21  N   UNL     1      -0.571   0.208   5.890  0.00  0.00    -0.191 NA
ENDBRANCH  12  20
ENDBRANCH   4   7
BRANCH   1  23
ATOM     22  C   UNL     1       4.590  -3.056   2.253  0.00  0.00    +0.277 C 
ATOM     23  O   UNL     1       3.231  -3.354   2.579  0.00  0.00    -0.495 OA
ENDBRANCH   1  23
BRANCH   6  24
ATOM     24  C   UNL     1       0.543  -3.927   3.221  0.00  0.00    +0.268 C 
BRANCH  24  25
ATOM     25  O   UNL     1      -0.859  -3.898   3.492  0.00  0.00    -0.486 OA
BRANCH  25  26
ATOM     26  C   UNL     1      -1.445  -5.075   3.838  0.00  0.00    +0.139 A 
ATOM     27  C   UNL     1      -0.685  -6.233   3.916  0.00  0.00    +0.048 A 
ATOM     28  C   UNL     1      -1.282  -7.428   4.268  0.00  0.00    +0.019 A 
ATOM     29  C   UNL     1      -2.637  -7.471   4.543  0.00  0.00    +0.019 A 
ATOM     30  C   UNL     1      -3.398  -6.318   4.467  0.00  0.00    +0.039 A 
ATOM     31  C   UNL     1      -2.804  -5.119   4.121  0.00  0.00    +0.084 A 
ATOM     32 CL   UNL     1      -3.756  -3.671   4.032  0.00  0.00    -0.080 Cl
ATOM     33 BR   UNL     1      -3.451  -9.109   5.024  0.00  0.00    -0.050 Br
ENDBRANCH  25  26
ENDBRANCH  24  25
ENDBRANCH   6  24
TORSDOF 6
