REMARK  Name = ZINC20584294
REMARK  8 active torsions:
REMARK  status: ('A' for Active; 'I' for Inactive)
REMARK    1  A    between atoms: C_1  and  C_2
REMARK    2  A    between atoms: C_2  and  C_3
REMARK    3  A    between atoms: C_8  and  N_9
REMARK    4  A    between atoms: C_11  and  C_16
REMARK    5  A    between atoms: C_22  and  C_24
REMARK    6  A    between atoms: C_24  and  S_25
REMARK    7  A    between atoms: S_25  and  C_26
REMARK    8  A    between atoms: C_26  and  C_27
REMARK                            x       y       z     vdW  Elec       q    Type
REMARK                         _______ _______ _______ _____ _____    ______ ____
ROOT
ATOM      1  C   UNL     1      -8.207   7.021  -6.380  0.00  0.00    +0.109 A 
ATOM      2  N   UNL     1      -7.057   6.379  -6.440  0.00  0.00    -0.144 NA
ATOM      3  N   UNL     1      -6.450   6.047  -5.384  0.00  0.00    -0.126 NA
ATOM      4  C   UNL     1      -6.938   6.313  -4.185  0.00  0.00    +0.188 A 
ATOM      5  S   UNL     1      -8.412   7.135  -4.607  0.00  0.00    -0.035 S 
ATOM      6  N   UNL     1      -6.414   6.021  -2.930  0.00  0.00    -0.263 N 
ATOM      7  C   UNL     1      -5.241   5.366  -2.825  0.00  0.00    +0.229 C 
ATOM      8  O   UNL     1      -4.642   5.032  -3.826  0.00  0.00    -0.275 OA
ATOM      9  H   UNL     1      -6.958   6.324  -2.023  0.00  0.00    +0.157 HD
ENDROOT
BRANCH   1  12
ATOM     10  N   UNL     1      -9.474   6.999  -9.802  0.00  0.00    -0.270 N 
ATOM     11  C   UNL     1      -9.443   6.376  -8.473  0.00  0.00    +0.124 C 
ATOM     12  C   UNL     1      -9.097   7.517  -7.491  0.00  0.00    +0.073 C 
ATOM     13  C   UNL     1      -8.339   8.504  -8.408  0.00  0.00    +0.108 C 
ATOM     14  C   UNL     1      -8.856   8.193  -9.795  0.00  0.00    +0.220 C 
ATOM     15  O   UNL     1      -8.732   8.916 -10.761  0.00  0.00    -0.275 OA
BRANCH  10  21
ATOM     16  C   UNL     1     -11.405   6.675 -11.215  0.00  0.00    -0.026 A 
ATOM     17  C   UNL     1     -11.990   6.106 -12.330  0.00  0.00    +0.005 A 
ATOM     18  C   UNL     1     -11.248   5.288 -13.161  0.00  0.00    +0.000 A 
ATOM     19  C   UNL     1      -9.917   5.036 -12.879  0.00  0.00    +0.002 A 
ATOM     20  C   UNL     1      -9.325   5.606 -11.769  0.00  0.00    +0.024 A 
ATOM     21  C   UNL     1     -10.070   6.425 -10.930  0.00  0.00    +0.039 A 
BRANCH  16  23
ATOM     22  C   UNL     1     -12.007   9.029 -10.716  0.00  0.00    +0.009 C 
ATOM     23  C   UNL     1     -12.215   7.568 -10.311  0.00  0.00    +0.033 C 
ENDBRANCH  16  23
ENDBRANCH  10  21
ENDBRANCH   1  12
BRANCH   7  24
ATOM     24  C   UNL     1      -4.673   5.050  -1.466  0.00  0.00    +0.165 C 
BRANCH  24  25
ATOM     25  S   UNL     1      -3.098   4.170  -1.658  0.00  0.00    -0.147 S 
BRANCH  25  26
ATOM     26  C   UNL     1      -2.554   3.867   0.046  0.00  0.00    +0.104 C 
BRANCH  26  27
ATOM     27  C   UNL     1      -1.238   3.133   0.030  0.00  0.00    -0.036 A 
ATOM     28  C   UNL     1      -1.219   1.750   0.017  0.00  0.00    +0.006 A 
ATOM     29  C   UNL     1      -0.013   1.076   0.008  0.00  0.00    +0.022 A 
ATOM     30  C   UNL     1       1.176   1.784   0.000  0.00  0.00    +0.059 A 
ATOM     31  C   UNL     1       1.156   3.168   0.008  0.00  0.00    +0.060 A 
ATOM     32  C   UNL     1      -0.052   3.842   0.022  0.00  0.00    +0.026 A 
ATOM     33 CL   UNL     1       2.647   4.058  -0.003  0.00  0.00    -0.082 Cl
ATOM     34 CL   UNL     1       2.691   0.937  -0.019  0.00  0.00    -0.082 Cl
ENDBRANCH  26  27
ENDBRANCH  25  26
ENDBRANCH  24  25
ENDBRANCH   7  24
TORSDOF 7
