REMARK  Name = ZINC44166989
REMARK  13 active torsions:
REMARK  status: ('A' for Active; 'I' for Inactive)
REMARK    1  A    between atoms: C_1  and  C_2
REMARK    2  A    between atoms: C_2  and  C_3
REMARK    3  A    between atoms: C_2  and  C_4
REMARK    4  A    between atoms: C_2  and  C_5
REMARK    5  A    between atoms: C_7  and  C_16
REMARK    6  A    between atoms: C_9  and  C_12
REMARK    7  A    between atoms: C_10  and  O_11
REMARK    8  A    between atoms: C_12  and  C_13
REMARK    9  A    between atoms: C_12  and  C_14
REMARK   10  A    between atoms: C_12  and  C_15
REMARK   11  A    between atoms: C_21  and  C_24
REMARK   12  A    between atoms: N_26  and  C_27
REMARK   13  A    between atoms: C_27  and  C_28
REMARK                            x       y       z     vdW  Elec       q    Type
REMARK                         _______ _______ _______ _____ _____    ______ ____
ROOT
ATOM      1  C   UNL     1       2.441   0.950  -4.241  0.00  0.00    -0.030 C 
ATOM      2  C   UNL     1       1.452   1.083  -5.405  0.00  0.00    +0.058 C 
ATOM      3  S   UNL     1       2.089   2.343  -6.554  0.00  0.00    -0.163 S 
ATOM      4  C   UNL     1       3.812   1.815  -6.808  0.00  0.00    +0.062 C 
ATOM      5  C   UNL     1       4.448   1.573  -5.434  0.00  0.00    +0.027 C 
ATOM      6  N   UNL     1       3.738   0.494  -4.743  0.00  0.00    +0.392 N 
ATOM      7  H   UNL     1       4.299   0.174  -3.967  0.00  0.00    -0.084 HD
ATOM      8  H   UNL     1       3.594  -0.273  -5.383  0.00  0.00    -0.084 HD
ENDROOT
BRANCH   1  11
ATOM      9  C   UNL     1       0.787  -0.520  -1.183  0.00  0.00    -0.000 A 
ATOM     10  C   UNL     1       1.275   0.393  -2.098  0.00  0.00    +0.009 A 
ATOM     11  C   UNL     1       1.910  -0.048  -3.244  0.00  0.00    -0.060 A 
ATOM     12  C   UNL     1       2.058  -1.403  -3.478  0.00  0.00    +0.009 A 
ATOM     13  C   UNL     1       1.573  -2.320  -2.567  0.00  0.00    -0.000 A 
ATOM     14  C   UNL     1       0.940  -1.880  -1.413  0.00  0.00    +0.124 A 
BRANCH   9  16
ATOM     15  C   UNL     1       0.060   1.490   0.074  0.00  0.00    +0.015 C 
ATOM     16  C   UNL     1       0.095  -0.040   0.066  0.00  0.00    -0.009 C 
ATOM     17  C   UNL     1       0.857  -0.538   1.296  0.00  0.00    +0.015 C 
ATOM     18  C   UNL     1      -1.335  -0.583   0.098  0.00  0.00    +0.015 C 
ENDBRANCH   9  16
BRANCH  13  19
ATOM     19  C   UNL     1       1.735  -3.796  -2.822  0.00  0.00    -0.009 C 
ATOM     20  C   UNL     1       2.466  -4.006  -4.150  0.00  0.00    +0.015 C 
ATOM     21  C   UNL     1       2.547  -4.423  -1.688  0.00  0.00    +0.015 C 
ATOM     22  C   UNL     1       0.356  -4.456  -2.889  0.00  0.00    +0.015 C 
ENDBRANCH  13  19
BRANCH  14  23
ATOM     23  O   UNL     1       0.466  -2.780  -0.511  0.00  0.00    -0.506 OA
ATOM     24  H   UNL     1      -0.446  -3.056  -0.673  0.00  0.00    +0.292 HD
ENDBRANCH  14  23
ENDBRANCH   1  11
BRANCH   5  25
ATOM     25  C   UNL     1       4.364   2.834  -4.614  0.00  0.00    +0.200 C 
ATOM     26  O   UNL     1       4.173   2.768  -3.418  0.00  0.00    -0.278 OA
ATOM     27  N   UNL     1       4.499   4.035  -5.209  0.00  0.00    -0.312 N 
ATOM     28  H   UNL     1       4.652   4.088  -6.166  0.00  0.00    +0.149 HD
BRANCH  27  29
ATOM     29  C   UNL     1       4.417   5.261  -4.412  0.00  0.00    +0.142 C 
BRANCH  29  30
ATOM     30  C   UNL     1       4.601   6.458  -5.309  0.00  0.00    +0.005 A 
ATOM     31  C   UNL     1       5.829   7.088  -5.379  0.00  0.00    +0.008 A 
ATOM     32  C   UNL     1       5.997   8.186  -6.202  0.00  0.00    +0.000 A 
ATOM     33  C   UNL     1       4.938   8.654  -6.957  0.00  0.00    +0.003 A 
ATOM     34  C   UNL     1       3.709   8.025  -6.889  0.00  0.00    +0.038 A 
ATOM     35  C   UNL     1       3.541   6.922  -6.069  0.00  0.00    +0.128 A 
ATOM     36  F   UNL     1       2.341   6.304  -6.006  0.00  0.00    -0.205 F 
ENDBRANCH  29  30
ENDBRANCH  27  29
ENDBRANCH   5  25
TORSDOF 7
