REMARK  Name = ZINC67416116
REMARK  10 active torsions:
REMARK  status: ('A' for Active; 'I' for Inactive)
REMARK    1  A    between atoms: C_1  and  C_2
REMARK    2  A    between atoms: C_2  and  C_4
REMARK    3  A    between atoms: C_2  and  N_14
REMARK    4  A    between atoms: N_9  and  C_10
REMARK    5  A    between atoms: C_10  and  C_11
REMARK    6  A    between atoms: C_10  and  C_12
REMARK    7  A    between atoms: C_10  and  C_13
REMARK    8  A    between atoms: C_18  and  C_21
REMARK    9  A    between atoms: C_21  and  N_22
REMARK   10  A    between atoms: C_23  and  C_25
REMARK                            x       y       z     vdW  Elec       q    Type
REMARK                         _______ _______ _______ _____ _____    ______ ____
ROOT
ATOM      1  C   UNL     1       0.360   1.425   0.416  0.00  0.00    -0.004 C 
ATOM      2  C   UNL     1       0.002  -0.004   0.002  0.00  0.00    +0.017 C 
ENDROOT
BRANCH   2   3
ATOM      3  C   UNL     1       0.793  -0.386  -1.223  0.00  0.00    +0.207 C 
ATOM      4  O   UNL     1       1.869  -0.931  -1.103  0.00  0.00    -0.277 OA
ATOM      5  N   UNL     1       0.304  -0.121  -2.450  0.00  0.00    -0.242 N 
ATOM      6  C   UNL     1       1.011  -0.463  -3.546  0.00  0.00    +0.306 C 
ATOM      7  O   UNL     1       2.090  -1.009  -3.426  0.00  0.00    -0.252 OA
ATOM      8  N   UNL     1       0.522  -0.198  -4.773  0.00  0.00    -0.294 N 
ATOM      9  H   UNL     1      -0.557   0.315  -2.546  0.00  0.00    +0.159 HD
ATOM     10  H   UNL     1      -0.339   0.238  -4.869  0.00  0.00    +0.151 HD
BRANCH   8  11
ATOM     11  C   UNL     1       1.291  -0.569  -5.964  0.00  0.00    +0.028 C 
ATOM     12  C   UNL     1       1.517  -2.082  -5.974  0.00  0.00    +0.031 C 
ATOM     13  C   UNL     1       0.517  -0.161  -7.219  0.00  0.00    +0.031 C 
ATOM     14  C   UNL     1       2.642   0.148  -5.942  0.00  0.00    +0.031 C 
ENDBRANCH   8  11
ENDBRANCH   2   3
BRANCH   2  15
ATOM     15  N   UNL     1       0.323  -0.926   1.099  0.00  0.00    +0.387 N 
ATOM     16  C   UNL     1      -0.004  -2.299   0.694  0.00  0.00    -0.078 C 
ATOM     17  C   UNL     1       0.404  -3.272   1.802  0.00  0.00    -0.018 C 
ATOM     18  C   UNL     1      -0.355  -2.923   3.086  0.00  0.00    +0.001 C 
ATOM     19  C   UNL     1      -0.065  -1.466   3.458  0.00  0.00    -0.011 C 
ATOM     20  C   UNL     1      -0.455  -0.559   2.288  0.00  0.00    -0.073 C 
ATOM     21  H   UNL     1       1.308  -0.866   1.311  0.00  0.00    -0.081 HD
BRANCH  19  22
ATOM     22  C   UNL     1      -0.879  -1.083   4.696  0.00  0.00    +0.105 C 
BRANCH  22  23
ATOM     23  N   UNL     1      -0.424  -1.873   5.843  0.00  0.00    -0.315 N 
ATOM     24  C   UNL     1      -1.001  -1.705   7.049  0.00  0.00    +0.210 C 
ATOM     25  O   UNL     1      -1.897  -0.899   7.185  0.00  0.00    -0.276 OA
ATOM     26  C   UNL     1      -0.534  -2.518   8.228  0.00  0.00    +0.109 C 
ATOM     27  H   UNL     1       0.292  -2.518   5.734  0.00  0.00    +0.149 HD
ENDBRANCH  22  23
ENDBRANCH  19  22
ENDBRANCH   2  15
TORSDOF 5
