REMARK  Name = ZINC58411991
REMARK  6 active torsions:
REMARK  status: ('A' for Active; 'I' for Inactive)
REMARK    1  A    between atoms: C_1  and  C_2
REMARK    2  A    between atoms: C_2  and  C_4
REMARK    3  A    between atoms: C_2  and  N_10
REMARK    4  A    between atoms: C_11  and  C_13
REMARK    5  A    between atoms: N_16  and  C_18
REMARK    6  A    between atoms: C_21  and  N_24
REMARK                            x       y       z     vdW  Elec       q    Type
REMARK                         _______ _______ _______ _____ _____    ______ ____
ROOT
ATOM      1  C   UNL     1       0.765  -1.123   3.552  0.00  0.00    +0.147 A 
ATOM      2  C   UNL     1       0.209  -1.329   4.837  0.00  0.00    +0.054 A 
ATOM      3  C   UNL     1       1.229  -1.779   5.605  0.00  0.00    +0.115 A 
ATOM      4  N   UNL     1       2.332  -1.835   4.814  0.00  0.00    -0.239 N 
ATOM      5  N   UNL     1       2.039  -1.454   3.622  0.00  0.00    -0.162 NA
ENDROOT
BRANCH   4   6
ATOM      6  C   UNL     1       3.601  -2.253   5.235  0.00  0.00    +0.065 A 
ATOM      7  C   UNL     1       3.801  -2.655   6.548  0.00  0.00    +0.030 A 
ATOM      8  C   UNL     1       5.054  -3.066   6.960  0.00  0.00    +0.035 A 
ATOM      9  C   UNL     1       6.109  -3.077   6.065  0.00  0.00    +0.126 A 
ATOM     10  C   UNL     1       5.912  -2.677   4.756  0.00  0.00    +0.035 A 
ATOM     11  C   UNL     1       4.661  -2.271   4.337  0.00  0.00    +0.030 A 
BRANCH   9  12
ATOM     12  N   UNL     1       7.450  -3.518   6.510  0.00  0.00    +0.056 N 
ATOM     13  O   UNL     1       7.623  -3.869   7.654  0.00  0.00    -0.126 OA
ATOM     14  O   UNL     1       8.372  -3.529   5.729  0.00  0.00    -0.126 OA
ENDBRANCH   9  12
ENDBRANCH   4   6
BRANCH   1  16
ATOM     15  N   UNL     1       0.711  -0.489   1.189  0.00  0.00    -0.305 N 
ATOM     16  C   UNL     1       0.051  -0.633   2.355  0.00  0.00    +0.264 C 
ATOM     17  O   UNL     1      -1.132  -0.361   2.423  0.00  0.00    -0.268 OA
ATOM     18  H   UNL     1       1.654  -0.707   1.135  0.00  0.00    +0.149 HD
BRANCH  15  20
ATOM     19  C   UNL     1      -0.019   1.526   0.010  0.00  0.00    +0.030 C 
ATOM     20  C   UNL     1       0.002  -0.004   0.002  0.00  0.00    +0.099 C 
BRANCH  20  21
ATOM     21  C   UNL     1       0.718  -0.497  -1.257  0.00  0.00    +0.138 C 
ATOM     22  C   UNL     1      -0.066  -0.071  -2.523  0.00  0.00    +0.035 C 
ATOM     23  C   UNL     1       1.068  -0.066  -3.584  0.00  0.00    +0.031 C 
ATOM     24  C   UNL     1       2.287   0.399  -2.759  0.00  0.00    +0.160 C 
ATOM     25  O   UNL     1       2.003   0.133  -1.379  0.00  0.00    -0.375 OA
ENDBRANCH  20  21
ENDBRANCH  15  20
ENDBRANCH   1  16
TORSDOF 5
