REMARK  Name = ZINC10818651
REMARK  14 active torsions:
REMARK  status: ('A' for Active; 'I' for Inactive)
REMARK    1  A    between atoms: C_1  and  C_2
REMARK    2  A    between atoms: C_2  and  N_64
REMARK    3  A    between atoms: C_3  and  C_4
REMARK    4  A    between atoms: C_3  and  N_64
REMARK    5  A    between atoms: C_5  and  C_6
REMARK    6  A    between atoms: C_5  and  N_64
REMARK    7  A    between atoms: C_6  and  N_7
REMARK    8  A    between atoms: C_13  and  S_17
REMARK    9  A    between atoms: S_17  and  C_20
REMARK   10  A    between atoms: C_21  and  C_23
REMARK   11  A    between atoms: C_26  and  O_29
REMARK   12  A    between atoms: O_29  and  C_30
REMARK   13  A    between atoms: C_30  and  C_31
REMARK   14  A    between atoms: C_30  and  C_32
REMARK                            x       y       z     vdW  Elec       q    Type
REMARK                         _______ _______ _______ _____ _____    ______ ____
ROOT
ATOM      1  N   UNL     1       0.765   0.733   0.546  0.00  0.00    -0.248 N 
ATOM      2  C   UNL     1      -0.291  -0.047   0.984  0.00  0.00    +0.168 A 
ATOM      3  N   UNL     1      -0.774  -1.149   0.457  0.00  0.00    -0.224 NA
ATOM      4  C   UNL     1      -1.819  -1.813   0.996  0.00  0.00    +0.080 A 
ATOM      5  C   UNL     1      -2.432  -3.000   0.533  0.00  0.00    +0.031 A 
ATOM      6  C   UNL     1      -3.494  -3.548   1.203  0.00  0.00    +0.029 A 
ATOM      7  C   UNL     1      -4.004  -2.963   2.353  0.00  0.00    +0.089 A 
ATOM      8  C   UNL     1      -3.430  -1.802   2.835  0.00  0.00    +0.044 A 
ATOM      9  C   UNL     1      -2.366  -1.246   2.170  0.00  0.00    +0.043 A 
ATOM     10  S   UNL     1      -1.339   0.184   2.413  0.00  0.00    -0.052 S 
ATOM     11  C   UNL     1       1.114   1.840   1.232  0.00  0.00    +0.252 C 
ATOM     12  O   UNL     1       0.472   2.179   2.207  0.00  0.00    -0.270 OA
ENDROOT
BRANCH  11  13
ATOM     13  C   UNL     1       2.272   2.644   0.794  0.00  0.00    +0.038 A 
ATOM     14  C   UNL     1       3.330   2.037   0.113  0.00  0.00    +0.016 A 
ATOM     15  C   UNL     1       4.405   2.792  -0.297  0.00  0.00    +0.046 A 
ATOM     16  C   UNL     1       4.445   4.155  -0.026  0.00  0.00    +0.121 A 
ATOM     17  C   UNL     1       3.397   4.762   0.656  0.00  0.00    +0.046 A 
ATOM     18  C   UNL     1       2.315   4.015   1.065  0.00  0.00    +0.016 A 
BRANCH  16  19
ATOM     19  O   UNL     1       5.509   4.894  -0.428  0.00  0.00    -0.489 OA
BRANCH  19  20
ATOM     20  C   UNL     1       5.462   6.297  -0.161  0.00  0.00    +0.167 C 
ATOM     21  C   UNL     1       5.922   6.559   1.275  0.00  0.00    +0.051 C 
ATOM     22  C   UNL     1       6.386   7.033  -1.133  0.00  0.00    +0.051 C 
ENDBRANCH  19  20
ENDBRANCH  16  19
ENDBRANCH  11  13
BRANCH   7  23
ATOM     23  S   UNL     1      -5.371  -3.695   3.192  0.00  0.00    -0.006 S 
ATOM     24  O   UNL     1      -5.306  -5.074   2.857  0.00  0.00    -0.170 OA
ATOM     25  O   UNL     1      -5.238  -3.269   4.541  0.00  0.00    -0.170 OA
ATOM     26  C   UNL     1      -6.838  -2.938   2.440  0.00  0.00    +0.200 C 
ENDBRANCH   7  23
BRANCH   1  27
ATOM     27  C   UNL     1       1.504   0.356  -0.661  0.00  0.00    +0.097 C 
BRANCH  27  28
ATOM     28  C   UNL     1       2.390  -0.855  -0.360  0.00  0.00    -0.059 C 
BRANCH  28  29
ATOM     29  N   UNL     1       3.240  -1.129  -1.538  0.00  0.00    +0.380 N 
ATOM     30  H   UNL     1       3.744  -0.272  -1.793  0.00  0.00    -0.082 HD
BRANCH  29  32
ATOM     31  C   UNL     1       5.226  -2.293  -2.366  0.00  0.00    -0.017 C 
ATOM     32  C   UNL     1       4.222  -2.186  -1.216  0.00  0.00    -0.082 C 
ENDBRANCH  29  32
BRANCH  29  33
ATOM     33  C   UNL     1       2.400  -1.550  -2.679  0.00  0.00    -0.082 C 
ATOM     34  C   UNL     1       1.528  -2.747  -2.291  0.00  0.00    -0.017 C 
ENDBRANCH  29  33
ENDBRANCH  28  29
ENDBRANCH  27  28
ENDBRANCH   1  27
TORSDOF 9
