REMARK  Name = ZINC05663588
REMARK  11 active torsions:
REMARK  status: ('A' for Active; 'I' for Inactive)
REMARK    1  A    between atoms: C_1  and  C_2
REMARK    2  A    between atoms: C_2  and  O_3
REMARK    3  A    between atoms: O_3  and  C_4
REMARK    4  A    between atoms: C_4  and  C_6
REMARK    5  A    between atoms: C_7  and  C_31
REMARK    6  A    between atoms: C_15  and  C_17
REMARK    7  A    between atoms: C_19  and  O_26
REMARK    8  A    between atoms: C_20  and  O_25
REMARK    9  A    between atoms: C_21  and  O_23
REMARK   10  A    between atoms: O_23  and  C_24
REMARK   11  A    between atoms: O_26  and  C_27
REMARK                            x       y       z     vdW  Elec       q    Type
REMARK                         _______ _______ _______ _____ _____    ______ ____
ROOT
ATOM      1  C   UNL     1      -1.282  -4.640   0.622  0.00  0.00    +0.086 C 
ATOM      2  C   UNL     1      -0.032  -4.982   0.285  0.00  0.00    +0.113 C 
ATOM      3  O   UNL     1       0.852  -4.100  -0.196  0.00  0.00    -0.460 OA
ATOM      4  C   UNL     1       0.653  -2.776   0.012  0.00  0.00    +0.136 A 
ATOM      5  C   UNL     1       1.724  -1.899  -0.111  0.00  0.00    +0.096 A 
ATOM      6  C   UNL     1       1.541  -0.543   0.095  0.00  0.00    +0.170 A 
ATOM      7  C   UNL     1       0.279  -0.057   0.427  0.00  0.00    +0.167 A 
ATOM      8  C   UNL     1      -0.787  -0.932   0.549  0.00  0.00    +0.057 A 
ATOM      9  C   UNL     1      -0.602  -2.288   0.342  0.00  0.00    +0.011 A 
ATOM     10  C   UNL     1      -1.772  -3.226   0.479  0.00  0.00    +0.093 C 
ATOM     11  O   UNL     1       0.359   1.299   0.576  0.00  0.00    -0.453 OA
ATOM     12  C   UNL     1       1.761   1.585   0.734  0.00  0.00    +0.466 C 
ATOM     13  O   UNL     1       2.412   0.507   0.036  0.00  0.00    -0.452 OA
ATOM     14  C   UNL     1       0.396  -6.417   0.455  0.00  0.00    +0.087 C 
ENDROOT
BRANCH  10  15
ATOM     15  C   UNL     1      -2.643  -3.122  -0.746  0.00  0.00    -0.028 A 
ATOM     16  C   UNL     1      -2.118  -3.411  -1.992  0.00  0.00    +0.054 A 
ATOM     17  C   UNL     1      -2.917  -3.322  -3.121  0.00  0.00    +0.165 A 
ATOM     18  C   UNL     1      -4.245  -2.930  -3.001  0.00  0.00    +0.201 A 
ATOM     19  C   UNL     1      -4.768  -2.635  -1.747  0.00  0.00    +0.165 A 
ATOM     20  C   UNL     1      -3.963  -2.732  -0.622  0.00  0.00    +0.054 A 
BRANCH  19  21
ATOM     21  O   UNL     1      -6.067  -2.252  -1.624  0.00  0.00    -0.491 OA
ATOM     22  C   UNL     1      -6.536  -1.964  -0.305  0.00  0.00    +0.277 C 
ENDBRANCH  19  21
BRANCH  18  23
ATOM     23  O   UNL     1      -5.032  -2.836  -4.107  0.00  0.00    -0.501 OA
ATOM     24  H   UNL     1      -5.019  -1.964  -4.526  0.00  0.00    +0.292 HD
ENDBRANCH  18  23
BRANCH  17  25
ATOM     25  O   UNL     1      -2.401  -3.612  -4.345  0.00  0.00    -0.491 OA
ATOM     26  C   UNL     1      -1.029  -4.007  -4.394  0.00  0.00    +0.277 C 
ENDBRANCH  17  25
ENDBRANCH  10  15
BRANCH   1  27
ATOM     27  C   UNL     1      -2.161  -5.631   1.122  0.00  0.00    +0.339 C 
ATOM     28  O   UNL     1      -2.440  -5.654   2.306  0.00  0.00    -0.245 OA
BRANCH  27  29
ATOM     29  O   UNL     1      -2.688  -6.549   0.286  0.00  0.00    -0.462 OA
BRANCH  29  31
ATOM     30  C   UNL     1      -4.062  -8.468  -0.234  0.00  0.00    +0.048 C 
ATOM     31  C   UNL     1      -3.567  -7.519   0.859  0.00  0.00    +0.229 C 
ENDBRANCH  29  31
ENDBRANCH  27  29
ENDBRANCH   1  27
TORSDOF 7
