REMARK  Name = ZINC13643466
REMARK  14 active torsions:
REMARK  status: ('A' for Active; 'I' for Inactive)
REMARK    1  A    between atoms: C_1  and  C_2
REMARK    2  A    between atoms: C_2  and  O_3
REMARK    3  A    between atoms: O_3  and  C_4
REMARK    4  A    between atoms: C_4  and  C_6
REMARK    5  A    between atoms: C_7  and  C_25
REMARK    6  A    between atoms: C_12  and  C_14
REMARK    7  A    between atoms: C_17  and  O_23
REMARK    8  A    between atoms: C_18  and  C_20
REMARK    9  A    between atoms: C_20  and  O_21
REMARK   10  A    between atoms: O_21  and  C_22
REMARK   11  A    between atoms: O_23  and  C_24
REMARK   12  A    between atoms: C_25  and  S_26
REMARK   13  A    between atoms: S_26  and  C_27
REMARK   14  A    between atoms: C_31  and  C_33
REMARK                            x       y       z     vdW  Elec       q    Type
REMARK                         _______ _______ _______ _____ _____    ______ ____
ROOT
ATOM      1  C   UNL     1      -2.295  -2.464   1.169  0.00  0.00    +0.079 C 
ATOM      2  C   UNL     1      -2.262  -1.818  -0.017  0.00  0.00    +0.034 C 
ATOM      3  N   UNL     1      -2.176  -2.507  -1.193  0.00  0.00    -0.272 N 
ATOM      4  C   UNL     1      -2.108  -3.842  -1.268  0.00  0.00    +0.304 C 
ATOM      5  O   UNL     1      -2.028  -4.367  -2.362  0.00  0.00    -0.252 OA
ATOM      6  N   UNL     1      -2.130  -4.625  -0.170  0.00  0.00    -0.288 N 
ATOM      7  C   UNL     1      -2.227  -3.978   1.149  0.00  0.00    +0.144 C 
ATOM      8  H   UNL     1      -2.159  -2.001  -2.020  0.00  0.00    +0.156 HD
ATOM      9  H   UNL     1      -2.083  -5.590  -0.248  0.00  0.00    +0.151 HD
ENDROOT
BRANCH   7  10
ATOM     10  C   UNL     1      -1.030  -4.400   1.962  0.00  0.00    -0.022 A 
ATOM     11  C   UNL     1       0.234  -4.351   1.405  0.00  0.00    +0.009 A 
ATOM     12  C   UNL     1       1.333  -4.737   2.149  0.00  0.00    +0.046 A 
ATOM     13  C   UNL     1       1.167  -5.174   3.455  0.00  0.00    +0.125 A 
ATOM     14  C   UNL     1      -0.103  -5.223   4.011  0.00  0.00    +0.020 A 
ATOM     15  C   UNL     1      -1.198  -4.830   3.265  0.00  0.00    +0.015 A 
BRANCH  13  16
ATOM     16  O   UNL     1       2.246  -5.554   4.188  0.00  0.00    -0.495 OA
ATOM     17  C   UNL     1       3.522  -5.479   3.551  0.00  0.00    +0.277 C 
ENDBRANCH  13  16
BRANCH  14  18
ATOM     18  C   UNL     1      -0.288  -5.697   5.430  0.00  0.00    +0.198 C 
BRANCH  18  19
ATOM     19  O   UNL     1      -1.675  -5.656   5.769  0.00  0.00    -0.378 OA
ATOM     20  C   UNL     1      -1.961  -6.088   7.101  0.00  0.00    +0.194 C 
ENDBRANCH  18  19
ENDBRANCH  14  18
ENDBRANCH   7  10
BRANCH   1  21
ATOM     21  C   UNL     1      -2.389  -1.752   2.387  0.00  0.00    +0.339 C 
ATOM     22  O   UNL     1      -2.297  -0.539   2.392  0.00  0.00    -0.245 OA
BRANCH  21  23
ATOM     23  O   UNL     1      -2.581  -2.418   3.545  0.00  0.00    -0.462 OA
BRANCH  23  25
ATOM     24  C   UNL     1      -2.883  -2.558   5.939  0.00  0.00    +0.048 C 
ATOM     25  C   UNL     1      -2.666  -1.635   4.737  0.00  0.00    +0.229 C 
ENDBRANCH  23  25
ENDBRANCH  21  23
ENDBRANCH   1  21
BRANCH   2  26
ATOM     26  C   UNL     1      -2.328  -0.313  -0.043  0.00  0.00    +0.128 C 
BRANCH  26  27
ATOM     27  S   UNL     1      -0.660   0.360  -0.248  0.00  0.00    -0.080 S 
BRANCH  27  28
ATOM     28  C   UNL     1      -1.024   2.084  -0.245  0.00  0.00    +0.189 A 
ATOM     29  N   UNL     1      -2.282   2.480  -0.116  0.00  0.00    -0.230 NA
ATOM     30  C   UNL     1      -2.588   3.767  -0.104  0.00  0.00    +0.116 A 
ATOM     31  C   UNL     1      -1.576   4.704  -0.240  0.00  0.00    +0.052 A 
ATOM     32  C   UNL     1      -0.272   4.256  -0.379  0.00  0.00    +0.148 A 
ATOM     33  N   UNL     1      -0.033   2.955  -0.378  0.00  0.00    -0.218 NA
BRANCH  32  34
ATOM     34  C   UNL     1       0.861   5.239  -0.530  0.00  0.00    +0.434 C 
ATOM     35  F   UNL     1       2.052   4.545  -0.766  0.00  0.00    -0.164 F 
ATOM     36  F   UNL     1       0.597   6.092  -1.607  0.00  0.00    -0.164 F 
ATOM     37  F   UNL     1       0.984   5.992   0.642  0.00  0.00    -0.164 F 
ENDBRANCH  32  34
ENDBRANCH  27  28
ENDBRANCH  26  27
ENDBRANCH   2  26
TORSDOF 11
