REMARK  Name = ZINC39914450
REMARK  9 active torsions:
REMARK  status: ('A' for Active; 'I' for Inactive)
REMARK    1  A    between atoms: C_1  and  C_2
REMARK    2  A    between atoms: C_2  and  C_3
REMARK    3  A    between atoms: C_3  and  C_4
REMARK    4  A    between atoms: C_4  and  C_5
REMARK    5  A    between atoms: C_5  and  N_6
REMARK    6  A    between atoms: C_7  and  C_26
REMARK    7  A    between atoms: C_10  and  C_17
REMARK    8  A    between atoms: C_20  and  C_24
REMARK    9  A    between atoms: C_22  and  O_23
REMARK                            x       y       z     vdW  Elec       q    Type
REMARK                         _______ _______ _______ _____ _____    ______ ____
ROOT
ATOM      1  N   UNL     1       1.475  -3.986  -2.532  0.00  0.00    -0.285 N 
ATOM      2  C   UNL     1       2.520  -4.835  -1.946  0.00  0.00    +0.141 C 
ATOM      3  C   UNL     1       2.097  -6.255  -2.207  0.00  0.00    +0.035 A 
ATOM      4  C   UNL     1       2.384  -7.617  -2.061  0.00  0.00    +0.102 A 
ATOM      5  N   UNL     1       1.403  -8.289  -2.630  0.00  0.00    -0.173 NA
ATOM      6  N   UNL     1       0.526  -7.488  -3.121  0.00  0.00    -0.272 N 
ATOM      7  H   UNL     1      -0.281  -7.761  -3.584  0.00  0.00    +0.189 HD
ATOM      8  C   UNL     1       0.898  -6.194  -2.891  0.00  0.00    +0.126 A 
ATOM      9  C   UNL     1       0.536  -4.784  -3.072  0.00  0.00    +0.265 C 
ATOM     10  O   UNL     1      -0.469  -4.391  -3.634  0.00  0.00    -0.268 OA
ENDROOT
BRANCH   4  11
ATOM     11  C   UNL     1       3.573  -8.197  -1.390  0.00  0.00    +0.045 A 
ATOM     12  C   UNL     1       4.534  -7.362  -0.824  0.00  0.00    +0.034 A 
ATOM     13  C   UNL     1       5.639  -7.907  -0.200  0.00  0.00    +0.045 A 
ATOM     14  C   UNL     1       5.795  -9.281  -0.135  0.00  0.00    -0.029 A 
ATOM     15  C   UNL     1       4.848 -10.118  -0.694  0.00  0.00    +0.050 A 
ATOM     16  C   UNL     1       3.732  -9.584  -1.318  0.00  0.00    +0.126 A 
ATOM     17  C   UNL     1       7.005  -9.868   0.547  0.00  0.00    +0.045 C 
ATOM     18 CL   UNL     1       6.836  -6.866   0.505  0.00  0.00    -0.083 Cl
BRANCH  16  19
ATOM     19  O   UNL     1       2.796 -10.405  -1.862  0.00  0.00    -0.506 OA
ATOM     20  H   UNL     1       2.964 -10.633  -2.787  0.00  0.00    +0.292 HD
ENDBRANCH  16  19
ENDBRANCH   4  11
BRANCH   2  21
ATOM     21  C   UNL     1       3.845  -4.558  -2.608  0.00  0.00    -0.021 A 
ATOM     22  C   UNL     1       3.905  -4.341  -3.972  0.00  0.00    +0.006 A 
ATOM     23  C   UNL     1       5.120  -4.087  -4.580  0.00  0.00    +0.002 A 
ATOM     24  C   UNL     1       6.277  -4.048  -3.824  0.00  0.00    +0.020 A 
ATOM     25  C   UNL     1       6.218  -4.265  -2.458  0.00  0.00    +0.041 A 
ATOM     26  C   UNL     1       5.000  -4.514  -1.850  0.00  0.00    +0.025 A 
ATOM     27 CL   UNL     1       7.670  -4.217  -1.508  0.00  0.00    -0.084 Cl
ENDBRANCH   2  21
BRANCH   1  28
ATOM     28  C   UNL     1       1.455  -2.521  -2.524  0.00  0.00    +0.109 C 
BRANCH  28  29
ATOM     29  C   UNL     1       0.739  -2.027  -1.265  0.00  0.00    +0.019 C 
BRANCH  29  30
ATOM     30  C   UNL     1       0.718  -0.497  -1.257  0.00  0.00    +0.001 C 
BRANCH  30  32
ATOM     31  C   UNL     1      -0.019   1.526   0.010  0.00  0.00    +0.004 C 
ATOM     32  C   UNL     1       0.002  -0.004   0.002  0.00  0.00    -0.003 C 
ENDBRANCH  30  32
ENDBRANCH  29  30
ENDBRANCH  28  29
ENDBRANCH   1  28
TORSDOF 7
