REMARK  Name = ZINC40066151
REMARK  9 active torsions:
REMARK  status: ('A' for Active; 'I' for Inactive)
REMARK    1  A    between atoms: C_1  and  C_2
REMARK    2  A    between atoms: C_2  and  C_3
REMARK    3  A    between atoms: C_3  and  C_4
REMARK    4  A    between atoms: C_10  and  C_27
REMARK    5  A    between atoms: C_18  and  C_26
REMARK    6  A    between atoms: C_19  and  C_25
REMARK    7  A    between atoms: C_30  and  O_33
REMARK    8  A    between atoms: O_33  and  C_34
REMARK    9  A    between atoms: C_34  and  C_35
REMARK                            x       y       z     vdW  Elec       q    Type
REMARK                         _______ _______ _______ _____ _____    ______ ____
ROOT
ATOM      1  C   UNL     1       0.762  -2.018   1.233  0.00  0.00    +0.104 A 
ATOM      2  N   UNL     1       1.647  -2.850   0.720  0.00  0.00    -0.145 NA
ATOM      3  N   UNL     1       1.516  -4.102   0.800  0.00  0.00    -0.125 NA
ATOM      4  C   UNL     1       0.477  -4.659   1.407  0.00  0.00    +0.191 A 
ATOM      5  S   UNL     1      -0.403  -3.188   1.924  0.00  0.00    -0.035 S 
ATOM      6  N   UNL     1       0.164  -6.000   1.593  0.00  0.00    -0.230 N 
ATOM      7  C   UNL     1       0.965  -7.146   1.137  0.00  0.00    +0.151 C 
ATOM      8  C   UNL     1       0.217  -8.364   1.569  0.00  0.00    +0.072 A 
ATOM      9  C   UNL     1       0.509  -9.791   1.395  0.00  0.00    +0.199 A 
ATOM     10  O   UNL     1       1.575 -10.207   0.977  0.00  0.00    -0.287 OA
ATOM     11  C   UNL     1      -0.618 -10.679   1.778  0.00  0.00    +0.065 A 
ATOM     12  C   UNL     1      -0.573 -12.042   1.486  0.00  0.00    +0.015 A 
ATOM     13  C   UNL     1      -1.621 -12.846   1.840  0.00  0.00    +0.004 A 
ATOM     14  C   UNL     1      -2.725 -12.309   2.486  0.00  0.00    -0.044 A 
ATOM     15  C   UNL     1      -2.786 -10.967   2.784  0.00  0.00    -0.005 A 
ATOM     16  C   UNL     1      -1.728 -10.126   2.435  0.00  0.00    +0.143 A 
ATOM     17  O   UNL     1      -1.804  -8.812   2.746  0.00  0.00    -0.449 OA
ATOM     18  C   UNL     1      -0.910  -7.950   2.221  0.00  0.00    +0.199 A 
ATOM     19  C   UNL     1      -0.925  -6.478   2.229  0.00  0.00    +0.289 C 
ATOM     20  O   UNL     1      -1.794  -5.793   2.733  0.00  0.00    -0.266 OA
ATOM     21  C   UNL     1      -3.995 -10.405   3.486  0.00  0.00    +0.048 C 
ATOM     22  C   UNL     1      -3.873 -13.208   2.867  0.00  0.00    +0.044 C 
ENDROOT
BRANCH   7  23
ATOM     23  C   UNL     1       2.329  -7.116   1.778  0.00  0.00    -0.022 A 
ATOM     24  C   UNL     1       2.461  -6.731   3.100  0.00  0.00    +0.009 A 
ATOM     25  C   UNL     1       3.709  -6.702   3.690  0.00  0.00    +0.046 A 
ATOM     26  C   UNL     1       4.831  -7.061   2.957  0.00  0.00    +0.121 A 
ATOM     27  C   UNL     1       4.695  -7.448   1.631  0.00  0.00    +0.046 A 
ATOM     28  C   UNL     1       3.444  -7.480   1.047  0.00  0.00    +0.009 A 
BRANCH  26  29
ATOM     29  O   UNL     1       6.060  -7.033   3.535  0.00  0.00    -0.483 OA
BRANCH  29  30
ATOM     30  C   UNL     1       7.170  -7.415   2.720  0.00  0.00    +0.324 C 
BRANCH  30  31
ATOM     31  C   UNL     1       8.440  -7.323   3.526  0.00  0.00    +0.248 C 
ATOM     32  O   UNL     1       8.399  -6.965   4.684  0.00  0.00    -0.272 OA
ATOM     33  N   UNL     1       9.622  -7.638   2.959  0.00  0.00    -0.327 N 
ATOM     34  H   UNL     1       9.654  -7.924   2.032  0.00  0.00    +0.145 HD
ATOM     35  H   UNL     1      10.439  -7.579   3.477  0.00  0.00    +0.145 HD
ENDBRANCH  30  31
ENDBRANCH  29  30
ENDBRANCH  26  29
ENDBRANCH   7  23
BRANCH   1  36
ATOM     36  C   UNL     1       0.742  -0.511   1.242  0.00  0.00    +0.064 C 
BRANCH  36  38
ATOM     37  C   UNL     1      -0.019   1.526   0.010  0.00  0.00    +0.004 C 
ATOM     38  C   UNL     1       0.002  -0.004   0.002  0.00  0.00    +0.003 C 
ENDBRANCH  36  38
ENDBRANCH   1  36
TORSDOF 6
