REMARK  Name = ZINC09881939
REMARK  7 active torsions:
REMARK  status: ('A' for Active; 'I' for Inactive)
REMARK    1  A    between atoms: C_6  and  N_7
REMARK    2  A    between atoms: C_8  and  C_25
REMARK    3  A    between atoms: C_11  and  S_12
REMARK    4  A    between atoms: S_12  and  C_13
REMARK    5  A    between atoms: C_13  and  C_14
REMARK    6  A    between atoms: N_16  and  C_17
REMARK    7  A    between atoms: C_25  and  N_66
REMARK                            x       y       z     vdW  Elec       q    Type
REMARK                         _______ _______ _______ _____ _____    ______ ____
ROOT
ATOM      1  N   UNL     1      -2.938  -4.510   0.006  0.00  0.00    -0.276 N 
ATOM      2  C   UNL     1      -4.307  -4.521   0.019  0.00  0.00    +0.122 A 
ATOM      3  N   UNL     1      -4.705  -3.280   0.030  0.00  0.00    -0.135 NA
ATOM      4  N   UNL     1      -3.690  -2.491   0.030  0.00  0.00    -0.122 NA
ATOM      5  C   UNL     1      -2.579  -3.190   0.010  0.00  0.00    +0.197 A 
ENDROOT
BRANCH   1  11
ATOM      6  C   UNL     1      -2.074  -6.480  -1.099  0.00  0.00    +0.029 A 
ATOM      7  C   UNL     1      -1.227  -7.571  -1.113  0.00  0.00    +0.040 A 
ATOM      8  C   UNL     1      -0.392  -7.814  -0.035  0.00  0.00    +0.124 A 
ATOM      9  C   UNL     1      -0.402  -6.962   1.057  0.00  0.00    +0.040 A 
ATOM     10  C   UNL     1      -1.244  -5.867   1.072  0.00  0.00    +0.029 A 
ATOM     11  C   UNL     1      -2.081  -5.622  -0.008  0.00  0.00    +0.050 A 
ATOM     12  F   UNL     1       0.432  -8.884  -0.048  0.00  0.00    -0.205 F 
ENDBRANCH   1  11
BRANCH   5  13
ATOM     13  S   UNL     1      -0.938  -2.550  -0.003  0.00  0.00    -0.076 S 
BRANCH  13  14
ATOM     14  C   UNL     1      -1.293  -0.775   0.010  0.00  0.00    +0.173 C 
BRANCH  14  15
ATOM     15  C   UNL     1       0.002  -0.004   0.002  0.00  0.00    +0.224 C 
ATOM     16  O   UNL     1       1.060  -0.596  -0.011  0.00  0.00    -0.275 OA
ATOM     17  N   UNL     1      -0.016   1.344   0.009  0.00  0.00    -0.312 N 
ATOM     18  H   UNL     1      -0.863   1.817   0.016  0.00  0.00    +0.149 HD
BRANCH  17  19
ATOM     19  C   UNL     1       1.242   2.093   0.001  0.00  0.00    +0.073 C 
ATOM     20  C   UNL     1       1.759   2.239   1.435  0.00  0.00    +0.022 C 
ATOM     21  C   UNL     1       3.231   2.654   1.406  0.00  0.00    +0.002 C 
ATOM     22  C   UNL     1       3.976   1.824   0.360  0.00  0.00    +0.000 C 
ATOM     23  C   UNL     1       4.425   2.732  -0.787  0.00  0.00    +0.000 C 
ATOM     24  C   UNL     1       3.224   3.066  -1.673  0.00  0.00    +0.000 C 
ATOM     25  C   UNL     1       2.349   4.109  -0.975  0.00  0.00    +0.002 C 
ATOM     26  C   UNL     1       1.006   3.481  -0.599  0.00  0.00    +0.022 C 
ENDBRANCH  17  19
ENDBRANCH  14  15
ENDBRANCH  13  14
ENDBRANCH   5  13
BRANCH   2  27
ATOM     27  C   UNL     1      -5.191  -5.742   0.022  0.00  0.00    -0.001 C 
BRANCH  27  33
ATOM     28  C   UNL     1      -4.237  -6.595   2.077  0.00  0.00    -0.078 C 
ATOM     29  C   UNL     1      -4.530  -6.867   3.554  0.00  0.00    -0.019 C 
ATOM     30  C   UNL     1      -5.616  -7.941   3.664  0.00  0.00    -0.004 C 
ATOM     31  C   UNL     1      -6.867  -7.470   2.918  0.00  0.00    -0.019 C 
ATOM     32  C   UNL     1      -6.506  -7.179   1.460  0.00  0.00    -0.078 C 
ATOM     33  N   UNL     1      -5.474  -6.121   1.422  0.00  0.00    +0.384 N 
ATOM     34  H   UNL     1      -5.824  -5.297   1.926  0.00  0.00    -0.081 HD
ENDBRANCH  27  33
ENDBRANCH   2  27
TORSDOF 7
