REMARK  Name = ZINC63502530
REMARK  6 active torsions:
REMARK  status: ('A' for Active; 'I' for Inactive)
REMARK    1  A    between atoms: C_1  and  C_2
REMARK    2  A    between atoms: N_13  and  C_14
REMARK    3  A    between atoms: C_14  and  C_15
REMARK    4  A    between atoms: N_17  and  C_18
REMARK    5  A    between atoms: C_18  and  C_19
REMARK    6  A    between atoms: C_19  and  C_20
REMARK                            x       y       z     vdW  Elec       q    Type
REMARK                         _______ _______ _______ _____ _____    ______ ____
ROOT
ATOM      1  C   UNL     1       1.860  -1.325   2.872  0.00  0.00    +0.202 C 
ENDROOT
BRANCH   1  13
ATOM      2  C   UNL     1       0.340   0.733  -0.757  0.00  0.00    +0.044 C 
ATOM      3  C   UNL     1       0.513  -0.740  -0.486  0.00  0.00    -0.050 A 
ATOM      4  C   UNL     1       0.834  -1.605  -1.516  0.00  0.00    +0.007 A 
ATOM      5  C   UNL     1       1.002  -2.948  -1.265  0.00  0.00    +0.046 A 
ATOM      6  C   UNL     1       0.847  -3.459   0.026  0.00  0.00    +0.126 A 
ATOM      7  C   UNL     1       0.507  -2.585   1.048  0.00  0.00    +0.017 A 
ATOM      8  C   UNL     1       0.357  -1.234   0.794  0.00  0.00    +0.012 A 
ATOM      9  C   UNL     1       0.270  -3.096   2.444  0.00  0.00    +0.140 C 
ATOM     10  C   UNL     1       0.903  -4.479   2.499  0.00  0.00    +0.005 C 
ATOM     11  C   UNL     1       1.672  -4.511   3.546  0.00  0.00    +0.089 C 
ATOM     12  N   UNL     1       1.711  -3.277   4.178  0.00  0.00    -0.284 N 
ATOM     13  N   UNL     1       0.981  -2.335   3.475  0.00  0.00    -0.209 NA
ATOM     14  C   UNL     1       0.677  -5.467   1.382  0.00  0.00    +0.263 C 
ATOM     15  O   UNL     1       1.065  -4.789   0.181  0.00  0.00    -0.487 OA
ATOM     16  H   UNL     1       2.183  -3.097   5.006  0.00  0.00    +0.166 HD
ENDBRANCH   1  13
BRANCH   1  17
ATOM     17  C   UNL     1       2.692  -0.675   3.948  0.00  0.00    +0.229 C 
ATOM     18  O   UNL     1       2.564  -1.020   5.104  0.00  0.00    -0.274 OA
ATOM     19  N   UNL     1       3.577   0.289   3.626  0.00  0.00    -0.314 N 
ATOM     20  H   UNL     1       3.678   0.565   2.702  0.00  0.00    +0.149 HD
BRANCH  19  21
ATOM     21  C   UNL     1       4.385   0.920   4.672  0.00  0.00    +0.108 C 
BRANCH  21  22
ATOM     22  C   UNL     1       5.301   1.972   4.044  0.00  0.00    +0.052 C 
BRANCH  22  23
ATOM     23  C   UNL     1       6.133   2.621   5.120  0.00  0.00    -0.040 C 
ATOM     24  C   UNL     1       7.388   2.283   5.493  0.00  0.00    -0.001 A 
ATOM     25  C   UNL     1       8.318   1.247   5.027  0.00  0.00    +0.010 A 
ATOM     26  C   UNL     1       9.535   1.149   5.609  0.00  0.00    +0.001 A 
ATOM     27  C   UNL     1       9.929   2.010   6.643  0.00  0.00    +0.002 A 
ATOM     28  C   UNL     1       9.130   2.985   7.125  0.00  0.00    +0.026 A 
ATOM     29  C   UNL     1       7.828   3.179   6.586  0.00  0.00    +0.043 A 
ATOM     30  N   UNL     1       6.882   4.038   6.877  0.00  0.00    -0.380 N 
ATOM     31  C   UNL     1       5.735   3.788   5.997  0.00  0.00    +0.144 C 
ATOM     32  H   UNL     1       6.933   4.727   7.559  0.00  0.00    +0.160 HD
ENDBRANCH  22  23
ENDBRANCH  21  22
ENDBRANCH  19  21
ENDBRANCH   1  17
TORSDOF 5
