REMARK  Name = ZINC39362148
REMARK  8 active torsions:
REMARK  status: ('A' for Active; 'I' for Inactive)
REMARK    1  A    between atoms: C_1  and  O_2
REMARK    2  A    between atoms: O_2  and  C_3
REMARK    3  A    between atoms: C_7  and  N_9
REMARK    4  A    between atoms: C_10  and  C_24
REMARK    5  A    between atoms: C_14  and  S_15
REMARK    6  A    between atoms: S_15  and  C_16
REMARK    7  A    between atoms: C_16  and  C_17
REMARK    8  A    between atoms: C_24  and  C_25
REMARK                            x       y       z     vdW  Elec       q    Type
REMARK                         _______ _______ _______ _____ _____    ______ ____
ROOT
ATOM      1  N   UNL     1       1.325  -3.997  -2.290  0.00  0.00    -0.258 N 
ATOM      2  C   UNL     1       1.851  -4.797  -3.409  0.00  0.00    +0.187 C 
ATOM      3  N   UNL     1       1.663  -6.190  -2.968  0.00  0.00    -0.246 N 
ATOM      4  N   UNL     1       1.075  -6.121  -1.699  0.00  0.00    -0.162 NA
ATOM      5  C   UNL     1       0.895  -4.899  -1.327  0.00  0.00    +0.180 C 
ATOM      6  H   UNL     1       1.899  -6.993  -3.458  0.00  0.00    +0.170 HD
ENDROOT
BRANCH   1  11
ATOM      7  C   UNL     1       0.393  -0.506  -2.983  0.00  0.00    +0.122 A 
ATOM      8  C   UNL     1       1.176   0.161  -2.051  0.00  0.00    +0.046 A 
ATOM      9  C   UNL     1       2.004  -0.550  -1.204  0.00  0.00    +0.005 A 
ATOM     10  C   UNL     1       2.055  -1.929  -1.282  0.00  0.00    +0.024 A 
ATOM     11  C   UNL     1       1.273  -2.603  -2.212  0.00  0.00    +0.041 A 
ATOM     12  C   UNL     1       0.437  -1.889  -3.060  0.00  0.00    +0.069 A 
BRANCH   7  14
ATOM     13  C   UNL     1      -0.415   1.618  -3.681  0.00  0.00    +0.277 C 
ATOM     14  O   UNL     1      -0.420   0.195  -3.816  0.00  0.00    -0.495 OA
ENDBRANCH   7  14
ENDBRANCH   1  11
BRANCH   5  15
ATOM     15  S   UNL     1       0.185  -4.431   0.216  0.00  0.00    -0.084 S 
BRANCH  15  16
ATOM     16  C   UNL     1      -0.169  -6.011   1.033  0.00  0.00    +0.113 C 
BRANCH  16  17
ATOM     17  C   UNL     1      -0.789  -5.752   2.382  0.00  0.00    -0.019 A 
ATOM     18  C   UNL     1       0.017  -5.614   3.498  0.00  0.00    +0.006 A 
ATOM     19  C   UNL     1      -0.551  -5.376   4.735  0.00  0.00    +0.000 A 
ATOM     20  C   UNL     1      -1.925  -5.275   4.858  0.00  0.00    +0.001 A 
ATOM     21  C   UNL     1      -2.731  -5.412   3.744  0.00  0.00    +0.020 A 
ATOM     22  C   UNL     1      -2.162  -5.645   2.504  0.00  0.00    +0.045 A 
ATOM     23 CL   UNL     1      -3.174  -5.811   1.103  0.00  0.00    -0.083 Cl
ENDBRANCH  16  17
ENDBRANCH  15  16
ENDBRANCH   5  15
BRANCH   2  24
ATOM     24  C   UNL     1       3.335  -4.497  -3.632  0.00  0.00    +0.097 C 
BRANCH  24  25
ATOM     25  C   UNL     1       3.818  -5.233  -4.855  0.00  0.00    +0.029 A 
ATOM     26  N   UNL     1       4.227  -6.535  -4.757  0.00  0.00    -0.311 N 
ATOM     27  C   UNL     1       4.660  -7.201  -5.843  0.00  0.00    +0.327 A 
ATOM     28  O   UNL     1       5.018  -8.358  -5.733  0.00  0.00    -0.247 OA
ATOM     29  N   UNL     1       4.701  -6.605  -7.049  0.00  0.00    -0.275 N 
ATOM     30  C   UNL     1       4.307  -5.323  -7.187  0.00  0.00    +0.254 A 
ATOM     31  O   UNL     1       4.345  -4.783  -8.278  0.00  0.00    -0.268 OA
ATOM     32  C   UNL     1       3.845  -4.612  -6.053  0.00  0.00    +0.091 A 
ATOM     33  H   UNL     1       5.016  -7.100  -7.821  0.00  0.00    +0.173 HD
ATOM     34  H   UNL     1       4.205  -6.982  -3.896  0.00  0.00    +0.170 HD
ENDBRANCH  24  25
ENDBRANCH   2  24
TORSDOF 7
