REMARK  Name = ZINC26642304
REMARK  11 active torsions:
REMARK  status: ('A' for Active; 'I' for Inactive)
REMARK    1  A    between atoms: C_1  and  O_2
REMARK    2  A    between atoms: O_2  and  C_3
REMARK    3  A    between atoms: C_3  and  C_5
REMARK    4  A    between atoms: C_8  and  C_11
REMARK    5  A    between atoms: C_20  and  C_28
REMARK    6  A    between atoms: C_21  and  N_27
REMARK    7  A    between atoms: C_22  and  C_23
REMARK    8  A    between atoms: C_22  and  C_25
REMARK    9  A    between atoms: C_30  and  O_32
REMARK   10  A    between atoms: O_32  and  C_33
REMARK   11  A    between atoms: C_33  and  C_34
REMARK                            x       y       z     vdW  Elec       q    Type
REMARK                         _______ _______ _______ _____ _____    ______ ____
ROOT
ATOM      1  C   UNL     1      -0.712   1.950   1.285  0.00  0.00    +0.068 C 
ATOM      2  C   UNL     1      -1.136   3.419   1.322  0.00  0.00    +0.048 C 
ATOM      3  C   UNL     1      -1.683   3.819   2.673  0.00  0.00    +0.120 C 
ATOM      4  N   UNL     1      -3.141   3.968   2.634  0.00  0.00    -0.263 N 
ATOM      5  C   UNL     1      -3.701   4.843   1.587  0.00  0.00    +0.138 C 
ATOM      6  C   UNL     1      -3.206   4.319   0.262  0.00  0.00    -0.003 C 
ATOM      7  C   UNL     1      -2.062   3.671   0.170  0.00  0.00    -0.026 C 
ATOM      8  C   UNL     1      -1.642   3.132  -1.152  0.00  0.00    +0.074 C 
ATOM      9  C   UNL     1      -0.652   2.206  -1.207  0.00  0.00    +0.054 C 
ATOM     10  C   UNL     1       0.077   1.696  -0.001  0.00  0.00    +0.188 C 
ATOM     11  C   UNL     1      -3.936   3.333   3.517  0.00  0.00    +0.403 C 
ATOM     12  O   UNL     1      -3.448   2.618   4.370  0.00  0.00    -0.226 OA
ENDROOT
BRANCH   1  16
ATOM     13  C   UNL     1       1.752   1.088   4.672  0.00  0.00    +0.059 A 
ATOM     14  C   UNL     1       1.954   2.258   3.938  0.00  0.00    +0.015 A 
ATOM     15  C   UNL     1       1.155   2.530   2.846  0.00  0.00    +0.005 A 
ATOM     16  C   UNL     1       0.157   1.646   2.478  0.00  0.00    -0.041 A 
ATOM     17  C   UNL     1      -0.052   0.487   3.205  0.00  0.00    +0.005 A 
ATOM     18  C   UNL     1       0.742   0.201   4.295  0.00  0.00    +0.015 A 
BRANCH  13  19
ATOM     19  C   UNL     1       2.603   0.790   5.842  0.00  0.00    +0.339 C 
ATOM     20  O   UNL     1       3.480   1.565   6.168  0.00  0.00    -0.245 OA
BRANCH  19  22
ATOM     21  C   UNL     1       3.279  -0.567   7.686  0.00  0.00    +0.280 C 
ATOM     22  O   UNL     1       2.405  -0.339   6.549  0.00  0.00    -0.464 OA
ENDBRANCH  19  22
ENDBRANCH  13  19
ENDBRANCH   1  16
BRANCH   9  23
ATOM     23  N   UNL     1      -0.301   1.708  -2.430  0.00  0.00    -0.358 N 
ATOM     24  H   UNL     1       0.497   0.956  -2.510  0.00  0.00    +0.142 HD
ATOM     25  H   UNL     1      -0.817   2.061  -3.336  0.00  0.00    +0.142 HD
ENDBRANCH   9  23
BRANCH  10  26
ATOM     26  C   UNL     1       0.299   0.249  -0.150  0.00  0.00    +0.091 C 
ATOM     27  N   UNL     1       0.471  -0.868  -0.265  0.00  0.00    -0.194 NA
ENDBRANCH  10  26
BRANCH  10  28
ATOM     28  C   UNL     1       1.380   2.374   0.094  0.00  0.00    +0.091 C 
ATOM     29  N   UNL     1       2.386   2.898   0.167  0.00  0.00    -0.194 NA
ENDBRANCH  10  28
BRANCH   8  30
ATOM     30  C   UNL     1      -2.276   3.586  -2.353  0.00  0.00    +0.101 C 
ATOM     31  N   UNL     1      -2.778   3.947  -3.306  0.00  0.00    -0.191 NA
ENDBRANCH   8  30
BRANCH  11  32
ATOM     32  O   UNL     1      -5.272   3.490   3.455  0.00  0.00    -0.445 OA
BRANCH  32  33
ATOM     33  C   UNL     1      -6.066   2.776   4.439  0.00  0.00    +0.269 C 
BRANCH  33  34
ATOM     34  C   UNL     1      -7.527   3.071   4.215  0.00  0.00    -0.010 A 
ATOM     35  C   UNL     1      -8.122   4.140   4.859  0.00  0.00    +0.007 A 
ATOM     36  C   UNL     1      -9.461   4.413   4.651  0.00  0.00    +0.000 A 
ATOM     37  C   UNL     1     -10.207   3.613   3.806  0.00  0.00    +0.000 A 
ATOM     38  C   UNL     1      -9.613   2.541   3.166  0.00  0.00    +0.000 A 
ATOM     39  C   UNL     1      -8.273   2.270   3.371  0.00  0.00    +0.007 A 
ENDBRANCH  33  34
ENDBRANCH  32  33
ENDBRANCH  11  32
TORSDOF 10
