REMARK  Name = ZINC08654618
REMARK  7 active torsions:
REMARK  status: ('A' for Active; 'I' for Inactive)
REMARK    1  A    between atoms: C_6  and  O_7
REMARK    2  A    between atoms: O_7  and  C_8
REMARK    3  A    between atoms: C_8  and  C_9
REMARK    4  A    between atoms: C_12  and  C_14
REMARK    5  A    between atoms: C_16  and  C_28
REMARK    6  A    between atoms: C_17  and  N_19
REMARK    7  A    between atoms: C_22  and  C_25
REMARK                            x       y       z     vdW  Elec       q    Type
REMARK                         _______ _______ _______ _____ _____    ______ ____
ROOT
ATOM      1  C   UNL     1      -5.395  -4.055   1.649  0.00  0.00    +0.266 A 
ATOM      2  N   UNL     1      -6.587  -4.453   1.277  0.00  0.00    -0.194 NA
ATOM      3  C   UNL     1      -7.319  -4.729   2.389  0.00  0.00    +0.201 A 
ATOM      4  C   UNL     1      -6.503  -4.476   3.482  0.00  0.00    +0.228 A 
ATOM      5  O   UNL     1      -5.317  -4.066   2.994  0.00  0.00    -0.417 OA
ENDROOT
BRANCH   4   6
ATOM      6  N   UNL     1      -6.840  -4.621   4.810  0.00  0.00    -0.299 N 
ATOM      7  C   UNL     1      -6.613  -5.896   5.505  0.00  0.00    +0.109 C 
ATOM      8  C   UNL     1      -5.793  -5.629   6.771  0.00  0.00    +0.032 C 
ATOM      9  C   UNL     1      -6.501  -4.568   7.618  0.00  0.00    +0.078 C 
ATOM     10  C   UNL     1      -6.603  -3.264   6.824  0.00  0.00    +0.032 C 
ATOM     11  C   UNL     1      -7.426  -3.502   5.560  0.00  0.00    +0.109 C 
BRANCH   9  12
ATOM     12  C   UNL     1      -5.714  -4.327   8.880  0.00  0.00    +0.214 C 
ATOM     13  O   UNL     1      -4.689  -4.943   9.083  0.00  0.00    -0.276 OA
ATOM     14  N   UNL     1      -6.150  -3.428   9.784  0.00  0.00    -0.329 N 
ATOM     15  H   UNL     1      -6.970  -2.936   9.623  0.00  0.00    +0.145 HD
ATOM     16  H   UNL     1      -5.644  -3.273  10.597  0.00  0.00    +0.145 HD
ENDBRANCH   9  12
ENDBRANCH   4   6
BRANCH   1  20
ATOM     17  C   UNL     1      -2.353  -2.983   0.009  0.00  0.00    +0.143 A 
ATOM     18  C   UNL     1      -3.115  -3.210  -1.081  0.00  0.00    +0.049 A 
ATOM     19  C   UNL     1      -4.372  -3.647  -0.623  0.00  0.00    +0.055 A 
ATOM     20  C   UNL     1      -4.309  -3.663   0.739  0.00  0.00    +0.190 A 
ATOM     21  O   UNL     1      -3.075  -3.263   1.106  0.00  0.00    -0.451 OA
BRANCH  17  22
ATOM     22  C   UNL     1      -0.926  -2.501  -0.003  0.00  0.00    +0.303 C 
BRANCH  22  23
ATOM     23  O   UNL     1      -0.905  -1.072   0.035  0.00  0.00    -0.484 OA
BRANCH  23  29
ATOM     24  C   UNL     1       0.408   0.911   0.066  0.00  0.00    +0.047 A 
ATOM     25  C   UNL     1       1.649   1.519   0.061  0.00  0.00    +0.023 A 
ATOM     26  C   UNL     1       2.797   0.749   0.020  0.00  0.00    +0.041 A 
ATOM     27  C   UNL     1       2.706  -0.631  -0.016  0.00  0.00    +0.023 A 
ATOM     28  C   UNL     1       1.467  -1.243  -0.011  0.00  0.00    +0.047 A 
ATOM     29  C   UNL     1       0.315  -0.472   0.030  0.00  0.00    +0.121 A 
ATOM     30 CL   UNL     1       4.355   1.515   0.013  0.00  0.00    -0.084 Cl
ENDBRANCH  23  29
ENDBRANCH  22  23
ENDBRANCH  17  22
ENDBRANCH   1  20
BRANCH   3  31
ATOM     31  C   UNL     1      -8.673  -5.192   2.426  0.00  0.00    +0.124 C 
ATOM     32  N   UNL     1      -9.748  -5.559   2.455  0.00  0.00    -0.189 NA
ENDBRANCH   3  31
TORSDOF 7
