REMARK  Name = ZINC04285168
REMARK  5 active torsions:
REMARK  status: ('A' for Active; 'I' for Inactive)
REMARK    1  A    between atoms: C_1  and  C_2
REMARK    2  A    between atoms: C_7  and  N_12
REMARK    3  A    between atoms: C_9  and  C_11
REMARK    4  A    between atoms: C_13  and  C_15
REMARK    5  A    between atoms: C_15  and  N_16
REMARK                            x       y       z     vdW  Elec       q    Type
REMARK                         _______ _______ _______ _____ _____    ______ ____
ROOT
ATOM      1  N   UNL     1      -5.368   2.128  -2.646  0.00  0.00    -0.215 N 
ATOM      2  C   UNL     1      -6.028   3.184  -2.129  0.00  0.00    +0.251 C 
ATOM      3  O   UNL     1      -6.026   3.558  -0.976  0.00  0.00    -0.272 OA
ATOM      4  C   UNL     1      -6.770   3.807  -3.292  0.00  0.00    +0.138 C 
ATOM      5  C   UNL     1      -6.288   5.232  -3.529  0.00  0.00    +0.040 C 
ATOM      6  C   UNL     1      -6.823   6.119  -2.397  0.00  0.00    +0.008 C 
ATOM      7  C   UNL     1      -8.338   6.242  -2.553  0.00  0.00    +0.035 C 
ATOM      8  C   UNL     1      -8.972   4.883  -2.689  0.00  0.00    -0.042 A 
ATOM      9  C   UNL     1      -8.250   3.761  -3.039  0.00  0.00    -0.012 A 
ATOM     10  C   UNL     1      -8.898   2.540  -3.167  0.00  0.00    +0.006 A 
ATOM     11  C   UNL     1     -10.255   2.439  -2.941  0.00  0.00    +0.000 A 
ATOM     12  C   UNL     1     -10.978   3.562  -2.585  0.00  0.00    +0.000 A 
ATOM     13  C   UNL     1     -10.337   4.777  -2.460  0.00  0.00    +0.004 A 
ATOM     14  N   UNL     1      -6.420   2.951  -4.434  0.00  0.00    -0.281 N 
ATOM     15  C   UNL     1      -5.597   1.997  -3.959  0.00  0.00    +0.310 C 
ATOM     16  O   UNL     1      -5.116   1.117  -4.644  0.00  0.00    -0.252 OA
ATOM     17  H   UNL     1      -6.724   3.053  -5.349  0.00  0.00    +0.152 HD
ENDROOT
BRANCH   1  18
ATOM     18  C   UNL     1      -4.510   1.231  -1.867  0.00  0.00    +0.213 C 
BRANCH  18  20
ATOM     19  N   UNL     1      -2.127   1.086  -1.221  0.00  0.00    -0.311 N 
ATOM     20  C   UNL     1      -3.097   1.753  -1.878  0.00  0.00    +0.231 C 
ATOM     21  O   UNL     1      -2.831   2.773  -2.477  0.00  0.00    -0.274 OA
ATOM     22  H   UNL     1      -2.339   0.270  -0.742  0.00  0.00    +0.149 HD
BRANCH  19  28
ATOM     23  C   UNL     1       1.402   3.145   0.006  0.00  0.00    +0.008 C 
ATOM     24  C   UNL     1       1.423   1.615  -0.003  0.00  0.00    -0.009 C 
ATOM     25  C   UNL     1       2.139   1.122  -1.262  0.00  0.00    +0.003 C 
ATOM     26  C   UNL     1       1.399   1.629  -2.501  0.00  0.00    +0.002 C 
ATOM     27  C   UNL     1      -0.037   1.099  -2.490  0.00  0.00    +0.022 C 
ATOM     28  C   UNL     1      -0.753   1.593  -1.232  0.00  0.00    +0.076 C 
ATOM     29  C   UNL     1      -0.013   1.086   0.008  0.00  0.00    +0.009 C 
ATOM     30  C   UNL     1      -0.729   1.579   1.267  0.00  0.00    +0.009 C 
ENDBRANCH  19  28
ENDBRANCH  18  20
ENDBRANCH   1  18
TORSDOF 3
