REMARK  Name = ZINC65308132
REMARK  7 active torsions:
REMARK  status: ('A' for Active; 'I' for Inactive)
REMARK    1  A    between atoms: C_1  and  C_2
REMARK    2  A    between atoms: C_2  and  C_3
REMARK    3  A    between atoms: C_3  and  C_5
REMARK    4  A    between atoms: C_3  and  N_6
REMARK    5  A    between atoms: C_7  and  C_9
REMARK    6  A    between atoms: C_9  and  N_10
REMARK    7  A    between atoms: N_20  and  C_21
REMARK                            x       y       z     vdW  Elec       q    Type
REMARK                         _______ _______ _______ _____ _____    ______ ____
ROOT
ATOM      1  N   UNL     1       5.278   0.737  -3.510  0.00  0.00    -0.202 N 
ATOM      2  C   UNL     1       5.021   1.731  -4.384  0.00  0.00    +0.353 A 
ATOM      3  O   UNL     1       4.455   2.780  -4.132  0.00  0.00    -0.244 OA
ATOM      4  N   UNL     1       5.502   1.357  -5.586  0.00  0.00    -0.235 N 
ATOM      5  C   UNL     1       5.507   1.988  -6.808  0.00  0.00    +0.102 A 
ATOM      6  C   UNL     1       6.068   1.371  -7.866  0.00  0.00    +0.062 A 
ATOM      7  C   UNL     1       6.643   0.088  -7.703  0.00  0.00    +0.128 A 
ATOM      8  N   UNL     1       6.629  -0.501  -6.524  0.00  0.00    -0.195 NA
ATOM      9  C   UNL     1       6.071   0.104  -5.457  0.00  0.00    +0.258 A 
ATOM     10  N   UNL     1       5.947  -0.278  -4.206  0.00  0.00    -0.127 NA
ATOM     11  N   UNL     1       7.220  -0.550  -8.783  0.00  0.00    -0.299 N 
ATOM     12  H   UNL     1       7.305  -0.086  -9.631  0.00  0.00    +0.154 HD
ENDROOT
BRANCH  11  13
ATOM     13  C   UNL     1       7.683  -1.863  -8.654  0.00  0.00    +0.033 A 
ATOM     14  C   UNL     1       6.976  -2.778  -7.884  0.00  0.00    +0.026 A 
ATOM     15  C   UNL     1       7.435  -4.074  -7.758  0.00  0.00    +0.040 A 
ATOM     16  C   UNL     1       8.599  -4.463  -8.400  0.00  0.00    +0.124 A 
ATOM     17  C   UNL     1       9.306  -3.553  -9.168  0.00  0.00    +0.040 A 
ATOM     18  C   UNL     1       8.847  -2.257  -9.302  0.00  0.00    +0.026 A 
ATOM     19  F   UNL     1       9.046  -5.732  -8.275  0.00  0.00    -0.205 F 
ENDBRANCH  11  13
BRANCH   1  20
ATOM     20  C   UNL     1       4.927   0.724  -2.087  0.00  0.00    +0.244 C 
BRANCH  20  22
ATOM     21  N   UNL     1       3.027  -0.003  -0.680  0.00  0.00    -0.311 N 
ATOM     22  C   UNL     1       3.561   0.114  -1.913  0.00  0.00    +0.235 C 
ATOM     23  O   UNL     1       2.941  -0.272  -2.881  0.00  0.00    -0.274 OA
ATOM     24  H   UNL     1       3.523   0.306   0.094  0.00  0.00    +0.149 HD
BRANCH  21  25
ATOM     25  C   UNL     1       1.698  -0.597  -0.511  0.00  0.00    +0.070 C 
ATOM     26  C   UNL     1       1.825  -2.120  -0.441  0.00  0.00    +0.028 C 
BRANCH  25  28
ATOM     27  C   UNL     1       0.828   1.429   0.664  0.00  0.00    +0.005 C 
ATOM     28  C   UNL     1       1.069  -0.077   0.784  0.00  0.00    +0.018 C 
ENDBRANCH  25  28
ENDBRANCH  21  25
ENDBRANCH  20  22
ENDBRANCH   1  20
TORSDOF 5
