REMARK  Name = ZINC66615728
REMARK  7 active torsions:
REMARK  status: ('A' for Active; 'I' for Inactive)
REMARK    1  A    between atoms: C_1  and  C_2
REMARK    2  A    between atoms: C_2  and  C_4
REMARK    3  A    between atoms: C_2  and  N_21
REMARK    4  A    between atoms: C_4  and  C_5
REMARK    5  A    between atoms: N_7  and  C_8
REMARK    6  A    between atoms: C_8  and  C_9
REMARK    7  A    between atoms: C_22  and  C_24
REMARK                            x       y       z     vdW  Elec       q    Type
REMARK                         _______ _______ _______ _____ _____    ______ ____
ROOT
ATOM      1  C   UNL     1      -1.415  -2.035  -0.155  0.00  0.00    +0.215 C 
ATOM      2  O   UNL     1      -0.358  -2.626  -0.229  0.00  0.00    -0.276 OA
ATOM      3  N   UNL     1      -2.573  -2.723  -0.164  0.00  0.00    -0.311 N 
ATOM      4  H   UNL     1      -3.418  -2.251  -0.105  0.00  0.00    +0.149 HD
ENDROOT
BRANCH   1   5
ATOM      5  C   UNL     1      -1.432  -0.532  -0.054  0.00  0.00    +0.117 C 
BRANCH   5   7
ATOM      6  C   UNL     1      -0.015   1.526  -0.088  0.00  0.00    +0.028 C 
ATOM      7  C   UNL     1       0.004  -0.003  -0.065  0.00  0.00    +0.079 C 
BRANCH   7   8
ATOM      8  N   UNL     1       0.704  -0.465   1.137  0.00  0.00    -0.312 N 
ATOM      9  C   UNL     1       2.047  -0.576   1.134  0.00  0.00    +0.216 C 
ATOM     10  O   UNL     1       2.676  -0.295   0.137  0.00  0.00    -0.276 OA
ATOM     11  H   UNL     1       0.200  -0.690   1.935  0.00  0.00    +0.149 HD
BRANCH   9  12
ATOM     12  C   UNL     1       2.766  -1.051   2.370  0.00  0.00    +0.075 C 
ATOM     13  C   UNL     1       2.477  -0.093   3.528  0.00  0.00    +0.013 C 
ATOM     14  C   UNL     1       3.207  -0.574   4.783  0.00  0.00    +0.001 C 
ATOM     15  C   UNL     1       4.713  -0.611   4.515  0.00  0.00    +0.000 C 
ATOM     16  C   UNL     1       5.002  -1.569   3.357  0.00  0.00    +0.001 C 
ATOM     17  C   UNL     1       4.272  -1.087   2.102  0.00  0.00    +0.013 C 
ENDBRANCH   9  12
ENDBRANCH   7   8
ENDBRANCH   5   7
ENDBRANCH   1   5
BRANCH   3  18
ATOM     18  C   UNL     1      -2.557  -4.185  -0.262  0.00  0.00    +0.141 C 
BRANCH  18  19
ATOM     19  C   UNL     1      -3.971  -4.705  -0.251  0.00  0.00    -0.014 A 
ATOM     20  C   UNL     1      -4.593  -5.022   0.950  0.00  0.00    +0.010 A 
ATOM     21  C   UNL     1      -5.891  -5.496   0.916  0.00  0.00    +0.042 A 
ATOM     22  C   UNL     1      -6.527  -5.639  -0.314  0.00  0.00    +0.099 A 
ATOM     23  N   UNL     1      -5.900  -5.327  -1.437  0.00  0.00    -0.349 N 
ATOM     24  C   UNL     1      -4.663  -4.866  -1.434  0.00  0.00    +0.089 A 
ATOM     25  N   UNL     1      -7.832  -6.116  -0.363  0.00  0.00    -0.317 N 
ATOM     26  C   UNL     1      -8.569  -6.152  -1.633  0.00  0.00    +0.106 C 
ATOM     27  C   UNL     1      -9.098  -7.572  -1.856  0.00  0.00    +0.019 C 
ATOM     28  C   UNL     1      -9.922  -8.002  -0.640  0.00  0.00    +0.003 C 
ATOM     29  C   UNL     1      -9.032  -8.008   0.605  0.00  0.00    +0.019 C 
ATOM     30  C   UNL     1      -8.499  -6.598   0.854  0.00  0.00    +0.106 C 
ATOM     31  H   UNL     1      -6.363  -5.435  -2.283  0.00  0.00    +0.167 HD
ENDBRANCH  18  19
ENDBRANCH   3  18
TORSDOF 6
