REMARK  Name = ZINC34830155
REMARK  7 active torsions:
REMARK  status: ('A' for Active; 'I' for Inactive)
REMARK    1  A    between atoms: C_1  and  C_2
REMARK    2  A    between atoms: C_5  and  C_8
REMARK    3  A    between atoms: N_17  and  C_18
REMARK    4  A    between atoms: C_18  and  C_19
REMARK    5  A    between atoms: C_19  and  C_20
REMARK    6  A    between atoms: C_26  and  C_29
REMARK    7  A    between atoms: C_30  and  C_32
REMARK                            x       y       z     vdW  Elec       q    Type
REMARK                         _______ _______ _______ _____ _____    ______ ____
ROOT
ATOM      1  C   UNL     1      -2.822  -1.775   2.614  0.00  0.00    -0.068 C 
ENDROOT
BRANCH   1  10
ATOM      2  C   UNL     1      -0.670  -0.741   2.446  0.00  0.00    -0.006 C 
ATOM      3  C   UNL     1       0.744  -0.728   3.019  0.00  0.00    -0.047 A 
ATOM      4  C   UNL     1       1.663   0.296   2.804  0.00  0.00    +0.010 A 
ATOM      5  C   UNL     1       2.897   0.225   3.356  0.00  0.00    +0.045 A 
ATOM      6  S   UNL     1       2.822  -1.333   4.228  0.00  0.00    -0.101 S 
ATOM      7  C   UNL     1       1.163  -1.769   3.793  0.00  0.00    -0.010 A 
ATOM      8  C   UNL     1       0.366  -2.979   4.159  0.00  0.00    +0.024 C 
ATOM      9  C   UNL     1      -0.869  -3.015   3.243  0.00  0.00    -0.072 C 
ATOM     10  N   UNL     1      -1.488  -1.682   3.220  0.00  0.00    +0.388 N 
ATOM     11  H   UNL     1      -1.577  -1.343   4.167  0.00  0.00    -0.080 HD
BRANCH   2  16
ATOM     12  C   UNL     1      -2.955   4.555   2.797  0.00  0.00    +0.044 C 
ATOM     13  C   UNL     1      -2.359   3.174   2.705  0.00  0.00    -0.050 A 
ATOM     14  C   UNL     1      -1.835   2.725   1.508  0.00  0.00    +0.003 A 
ATOM     15  C   UNL     1      -1.289   1.458   1.423  0.00  0.00    +0.002 A 
ATOM     16  C   UNL     1      -1.265   0.640   2.538  0.00  0.00    -0.057 A 
ATOM     17  C   UNL     1      -1.788   1.089   3.736  0.00  0.00    +0.002 A 
ATOM     18  C   UNL     1      -2.331   2.357   3.821  0.00  0.00    +0.003 A 
ENDBRANCH   2  16
ENDBRANCH   1  10
BRANCH   1  19
ATOM     19  C   UNL     1      -3.718  -2.657   3.487  0.00  0.00    +0.077 C 
BRANCH  19  20
ATOM     20  C   UNL     1      -5.088  -2.752   2.865  0.00  0.00    +0.214 C 
ATOM     21  O   UNL     1      -5.324  -2.172   1.826  0.00  0.00    -0.276 OA
ATOM     22  N   UNL     1      -6.050  -3.482   3.463  0.00  0.00    -0.298 N 
ATOM     23  C   UNL     1      -5.780  -4.185   4.725  0.00  0.00    +0.127 C 
ATOM     24  C   UNL     1      -6.118  -5.670   4.541  0.00  0.00    +0.127 C 
ATOM     25  N   UNL     1      -7.456  -5.777   3.943  0.00  0.00    -0.295 N 
ATOM     26  C   UNL     1      -7.726  -5.074   2.681  0.00  0.00    +0.090 C 
ATOM     27  C   UNL     1      -7.390  -3.584   2.868  0.00  0.00    +0.130 C 
ATOM     28  C   UNL     1      -6.860  -5.667   1.567  0.00  0.00    +0.029 C 
ATOM     29  C   UNL     1      -8.418  -6.506   4.541  0.00  0.00    +0.219 C 
ATOM     30  O   UNL     1      -9.540  -6.524   4.080  0.00  0.00    -0.275 OA
BRANCH  29  31
ATOM     31  C   UNL     1      -8.100  -7.301   5.782  0.00  0.00    +0.075 C 
ATOM     32  C   UNL     1      -7.456  -8.630   5.385  0.00  0.00    +0.013 C 
ATOM     33  C   UNL     1      -7.133  -9.436   6.645  0.00  0.00    +0.001 C 
ATOM     34  C   UNL     1      -8.423  -9.707   7.422  0.00  0.00    +0.000 C 
ATOM     35  C   UNL     1      -9.067  -8.377   7.818  0.00  0.00    +0.001 C 
ATOM     36  C   UNL     1      -9.390  -7.571   6.559  0.00  0.00    +0.013 C 
ENDBRANCH  29  31
ENDBRANCH  19  20
ENDBRANCH   1  19
TORSDOF 5
