REMARK  Name = ZINC23990136
REMARK  8 active torsions:
REMARK  status: ('A' for Active; 'I' for Inactive)
REMARK    1  A    between atoms: C_1  and  C_2
REMARK    2  A    between atoms: C_2  and  N_3
REMARK    3  A    between atoms: N_3  and  C_4
REMARK    4  A    between atoms: N_3  and  S_10
REMARK    5  A    between atoms: S_10  and  C_13
REMARK    6  A    between atoms: N_22  and  C_25
REMARK    7  A    between atoms: C_25  and  C_27
REMARK    8  A    between atoms: C_25  and  C_33
REMARK                            x       y       z     vdW  Elec       q    Type
REMARK                         _______ _______ _______ _____ _____    ______ ____
ROOT
ATOM      1  C   UNL     1       8.029   6.810  -3.433  0.00  0.00    +0.127 A 
ATOM      2  C   UNL     1       8.515   5.912  -2.491  0.00  0.00    +0.034 A 
ATOM      3  C   UNL     1       7.615   5.294  -1.642  0.00  0.00    +0.045 A 
ATOM      4  C   UNL     1       6.259   5.582  -1.768  0.00  0.00    +0.121 A 
ATOM      5  N   UNL     1       5.835   6.444  -2.679  0.00  0.00    -0.238 NA
ATOM      6  C   UNL     1       6.672   7.052  -3.498  0.00  0.00    +0.141 A 
ATOM      7  N   UNL     1       5.343   4.963  -0.925  0.00  0.00    -0.319 N 
ATOM      8  C   UNL     1       3.974   5.409  -1.219  0.00  0.00    +0.088 C 
ATOM      9  C   UNL     1       3.006   4.768  -0.221  0.00  0.00    -0.058 C 
ATOM     10  N   UNL     1       3.112   3.305  -0.311  0.00  0.00    +0.392 N 
ATOM     11  C   UNL     1       4.482   2.859  -0.017  0.00  0.00    -0.058 C 
ATOM     12  C   UNL     1       5.449   3.501  -1.015  0.00  0.00    +0.088 C 
ATOM     13  H   UNL     1       2.873   3.010  -1.343  0.00  0.00    -0.080 HD
ENDROOT
BRANCH   1  14
ATOM     14  S   UNL     1       9.133   7.629  -4.534  0.00  0.00    +0.076 S 
ATOM     15  O   UNL     1      10.294   6.814  -4.627  0.00  0.00    -0.150 OA
ATOM     16  O   UNL     1       8.370   8.000  -5.674  0.00  0.00    -0.150 OA
BRANCH  14  17
ATOM     17  N   UNL     1       9.602   9.038  -3.800  0.00  0.00    -0.203 N 
BRANCH  17  18
ATOM     18  C   UNL     1       8.930  10.229  -4.082  0.00  0.00    +0.051 A 
ATOM     19  C   UNL     1       8.326  10.948  -3.058  0.00  0.00    +0.025 A 
ATOM     20  C   UNL     1       7.667  12.128  -3.340  0.00  0.00    +0.002 A 
ATOM     21  C   UNL     1       7.598  12.589  -4.642  0.00  0.00    +0.000 A 
ATOM     22  C   UNL     1       8.194  11.874  -5.664  0.00  0.00    +0.002 A 
ATOM     23  C   UNL     1       8.859  10.696  -5.389  0.00  0.00    +0.025 A 
ENDBRANCH  17  18
BRANCH  17  25
ATOM     24  C   UNL     1      12.009   9.415  -3.586  0.00  0.00    +0.026 C 
ATOM     25  C   UNL     1      10.720   9.034  -2.854  0.00  0.00    +0.128 C 
ENDBRANCH  17  25
ENDBRANCH  14  17
ENDBRANCH   1  14
BRANCH  10  26
ATOM     26  C   UNL     1       2.144   2.651   0.580  0.00  0.00    +0.050 C 
BRANCH  26  27
ATOM     27  C   UNL     1       2.220   1.157   0.395  0.00  0.00    -0.052 A 
ATOM     28  C   UNL     1       3.278   0.448   0.931  0.00  0.00    +0.002 A 
ATOM     29  C   UNL     1       3.348  -0.923   0.761  0.00  0.00    +0.000 A 
ATOM     30  C   UNL     1       2.359  -1.583   0.056  0.00  0.00    +0.000 A 
ATOM     31  C   UNL     1       1.301  -0.873  -0.480  0.00  0.00    +0.000 A 
ATOM     32  C   UNL     1       1.231   0.497  -0.310  0.00  0.00    +0.002 A 
ENDBRANCH  26  27
BRANCH  26  33
ATOM     33  C   UNL     1       2.464   2.997   2.011  0.00  0.00    +0.201 C 
ATOM     34  O   UNL     1       3.407   3.717   2.264  0.00  0.00    -0.277 OA
ATOM     35  N   UNL     1       1.704   2.506   3.009  0.00  0.00    -0.330 N 
ATOM     36  H   UNL     1       1.938   2.759   4.054  0.00  0.00    +0.145 HD
ATOM     37  H   UNL     1       0.849   1.853   2.779  0.00  0.00    +0.145 HD
ENDBRANCH  26  33
ENDBRANCH  10  26
TORSDOF 7
