REMARK  Name = ZINC23653805
REMARK  3 active torsions:
REMARK  status: ('A' for Active; 'I' for Inactive)
REMARK    1  A    between atoms: C_1  and  N_2
REMARK    2  A    between atoms: N_7  and  C_8
REMARK    3  A    between atoms: C_8  and  C_10
REMARK                            x       y       z     vdW  Elec       q    Type
REMARK                         _______ _______ _______ _____ _____    ______ ____
ROOT
ATOM      1  C   UNL     1       0.050  -1.078   3.449  0.00  0.00    +0.271 C 
ATOM      2  O   UNL     1       0.064  -2.281   3.251  0.00  0.00    -0.268 OA
ENDROOT
BRANCH   1   9
ATOM      3  C   UNL     1      -0.018   1.461   0.010  0.00  0.00    +0.150 C 
ATOM      4  N   UNL     1       0.002  -0.004   0.002  0.00  0.00    -0.331 N 
ATOM      5  C   UNL     1       0.006  -0.690  -1.172  0.00  0.00    +0.094 A 
ATOM      6  C   UNL     1       0.025  -2.026  -1.103  0.00  0.00    +0.066 A 
ATOM      7  S   UNL     1       0.037  -2.305   0.658  0.00  0.00    -0.061 S 
ATOM      8  C   UNL     1       0.023  -0.703   1.170  0.00  0.00    +0.165 A 
ATOM      9  N   UNL     1       0.028  -0.232   2.416  0.00  0.00    -0.152 NA
ENDBRANCH   1   9
BRANCH   1  10
ATOM     10  C   UNL     1       0.056  -0.554   4.834  0.00  0.00    +0.058 A 
ATOM     11  C   UNL     1       0.084  -1.430   5.925  0.00  0.00    +0.031 A 
ATOM     12  C   UNL     1       0.089  -0.890   7.200  0.00  0.00    +0.037 A 
ATOM     13  C   UNL     1       0.067   0.485   7.353  0.00  0.00    +0.126 A 
ATOM     14  N   UNL     1       0.041   1.286   6.305  0.00  0.00    -0.261 NA
ATOM     15  C   UNL     1       0.040   0.819   5.073  0.00  0.00    +0.123 A 
ATOM     16 BR   UNL     1       0.126  -2.020   8.716  0.00  0.00    -0.049 Br
ENDBRANCH   1  10
TORSDOF 2
