REMARK  Name = ZINC15162216
REMARK  11 active torsions:
REMARK  status: ('A' for Active; 'I' for Inactive)
REMARK    1  A    between atoms: C_1  and  C_2
REMARK    2  A    between atoms: C_2  and  C_4
REMARK    3  A    between atoms: C_2  and  N_10
REMARK    4  A    between atoms: N_15  and  C_16
REMARK    5  A    between atoms: C_16  and  C_18
REMARK    6  A    between atoms: C_16  and  C_26
REMARK    7  A    between atoms: C_18  and  O_19
REMARK    8  A    between atoms: O_19  and  C_20
REMARK    9  A    between atoms: C_26  and  C_27
REMARK   10  A    between atoms: C_26  and  C_28
REMARK   11  A    between atoms: C_26  and  C_29
REMARK                            x       y       z     vdW  Elec       q    Type
REMARK                         _______ _______ _______ _____ _____    ______ ____
ROOT
ATOM      1  N   UNL     1       2.433  -0.806  -0.647  0.00  0.00    -0.293 N 
ATOM      2  C   UNL     1       3.568  -0.090  -0.522  0.00  0.00    +0.139 C 
ATOM      3  S   UNL     1       4.321   0.731  -1.823  0.00  0.00    -0.018 S 
ATOM      4  N   UNL     1       4.043  -0.090   0.731  0.00  0.00    -0.285 N 
ATOM      5  C   UNL     1       3.232  -0.833   1.566  0.00  0.00    +0.098 C 
ATOM      6  N   UNL     1       3.388  -1.046   2.831  0.00  0.00    -0.368 N 
ATOM      7  C   UNL     1       2.124  -1.334   0.680  0.00  0.00    +0.090 C 
ATOM      8  C   UNL     1       2.065  -2.871   0.677  0.00  0.00    +0.033 C 
ATOM      9  C   UNL     1       0.607  -3.154   0.228  0.00  0.00    +0.003 C 
ATOM     10  C   UNL     1      -0.223  -2.038   0.897  0.00  0.00    +0.003 C 
ATOM     11  C   UNL     1       0.749  -0.873   1.172  0.00  0.00    +0.033 C 
ATOM     12  H   UNL     1       4.849   0.370   1.014  0.00  0.00    +0.155 HD
ATOM     13  H   UNL     1       2.745  -1.589   3.313  0.00  0.00    +0.161 HD
ENDROOT
BRANCH   1  15
ATOM     14  C   UNL     1       1.351   0.344  -2.514  0.00  0.00    +0.033 C 
ATOM     15  C   UNL     1       1.658  -1.011  -1.873  0.00  0.00    +0.103 C 
BRANCH  15  16
ATOM     16  C   UNL     1       2.454  -1.854  -2.836  0.00  0.00    -0.027 A 
ATOM     17  C   UNL     1       3.773  -2.161  -2.558  0.00  0.00    +0.005 A 
ATOM     18  C   UNL     1       4.503  -2.934  -3.442  0.00  0.00    +0.000 A 
ATOM     19  C   UNL     1       3.914  -3.401  -4.602  0.00  0.00    +0.000 A 
ATOM     20  C   UNL     1       2.595  -3.095  -4.879  0.00  0.00    +0.000 A 
ATOM     21  C   UNL     1       1.863  -2.325  -3.993  0.00  0.00    +0.005 A 
ENDBRANCH  15  16
ENDBRANCH   1  15
BRANCH   6  22
ATOM     22  C   UNL     1       4.534  -0.467   3.535  0.00  0.00    +0.123 C 
BRANCH  22  23
ATOM     23  C   UNL     1       5.746  -1.388   3.380  0.00  0.00    -0.014 C 
ATOM     24  C   UNL     1       6.173  -1.427   1.912  0.00  0.00    +0.013 C 
ATOM     25  C   UNL     1       6.901  -0.859   4.233  0.00  0.00    +0.013 C 
ATOM     26  C   UNL     1       5.376  -2.800   3.841  0.00  0.00    +0.013 C 
ENDBRANCH  22  23
BRANCH  22  27
ATOM     27  C   UNL     1       4.196  -0.315   5.020  0.00  0.00    +0.254 C 
BRANCH  27  28
ATOM     28  O   UNL     1       3.969  -1.604   5.592  0.00  0.00    -0.490 OA
BRANCH  28  29
ATOM     29  C   UNL     1       3.656  -1.647   6.913  0.00  0.00    +0.121 A 
ATOM     30  C   UNL     1       3.562  -0.470   7.643  0.00  0.00    +0.045 A 
ATOM     31  C   UNL     1       3.243  -0.516   8.987  0.00  0.00    +0.004 A 
ATOM     32  C   UNL     1       3.017  -1.733   9.604  0.00  0.00    +0.000 A 
ATOM     33  C   UNL     1       3.109  -2.906   8.878  0.00  0.00    +0.004 A 
ATOM     34  C   UNL     1       3.422  -2.865   7.534  0.00  0.00    +0.045 A 
ENDBRANCH  28  29
ENDBRANCH  27  28
ENDBRANCH  22  27
ENDBRANCH   6  22
TORSDOF 7
