REMARK  Name = ZINC65182824
REMARK  9 active torsions:
REMARK  status: ('A' for Active; 'I' for Inactive)
REMARK    1  A    between atoms: C_1  and  C_2
REMARK    2  A    between atoms: C_7  and  C_13
REMARK    3  A    between atoms: C_9  and  C_12
REMARK    4  A    between atoms: C_16  and  C_19
REMARK    5  A    between atoms: C_19  and  C_20
REMARK    6  A    between atoms: C_20  and  N_21
REMARK    7  A    between atoms: N_21  and  C_22
REMARK    8  A    between atoms: C_23  and  C_25
REMARK    9  A    between atoms: C_25  and  C_28
REMARK                            x       y       z     vdW  Elec       q    Type
REMARK                         _______ _______ _______ _____ _____    ______ ____
ROOT
ATOM      1  C   UNL     1      -2.761  -6.815   3.205  0.00  0.00    +0.318 C 
ATOM      2  N   UNL     1      -2.722  -7.979   2.306  0.00  0.00    -0.291 N 
ATOM      3  C   UNL     1      -3.595  -7.717   1.277  0.00  0.00    +0.139 C 
ATOM      4  N   UNL     1      -4.157  -6.572   1.416  0.00  0.00    -0.072 NA
ATOM      5  O   UNL     1      -3.706  -5.923   2.593  0.00  0.00    -0.367 OA
ATOM      6  H   UNL     1      -2.183  -8.778   2.418  0.00  0.00    +0.151 HD
ENDROOT
BRANCH   1  13
ATOM      7  C   UNL     1      -0.461  -0.139   3.194  0.00  0.00    +0.044 C 
ATOM      8  C   UNL     1      -0.602  -1.601   2.857  0.00  0.00    -0.050 A 
ATOM      9  C   UNL     1      -0.365  -2.024   1.541  0.00  0.00    +0.005 A 
ATOM     10  C   UNL     1      -0.471  -3.315   1.160  0.00  0.00    +0.026 A 
ATOM     11  C   UNL     1      -0.836  -4.315   2.103  0.00  0.00    +0.043 A 
ATOM     12  N   UNL     1      -1.002  -5.610   1.982  0.00  0.00    -0.373 N 
ATOM     13  C   UNL     1      -1.382  -6.157   3.289  0.00  0.00    +0.168 C 
ATOM     14  C   UNL     1      -1.421  -4.979   4.237  0.00  0.00    -0.036 C 
ATOM     15  C   UNL     1      -1.091  -3.894   3.499  0.00  0.00    -0.001 A 
ATOM     16  C   UNL     1      -0.948  -2.472   3.832  0.00  0.00    +0.013 A 
ATOM     17  C   UNL     1      -1.761  -5.008   5.704  0.00  0.00    +0.042 C 
ATOM     18  H   UNL     1      -0.892  -6.121   1.165  0.00  0.00    +0.160 HD
ENDBRANCH   1  13
BRANCH   3  19
ATOM     19  C   UNL     1      -3.860  -8.657   0.129  0.00  0.00    +0.094 C 
BRANCH  19  20
ATOM     20  C   UNL     1      -4.886  -8.031  -0.817  0.00  0.00    +0.115 C 
BRANCH  20  21
ATOM     21  N   UNL     1      -5.143  -8.945  -1.933  0.00  0.00    -0.303 N 
ATOM     22  C   UNL     1      -6.210  -9.943  -1.831  0.00  0.00    +0.132 C 
ATOM     23  C   UNL     1      -4.397  -8.867  -3.053  0.00  0.00    +0.226 C 
ATOM     24  O   UNL     1      -3.456  -8.104  -3.103  0.00  0.00    -0.275 OA
BRANCH  23  25
ATOM     25  C   UNL     1      -4.733  -9.729  -4.243  0.00  0.00    +0.072 C 
ATOM     26  C   UNL     1      -4.924  -9.030  -5.590  0.00  0.00    +0.022 C 
ATOM     27  C   UNL     1      -6.134  -9.592  -4.841  0.00  0.00    +0.022 C 
BRANCH  25  28
ATOM     28  C   UNL     1      -4.103 -11.098  -4.252  0.00  0.00    -0.032 A 
ATOM     29  C   UNL     1      -4.901 -12.227  -4.266  0.00  0.00    +0.004 A 
ATOM     30  C   UNL     1      -4.323 -13.482  -4.275  0.00  0.00    +0.000 A 
ATOM     31  C   UNL     1      -2.947 -13.610  -4.270  0.00  0.00    +0.000 A 
ATOM     32  C   UNL     1      -2.148 -12.481  -4.257  0.00  0.00    +0.000 A 
ATOM     33  C   UNL     1      -2.726 -11.226  -4.253  0.00  0.00    +0.004 A 
ENDBRANCH  25  28
ENDBRANCH  23  25
ENDBRANCH  20  21
ENDBRANCH  19  20
ENDBRANCH   3  19
TORSDOF 6
