REMARK  Name = ZINC09075563
REMARK  9 active torsions:
REMARK  status: ('A' for Active; 'I' for Inactive)
REMARK    1  A    between atoms: C_8  and  S_10
REMARK    2  A    between atoms: S_10  and  C_11
REMARK    3  A    between atoms: C_11  and  C_12
REMARK    4  A    between atoms: N_14  and  N_15
REMARK    5  A    between atoms: C_16  and  C_17
REMARK    6  A    between atoms: C_20  and  O_23
REMARK    7  A    between atoms: O_23  and  C_24
REMARK    8  A    between atoms: C_24  and  C_26
REMARK    9  A    between atoms: C_26  and  C_27
REMARK                            x       y       z     vdW  Elec       q    Type
REMARK                         _______ _______ _______ _____ _____    ______ ____
ROOT
ATOM      1  C   UNL     1       1.831  10.022   1.508  0.00  0.00    -0.005 A 
ATOM      2  C   UNL     1       2.472   9.553   2.658  0.00  0.00    +0.013 A 
ATOM      3  C   UNL     1       2.587   8.197   2.877  0.00  0.00    +0.047 A 
ATOM      4  C   UNL     1       2.067   7.297   1.956  0.00  0.00    +0.132 A 
ATOM      5  C   UNL     1       1.434   7.758   0.809  0.00  0.00    +0.047 A 
ATOM      6  C   UNL     1       1.309   9.112   0.585  0.00  0.00    +0.013 A 
ENDROOT
BRANCH   1   8
ATOM      7  N   UNL     1       1.110  11.904   0.202  0.00  0.00    -0.188 NA
ATOM      8  C   UNL     1       1.706  11.471   1.270  0.00  0.00    +0.138 C 
BRANCH   7  11
ATOM      9  C   UNL     1       0.372  13.731  -1.135  0.00  0.00    +0.242 C 
ATOM     10  O   UNL     1      -0.082  12.943  -1.937  0.00  0.00    -0.273 OA
ATOM     11  N   UNL     1       0.991  13.282  -0.025  0.00  0.00    -0.206 N 
ATOM     12  H   UNL     1       1.354  13.912   0.617  0.00  0.00    +0.177 HD
BRANCH   9  13
ATOM     13  C   UNL     1       0.245  15.213  -1.378  0.00  0.00    +0.173 C 
BRANCH  13  14
ATOM     14  S   UNL     1      -0.628  15.495  -2.939  0.00  0.00    -0.089 S 
BRANCH  14  22
ATOM     15  C   UNL     1      -1.418  21.717  -4.409  0.00  0.00    +0.002 A 
ATOM     16  C   UNL     1      -0.774  22.163  -3.264  0.00  0.00    +0.001 A 
ATOM     17  C   UNL     1      -0.275  21.239  -2.364  0.00  0.00    +0.017 A 
ATOM     18  C   UNL     1      -0.423  19.898  -2.617  0.00  0.00    +0.040 A 
ATOM     19  C   UNL     1      -1.072  19.407  -3.772  0.00  0.00    +0.079 A 
ATOM     20  C   UNL     1      -1.570  20.380  -4.670  0.00  0.00    +0.029 A 
ATOM     21  N   UNL     1      -1.139  18.062  -3.879  0.00  0.00    -0.233 NA
ATOM     22  C   UNL     1      -0.635  17.256  -2.971  0.00  0.00    +0.136 A 
ATOM     23  S   UNL     1       0.033  18.403  -1.774  0.00  0.00    -0.061 S 
ENDBRANCH  14  22
ENDBRANCH  13  14
ENDBRANCH   9  13
ENDBRANCH   7  11
ENDBRANCH   1   8
BRANCH   4  24
ATOM     24  O   UNL     1       2.183   5.961   2.175  0.00  0.00    -0.426 OA
BRANCH  24  25
ATOM     25  C   UNL     1       1.346   5.416   3.072  0.00  0.00    +0.314 C 
ATOM     26  O   UNL     1       0.598   6.121   3.706  0.00  0.00    -0.250 OA
BRANCH  25  27
ATOM     27  C   UNL     1       1.340   3.924   3.287  0.00  0.00    +0.145 C 
BRANCH  27  28
ATOM     28  C   UNL     1       0.302   3.567   4.353  0.00  0.00    +0.152 C 
ATOM     29  C   UNL     1       0.173   2.059   4.517  0.00  0.00    +0.234 C 
ATOM     30  O   UNL     1      -0.199   1.339   3.615  0.00  0.00    -0.274 OA
ATOM     31  N   UNL     1       0.495   1.589   5.710  0.00  0.00    -0.246 N 
ATOM     32  C   UNL     1       0.905   2.370   6.727  0.00  0.00    +0.279 C 
ATOM     33  O   UNL     1       1.217   2.032   7.853  0.00  0.00    -0.263 OA
ATOM     34  S   UNL     1       0.889   4.017   6.035  0.00  0.00    -0.054 S 
ATOM     35  H   UNL     1       0.428   0.633   5.862  0.00  0.00    +0.158 HD
ENDBRANCH  27  28
ENDBRANCH  25  27
ENDBRANCH  24  25
ENDBRANCH   4  24
TORSDOF 9
