REMARK  Name = ZINC23081799
REMARK  6 active torsions:
REMARK  status: ('A' for Active; 'I' for Inactive)
REMARK    1  A    between atoms: C_5  and  N_7
REMARK    2  A    between atoms: C_8  and  C_10
REMARK    3  A    between atoms: C_10  and  O_11
REMARK    4  A    between atoms: O_11  and  C_12
REMARK    5  A    between atoms: C_12  and  C_14
REMARK    6  A    between atoms: C_18  and  N_23
REMARK                            x       y       z     vdW  Elec       q    Type
REMARK                         _______ _______ _______ _____ _____    ______ ____
ROOT
ATOM      1  C   UNL     1       1.354   3.550  -0.025  0.00  0.00    +0.346 C 
ATOM      2  O   UNL     1       0.394   4.296  -0.018  0.00  0.00    -0.244 OA
ENDROOT
BRANCH   1   3
ATOM      3  C   UNL     1       1.154   2.095  -0.036  0.00  0.00    +0.097 A 
ATOM      4  C   UNL     1      -0.015   1.401  -0.039  0.00  0.00    +0.031 A 
ATOM      5  C   UNL     1       0.004  -0.005  -0.050  0.00  0.00    -0.008 A 
ATOM      6  C   UNL     1      -1.098  -0.899  -0.054  0.00  0.00    +0.041 A 
ATOM      7  C   UNL     1      -0.902  -2.243  -0.065  0.00  0.00    +0.127 A 
ATOM      8  C   UNL     1       0.374  -2.794  -0.073  0.00  0.00    +0.034 A 
ATOM      9  C   UNL     1       1.474  -1.961  -0.069  0.00  0.00    +0.018 A 
ATOM     10  C   UNL     1       1.292  -0.594  -0.058  0.00  0.00    +0.020 A 
ATOM     11  S   UNL     1       2.385   0.804  -0.049  0.00  0.00    -0.082 S 
BRANCH   7  12
ATOM     12  N   UNL     1      -2.077  -3.143  -0.069  0.00  0.00    +0.056 N 
ATOM     13  O   UNL     1      -1.919  -4.351  -0.079  0.00  0.00    -0.126 OA
ATOM     14  O   UNL     1      -3.202  -2.676  -0.063  0.00  0.00    -0.126 OA
ENDBRANCH   7  12
ENDBRANCH   1   3
BRANCH   1  15
ATOM     15  O   UNL     1       2.603   4.059  -0.024  0.00  0.00    -0.451 OA
BRANCH  15  16
ATOM     16  C   UNL     1       2.725   5.506  -0.013  0.00  0.00    +0.328 C 
BRANCH  16  18
ATOM     17  N   UNL     1       4.540   7.187  -0.004  0.00  0.00    -0.282 N 
ATOM     18  C   UNL     1       4.183   5.887  -0.013  0.00  0.00    +0.255 C 
ATOM     19  O   UNL     1       5.035   5.024  -0.022  0.00  0.00    -0.272 OA
ATOM     20  H   UNL     1       3.769   7.969  -0.071  0.00  0.00    +0.155 HD
BRANCH  17  25
ATOM     21  C   UNL     1       8.193   7.106  -0.421  0.00  0.00    +0.002 A 
ATOM     22  C   UNL     1       8.562   8.240   0.279  0.00  0.00    +0.001 A 
ATOM     23  C   UNL     1       7.599   9.025   0.886  0.00  0.00    +0.017 A 
ATOM     24  C   UNL     1       6.264   8.679   0.794  0.00  0.00    +0.039 A 
ATOM     25  C   UNL     1       5.891   7.541   0.091  0.00  0.00    +0.048 A 
ATOM     26  C   UNL     1       6.861   6.752  -0.513  0.00  0.00    +0.024 A 
ATOM     27 BR   UNL     1       4.948   9.753   1.625  0.00  0.00    -0.048 Br
ENDBRANCH  17  25
ENDBRANCH  16  18
ENDBRANCH  15  16
ENDBRANCH   1  15
TORSDOF 6
