REMARK  Name = ZINC39838044
REMARK  9 active torsions:
REMARK  status: ('A' for Active; 'I' for Inactive)
REMARK    1  A    between atoms: C_1  and  C_2
REMARK    2  A    between atoms: C_16  and  C_18
REMARK    3  A    between atoms: C_21  and  O_24
REMARK    4  A    between atoms: O_24  and  C_25
REMARK    5  A    between atoms: C_25  and  C_26
REMARK    6  A    between atoms: C_32  and  C_34
REMARK    7  A    between atoms: C_34  and  C_35
REMARK    8  A    between atoms: C_35  and  C_36
REMARK    9  A    between atoms: C_35  and  C_37
REMARK                            x       y       z     vdW  Elec       q    Type
REMARK                         _______ _______ _______ _____ _____    ______ ____
ROOT
ATOM      1  C   UNL     1      -0.018   1.503   0.010  0.00  0.00    +0.044 C 
ATOM      2  C   UNL     1       0.002  -0.004   0.002  0.00  0.00    -0.050 A 
ATOM      3  C   UNL     1       0.006  -0.689  -1.205  0.00  0.00    +0.007 A 
ATOM      4  C   UNL     1       0.022  -2.065  -1.235  0.00  0.00    +0.047 A 
ATOM      5  C   UNL     1       0.035  -2.790  -0.043  0.00  0.00    +0.139 A 
ATOM      6  C   UNL     1       0.037  -2.086   1.172  0.00  0.00    +0.065 A 
ATOM      7  C   UNL     1       0.023  -0.692   1.183  0.00  0.00    +0.018 A 
ATOM      8  C   UNL     1       0.067  -2.849   2.446  0.00  0.00    +0.199 A 
ATOM      9  O   UNL     1      -0.098  -2.332   3.537  0.00  0.00    -0.287 OA
ATOM     10  C   UNL     1       0.313  -4.283   2.266  0.00  0.00    +0.072 A 
ATOM     11  C   UNL     1       0.294  -4.850   1.023  0.00  0.00    +0.199 A 
ATOM     12  O   UNL     1       0.043  -4.142  -0.096  0.00  0.00    -0.450 OA
ATOM     13  C   UNL     1       0.582  -6.287   1.166  0.00  0.00    +0.289 C 
ATOM     14  O   UNL     1       0.643  -7.080   0.247  0.00  0.00    -0.266 OA
ATOM     15  N   UNL     1       0.769  -6.595   2.466  0.00  0.00    -0.230 N 
ATOM     16  C   UNL     1       0.613  -5.362   3.254  0.00  0.00    +0.151 C 
ATOM     17  C   UNL     1       1.059  -7.856   2.972  0.00  0.00    +0.191 A 
ATOM     18  N   UNL     1       1.251  -8.249   4.223  0.00  0.00    -0.125 NA
ATOM     19  N   UNL     1       1.508  -9.450   4.511  0.00  0.00    -0.145 NA
ATOM     20  C   UNL     1       1.603 -10.388   3.590  0.00  0.00    +0.104 A 
ATOM     21  S   UNL     1       1.272  -9.417   2.122  0.00  0.00    -0.035 S 
ENDROOT
BRANCH  16  22
ATOM     22  C   UNL     1       1.889  -5.051   3.992  0.00  0.00    -0.022 A 
ATOM     23  C   UNL     1       3.111  -5.309   3.397  0.00  0.00    +0.009 A 
ATOM     24  C   UNL     1       4.282  -5.025   4.071  0.00  0.00    +0.046 A 
ATOM     25  C   UNL     1       4.233  -4.481   5.347  0.00  0.00    +0.121 A 
ATOM     26  C   UNL     1       3.006  -4.223   5.941  0.00  0.00    +0.046 A 
ATOM     27  C   UNL     1       1.838  -4.503   5.260  0.00  0.00    +0.009 A 
BRANCH  25  28
ATOM     28  O   UNL     1       5.384  -4.202   6.012  0.00  0.00    -0.483 OA
BRANCH  28  29
ATOM     29  C   UNL     1       5.258  -3.643   7.322  0.00  0.00    +0.324 C 
BRANCH  29  30
ATOM     30  C   UNL     1       6.628  -3.401   7.900  0.00  0.00    +0.248 C 
ATOM     31  O   UNL     1       7.616  -3.681   7.254  0.00  0.00    -0.272 OA
ATOM     32  N   UNL     1       6.756  -2.876   9.134  0.00  0.00    -0.327 N 
ATOM     33  H   UNL     1       5.965  -2.652   9.650  0.00  0.00    +0.145 HD
ATOM     34  H   UNL     1       7.638  -2.720   9.506  0.00  0.00    +0.145 HD
ENDBRANCH  29  30
ENDBRANCH  28  29
ENDBRANCH  25  28
ENDBRANCH  16  22
BRANCH  20  35
ATOM     35  C   UNL     1       1.898 -11.859   3.732  0.00  0.00    +0.068 C 
BRANCH  35  36
ATOM     36  C   UNL     1       0.588 -12.627   3.911  0.00  0.00    -0.011 C 
ATOM     37  C   UNL     1      -0.253 -12.505   2.639  0.00  0.00    +0.007 C 
ATOM     38  C   UNL     1       0.894 -14.102   4.179  0.00  0.00    +0.007 C 
ENDBRANCH  35  36
ENDBRANCH  20  35
TORSDOF 6
