REMARK  Name = ZINC63941226
REMARK  10 active torsions:
REMARK  status: ('A' for Active; 'I' for Inactive)
REMARK    1  A    between atoms: C_1  and  C_2
REMARK    2  A    between atoms: C_2  and  C_3
REMARK    3  A    between atoms: C_3  and  C_4
REMARK    4  A    between atoms: C_3  and  C_6
REMARK    5  A    between atoms: C_4  and  C_5
REMARK    6  A    between atoms: C_13  and  C_15
REMARK    7  A    between atoms: N_20  and  C_22
REMARK    8  A    between atoms: C_22  and  C_23
REMARK    9  A    between atoms: C_23  and  C_24
REMARK   10  A    between atoms: C_27  and  C_33
REMARK                            x       y       z     vdW  Elec       q    Type
REMARK                         _______ _______ _______ _____ _____    ______ ____
ROOT
ATOM      1  C   UNL     1      -2.059  -6.555   3.885  0.00  0.00    +0.101 C 
ATOM      2  C   UNL     1      -2.002  -7.689   2.835  0.00  0.00    +0.110 C 
ATOM      3  C   UNL     1      -2.207  -8.952   3.642  0.00  0.00    +0.216 C 
ATOM      4  O   UNL     1      -2.507 -10.031   3.178  0.00  0.00    -0.276 OA
ATOM      5  N   UNL     1      -2.007  -8.704   4.948  0.00  0.00    -0.300 N 
ATOM      6  C   UNL     1      -1.648  -7.299   5.175  0.00  0.00    +0.121 C 
ENDROOT
BRANCH   1  13
ATOM      7  C   UNL     1       1.204  -1.687   1.131  0.00  0.00    +0.157 C 
ATOM      8  N   UNL     1       1.567  -2.344   2.407  0.00  0.00    -0.253 N 
ATOM      9  N   UNL     1       0.727  -3.361   2.803  0.00  0.00    -0.163 NA
ATOM     10  C   UNL     1      -0.312  -3.732   2.123  0.00  0.00    +0.179 C 
ATOM     11  S   UNL     1      -0.305  -2.649   0.701  0.00  0.00    -0.065 S 
ATOM     12  N   UNL     1      -1.223  -4.739   2.428  0.00  0.00    -0.263 N 
ATOM     13  C   UNL     1      -1.073  -5.464   3.554  0.00  0.00    +0.224 C 
ATOM     14  O   UNL     1      -0.145  -5.238   4.302  0.00  0.00    -0.275 OA
ATOM     15  H   UNL     1       2.342  -2.078   2.927  0.00  0.00    +0.169 HD
ATOM     16  H   UNL     1      -1.965  -4.920   1.830  0.00  0.00    +0.157 HD
BRANCH   7  17
ATOM     17  C   UNL     1       0.880  -0.207   1.340  0.00  0.00    +0.021 C 
BRANCH  17  19
ATOM     18  C   UNL     1       0.359   1.945   0.182  0.00  0.00    +0.004 C 
ATOM     19  C   UNL     1       0.561   0.441  -0.009  0.00  0.00    +0.003 C 
ENDBRANCH  17  19
BRANCH  17  20
ATOM     20  C   UNL     1      -0.329  -0.075   2.268  0.00  0.00    +0.003 C 
ATOM     21  C   UNL     1       0.053  -0.544   3.673  0.00  0.00    +0.004 C 
ENDBRANCH  17  20
ENDBRANCH   7  17
ENDBRANCH   1  13
BRANCH   5  22
ATOM     22  C   UNL     1      -2.132  -9.707   6.008  0.00  0.00    +0.112 C 
BRANCH  22  23
ATOM     23  C   UNL     1      -0.780 -10.389   6.228  0.00  0.00    +0.052 C 
BRANCH  23  24
ATOM     24  C   UNL     1      -0.909 -11.421   7.319  0.00  0.00    -0.040 C 
ATOM     25  C   UNL     1      -1.139 -12.744   7.163  0.00  0.00    -0.001 A 
ATOM     26  C   UNL     1      -1.331 -13.587   5.977  0.00  0.00    +0.013 A 
ATOM     27  C   UNL     1      -1.548 -14.912   6.142  0.00  0.00    -0.050 A 
ATOM     28  C   UNL     1      -1.594 -15.499   7.414  0.00  0.00    +0.005 A 
ATOM     29  C   UNL     1      -1.427 -14.790   8.550  0.00  0.00    +0.026 A 
ATOM     30  C   UNL     1      -1.192 -13.388   8.495  0.00  0.00    +0.043 A 
ATOM     31  N   UNL     1      -1.003 -12.497   9.438  0.00  0.00    -0.380 N 
ATOM     32  C   UNL     1      -0.802 -11.186   8.809  0.00  0.00    +0.144 C 
ATOM     33  C   UNL     1      -1.745 -15.780   4.926  0.00  0.00    +0.044 C 
ATOM     34  H   UNL     1      -0.993 -12.675  10.391  0.00  0.00    +0.160 HD
ENDBRANCH  23  24
ENDBRANCH  22  23
ENDBRANCH   5  22
TORSDOF 7
