REMARK  Name = ZINC01034092
REMARK  9 active torsions:
REMARK  status: ('A' for Active; 'I' for Inactive)
REMARK    1  A    between atoms: C_1  and  N_2
REMARK    2  A    between atoms: N_2  and  C_3
REMARK    3  A    between atoms: C_4  and  O_6
REMARK    4  A    between atoms: O_6  and  C_7
REMARK    5  A    between atoms: C_10  and  S_21
REMARK    6  A    between atoms: N_11  and  C_12
REMARK    7  A    between atoms: S_21  and  C_22
REMARK    8  A    between atoms: C_22  and  C_23
REMARK    9  A    between atoms: C_23  and  C_25
REMARK                            x       y       z     vdW  Elec       q    Type
REMARK                         _______ _______ _______ _____ _____    ______ ____
ROOT
ATOM      1  C   UNL     1       0.015  -2.649  -2.378  0.00  0.00    +0.328 A 
ATOM      2  N   UNL     1       0.002  -2.068  -3.550  0.00  0.00    -0.091 NA
ATOM      3  N   UNL     1       0.004  -3.070  -4.530  0.00  0.00    -0.119 NA
ATOM      4  C   UNL     1       0.019  -4.231  -3.920  0.00  0.00    +0.195 A 
ATOM      5  N   UNL     1       0.032  -4.000  -2.574  0.00  0.00    -0.268 N 
ENDROOT
BRANCH   5   6
ATOM      6  C   UNL     1       0.056  -5.022  -1.525  0.00  0.00    +0.103 C 
ATOM      7  C   UNL     1      -1.090  -4.799  -0.515  0.00  0.00    +0.061 C 
ATOM      8  C   UNL     1      -0.519  -5.204   0.827  0.00  0.00    -0.042 A 
ATOM      9  C   UNL     1      -1.157  -5.512   2.017  0.00  0.00    +0.004 A 
ATOM     10  C   UNL     1      -0.420  -5.861   3.131  0.00  0.00    +0.000 A 
ATOM     11  C   UNL     1       0.961  -5.902   3.059  0.00  0.00    +0.000 A 
ATOM     12  C   UNL     1       1.598  -5.595   1.873  0.00  0.00    +0.004 A 
ATOM     13  C   UNL     1       0.860  -5.246   0.755  0.00  0.00    -0.042 A 
ATOM     14  C   UNL     1       1.312  -4.871  -0.640  0.00  0.00    +0.061 C 
ENDBRANCH   5   6
BRANCH   1  15
ATOM     15  O   UNL     1       0.018  -2.018  -1.176  0.00  0.00    -0.376 OA
BRANCH  15  19
ATOM     16  C   UNL     1      -0.018   1.461   0.010  0.00  0.00    +0.135 C 
ATOM     17  N   UNL     1       0.002  -0.004   0.002  0.00  0.00    -0.273 N 
ATOM     18  C   UNL     1       0.024  -0.743   1.267  0.00  0.00    +0.135 C 
ATOM     19  C   UNL     1       0.000  -0.672  -1.169  0.00  0.00    +0.410 C 
ATOM     20  O   UNL     1      -0.018  -0.058  -2.218  0.00  0.00    -0.226 OA
ENDBRANCH  15  19
ENDBRANCH   1  15
BRANCH   4  21
ATOM     21  S   UNL     1       0.027  -5.812  -4.699  0.00  0.00    -0.078 S 
BRANCH  21  22
ATOM     22  C   UNL     1       0.011  -5.427  -6.472  0.00  0.00    +0.157 C 
BRANCH  22  23
ATOM     23  C   UNL     1       0.017  -6.708  -7.264  0.00  0.00    +0.173 C 
ATOM     24  O   UNL     1       0.030  -7.777  -6.690  0.00  0.00    -0.291 OA
BRANCH  23  25
ATOM     25  C   UNL     1       0.006  -6.664  -8.732  0.00  0.00    +0.022 A 
ATOM     26  C   UNL     1      -0.003  -5.433  -9.398  0.00  0.00    +0.015 A 
ATOM     27  C   UNL     1      -0.014  -5.396 -10.773  0.00  0.00    +0.050 A 
ATOM     28  C   UNL     1      -0.016  -6.577 -11.507  0.00  0.00    +0.162 A 
ATOM     29  C   UNL     1      -0.004  -7.807 -10.852  0.00  0.00    +0.163 A 
ATOM     30  C   UNL     1       0.011  -7.853  -9.471  0.00  0.00    +0.060 A 
ATOM     31  O   UNL     1       0.002  -8.972 -11.557  0.00  0.00    -0.485 OA
ATOM     32  C   UNL     1      -0.383  -8.893 -12.933  0.00  0.00    +0.270 C 
ATOM     33  C   UNL     1       0.349  -7.702 -13.569  0.00  0.00    +0.270 C 
ATOM     34  O   UNL     1      -0.031  -6.515 -12.865  0.00  0.00    -0.485 OA
ENDBRANCH  23  25
ENDBRANCH  22  23
ENDBRANCH  21  22
ENDBRANCH   4  21
TORSDOF 7
