REMARK  Name = ZINC61630914
REMARK  9 active torsions:
REMARK  status: ('A' for Active; 'I' for Inactive)
REMARK    1  A    between atoms: C_1  and  N_2
REMARK    2  A    between atoms: N_2  and  C_3
REMARK    3  A    between atoms: C_4  and  C_6
REMARK    4  A    between atoms: C_6  and  N_7
REMARK    5  A    between atoms: N_7  and  C_8
REMARK    6  A    between atoms: N_7  and  C_9
REMARK    7  A    between atoms: C_9  and  C_10
REMARK    8  A    between atoms: C_14  and  N_16
REMARK    9  A    between atoms: N_16  and  N_17
REMARK                            x       y       z     vdW  Elec       q    Type
REMARK                         _______ _______ _______ _____ _____    ______ ____
ROOT
ATOM      1  C   UNL     1      -3.905  -4.686   0.258  0.00  0.00    +0.045 A 
ATOM      2  C   UNL     1      -4.466  -4.819   1.514  0.00  0.00    +0.060 A 
ATOM      3  C   UNL     1      -5.767  -5.292   1.631  0.00  0.00    +0.025 A 
ATOM      4  C   UNL     1      -6.458  -5.614   0.477  0.00  0.00    +0.046 A 
ATOM      5  C   UNL     1      -5.832  -5.455  -0.754  0.00  0.00    +0.132 A 
ATOM      6  N   UNL     1      -4.591  -4.996  -0.825  0.00  0.00    -0.236 NA
ATOM      7 CL   UNL     1      -3.554  -4.401   2.931  0.00  0.00    -0.082 Cl
ENDROOT
BRANCH   5   8
ATOM      8  N   UNL     1      -6.515  -5.775  -1.922  0.00  0.00    -0.268 N 
ATOM      9  H   UNL     1      -7.425  -6.108  -1.875  0.00  0.00    +0.167 HD
BRANCH   8  10
ATOM     10  N   UNL     1      -5.906  -5.621  -3.135  0.00  0.00    -0.255 NA
ATOM     11  H   UNL     1      -6.522  -5.892  -3.886  0.00  0.00    +0.140 HD
ATOM     12  H   UNL     1      -5.580  -4.674  -3.258  0.00  0.00    +0.140 HD
ENDBRANCH   8  10
ENDBRANCH   5   8
BRANCH   1  13
ATOM     13  C   UNL     1      -2.494  -4.174   0.124  0.00  0.00    -0.021 C 
BRANCH  13  14
ATOM     14  N   UNL     1      -2.514  -2.709   0.011  0.00  0.00    +0.387 N 
ATOM     15  C   UNL     1      -3.188  -2.323  -1.235  0.00  0.00    -0.095 C 
ATOM     16  H   UNL     1      -3.010  -2.318   0.798  0.00  0.00    -0.081 HD
BRANCH  14  17
ATOM     17  C   UNL     1      -1.135  -2.201   0.001  0.00  0.00    +0.019 C 
BRANCH  17  21
ATOM     18  C   UNL     1      -0.018   1.461   0.010  0.00  0.00    +0.131 C 
ATOM     19  N   UNL     1       0.002  -0.004   0.002  0.00  0.00    -0.309 N 
ATOM     20  C   UNL     1       1.281  -0.719  -0.014  0.00  0.00    +0.131 C 
ATOM     21  C   UNL     1      -1.156  -0.694   0.009  0.00  0.00    +0.199 C 
ATOM     22  O   UNL     1      -2.214  -0.102   0.023  0.00  0.00    -0.278 OA
ENDBRANCH  17  21
ENDBRANCH  14  17
ENDBRANCH  13  14
ENDBRANCH   1  13
TORSDOF 6
