REMARK  Name = ZINC51038396
REMARK  5 active torsions:
REMARK  status: ('A' for Active; 'I' for Inactive)
REMARK    1  A    between atoms: C_1  and  C_2
REMARK    2  A    between atoms: C_5  and  S_7
REMARK    3  A    between atoms: S_7  and  C_8
REMARK    4  A    between atoms: C_11  and  C_15
REMARK    5  A    between atoms: C_13  and  N_14
REMARK                            x       y       z     vdW  Elec       q    Type
REMARK                         _______ _______ _______ _____ _____    ______ ____
ROOT
ATOM      1  C   UNL     1       0.111  -4.929   0.507  0.00  0.00    +0.038 A 
ATOM      2  C   UNL     1       0.205  -4.735  -0.867  0.00  0.00    +0.018 A 
ATOM      3  C   UNL     1       0.249  -5.817  -1.717  0.00  0.00    +0.016 A 
ATOM      4  C   UNL     1       0.198  -7.116  -1.200  0.00  0.00    +0.065 A 
ATOM      5  C   UNL     1       0.103  -7.314   0.183  0.00  0.00    +0.039 A 
ATOM      6  C   UNL     1       0.065  -6.225   1.031  0.00  0.00    +0.039 A 
ENDROOT
BRANCH   6   7
ATOM      7  N   UNL     1      -0.024  -6.418   2.415  0.00  0.00    -0.357 N 
ATOM      8  H   UNL     1      -0.054  -5.653   3.010  0.00  0.00    +0.142 HD
ATOM      9  H   UNL     1      -0.056  -7.317   2.778  0.00  0.00    +0.142 HD
ENDBRANCH   6   7
BRANCH   4  10
ATOM     10  C   UNL     1       0.243  -8.273  -2.108  0.00  0.00    +0.387 C 
ATOM     11  O   UNL     1       0.326  -8.099  -3.317  0.00  0.00    -0.241 OA
ATOM     12  O   UNL     1       0.198  -9.409  -1.655  0.00  0.00    -0.241 OA
ENDBRANCH   4  10
BRANCH   1  13
ATOM     13  S   UNL     1       0.057  -3.540   1.589  0.00  0.00    -0.028 S 
BRANCH  13  18
ATOM     14  C   UNL     1      -4.496  -2.172   3.899  0.00  0.00    +0.111 C 
ATOM     15  C   UNL     1      -3.479  -2.863   3.027  0.00  0.00    +0.215 A 
ATOM     16  N   UNL     1      -3.715  -3.829   2.189  0.00  0.00    -0.112 NA
ATOM     17  N   UNL     1      -2.618  -4.179   1.614  0.00  0.00    -0.101 NA
ATOM     18  C   UNL     1      -1.636  -3.440   2.070  0.00  0.00    +0.282 A 
ATOM     19  O   UNL     1      -2.161  -2.588   2.970  0.00  0.00    -0.416 OA
ENDBRANCH  13  18
ENDBRANCH   1  13
TORSDOF 4
