REMARK  Name = ZINC15779351
REMARK  6 active torsions:
REMARK  status: ('A' for Active; 'I' for Inactive)
REMARK    1  A    between atoms: C_2  and  C_3
REMARK    2  A    between atoms: C_2  and  N_19
REMARK    3  A    between atoms: C_3  and  C_4
REMARK    4  A    between atoms: C_3  and  C_12
REMARK    5  A    between atoms: C_3  and  O_18
REMARK    6  A    between atoms: C_5  and  C_6
REMARK                            x       y       z     vdW  Elec       q    Type
REMARK                         _______ _______ _______ _____ _____    ______ ____
ROOT
ATOM      1  C   UNL     1      -0.990  -2.384  -0.129  0.00  0.00    +0.151 C 
ENDROOT
BRANCH   1   2
ATOM      2  C   UNL     1      -0.322  -2.915   1.113  0.00  0.00    -0.006 A 
ATOM      3  C   UNL     1      -1.021  -3.740   1.974  0.00  0.00    +0.007 A 
ATOM      4  C   UNL     1      -0.406  -4.231   3.111  0.00  0.00    +0.000 A 
ATOM      5  C   UNL     1       0.903  -3.889   3.392  0.00  0.00    +0.000 A 
ATOM      6  C   UNL     1       1.600  -3.060   2.533  0.00  0.00    +0.000 A 
ATOM      7  C   UNL     1       0.987  -2.572   1.393  0.00  0.00    +0.007 A 
ENDBRANCH   1   2
BRANCH   1   9
ATOM      8  C   UNL     1      -2.360  -0.364   0.070  0.00  0.00    +0.037 C 
ATOM      9  C   UNL     1      -1.154  -0.890  -0.012  0.00  0.00    +0.078 C 
BRANCH   9  10
ATOM     10  N   UNL     1      -0.030  -0.066   0.010  0.00  0.00    -0.213 N 
ATOM     11  C   UNL     1       0.302   0.849   0.985  0.00  0.00    +0.094 A 
ATOM     12  C   UNL     1      -0.290   1.245   2.179  0.00  0.00    +0.030 A 
ATOM     13  C   UNL     1       0.311   2.216   2.948  0.00  0.00    +0.002 A 
ATOM     14  C   UNL     1       1.506   2.796   2.543  0.00  0.00    +0.002 A 
ATOM     15  C   UNL     1       2.104   2.418   1.377  0.00  0.00    +0.032 A 
ATOM     16  C   UNL     1       1.512   1.435   0.574  0.00  0.00    +0.113 A 
ATOM     17  N   UNL     1       1.861   0.869  -0.605  0.00  0.00    -0.129 NA
ATOM     18  N   UNL     1       0.985  -0.005  -0.957  0.00  0.00    -0.060 NA
ENDBRANCH   9  10
ENDBRANCH   1   9
BRANCH   1  19
ATOM     19  C   UNL     1      -0.141  -2.703  -1.333  0.00  0.00    +0.019 C 
ATOM     20  C   UNL     1      -0.632  -3.449  -2.312  0.00  0.00    +0.007 C 
BRANCH  20  21
ATOM     21  C   UNL     1       0.201  -3.763  -3.492  0.00  0.00    -0.025 A 
ATOM     22  C   UNL     1       1.503  -3.270  -3.581  0.00  0.00    +0.008 A 
ATOM     23  C   UNL     1       2.278  -3.571  -4.682  0.00  0.00    +0.001 A 
ATOM     24  C   UNL     1       1.762  -4.349  -5.703  0.00  0.00    +0.000 A 
ATOM     25  C   UNL     1       0.469  -4.836  -5.623  0.00  0.00    +0.001 A 
ATOM     26  C   UNL     1      -0.314  -4.548  -4.524  0.00  0.00    +0.008 A 
ENDBRANCH  20  21
ENDBRANCH   1  19
BRANCH   1  27
ATOM     27  O   UNL     1      -2.274  -2.994  -0.278  0.00  0.00    -0.374 OA
ATOM     28  H   UNL     1      -2.762  -2.698  -1.058  0.00  0.00    +0.211 HD
ENDBRANCH   1  27
TORSDOF 6
