REMARK  Name = ZINC00894563
REMARK  6 active torsions:
REMARK  status: ('A' for Active; 'I' for Inactive)
REMARK    1  A    between atoms: C_1  and  C_2
REMARK    2  A    between atoms: C_4  and  C_31
REMARK    3  A    between atoms: C_7  and  C_14
REMARK    4  A    between atoms: C_14  and  C_16
REMARK    5  A    between atoms: C_14  and  N_60
REMARK    6  A    between atoms: N_20  and  C_21
REMARK                            x       y       z     vdW  Elec       q    Type
REMARK                         _______ _______ _______ _____ _____    ______ ____
ROOT
ATOM      1  C   UNL     1       4.873   4.287  -0.023  0.00  0.00    +0.039 C 
ENDROOT
BRANCH   1   8
ATOM      2  C   UNL     1      -0.798  -1.315   0.256  0.00  0.00    +0.044 C 
ATOM      3  C   UNL     1       0.423  -0.435   0.188  0.00  0.00    -0.048 A 
ATOM      4  C   UNL     1       1.681  -1.013   0.081  0.00  0.00    +0.007 A 
ATOM      5  C   UNL     1       2.801  -0.233   0.018  0.00  0.00    -0.041 A 
ATOM      6  C   UNL     1       2.680   1.160   0.061  0.00  0.00    +0.002 A 
ATOM      7  C   UNL     1       3.859   2.025  -0.004  0.00  0.00    +0.018 A 
ATOM      8  C   UNL     1       3.680   3.368   0.042  0.00  0.00    +0.011 A 
ATOM      9  C   UNL     1       2.381   3.909   0.150  0.00  0.00    +0.251 A 
ATOM     10  O   UNL     1       2.243   5.119   0.189  0.00  0.00    -0.268 OA
ATOM     11  N   UNL     1       1.292   3.123   0.211  0.00  0.00    -0.322 N 
ATOM     12  H   UNL     1       0.387   3.540   0.288  0.00  0.00    +0.169 HD
ATOM     13  C   UNL     1       1.406   1.749   0.170  0.00  0.00    +0.050 A 
ATOM     14  C   UNL     1       0.280   0.935   0.232  0.00  0.00    +0.029 A 
ATOM     15  C   UNL     1       4.162  -0.871  -0.097  0.00  0.00    +0.044 C 
ENDBRANCH   1   8
BRANCH   1  20
ATOM     16  C   UNL     1       5.832   6.197  -1.189  0.00  0.00    -0.077 C 
ATOM     17  C   UNL     1       5.734   6.756  -2.630  0.00  0.00    -0.020 C 
ATOM     18  C   UNL     1       5.279   5.526  -3.448  0.00  0.00    -0.020 C 
ATOM     19  C   UNL     1       4.626   4.580  -2.422  0.00  0.00    -0.077 C 
ATOM     20  N   UNL     1       4.691   5.270  -1.133  0.00  0.00    +0.389 N 
ATOM     21  H   UNL     1       3.824   5.797  -0.977  0.00  0.00    -0.080 HD
ENDBRANCH   1  20
BRANCH   1  22
ATOM     22  C   UNL     1       5.016   5.019   1.286  0.00  0.00    +0.143 A 
ATOM     23  N   UNL     1       4.322   6.058   1.681  0.00  0.00    -0.115 NA
ATOM     24  N   UNL     1       4.737   6.391   2.855  0.00  0.00    -0.023 NA
ATOM     25  N   UNL     1       5.683   5.595   3.215  0.00  0.00    -0.044 NA
ATOM     26  N   UNL     1       5.884   4.735   2.275  0.00  0.00    -0.227 N 
BRANCH  26  27
ATOM     27  C   UNL     1       6.871   3.653   2.282  0.00  0.00    +0.111 C 
ATOM     28  C   UNL     1       6.593   2.717   3.460  0.00  0.00    +0.027 C 
ATOM     29  C   UNL     1       7.624   1.587   3.468  0.00  0.00    +0.002 C 
ATOM     30  C   UNL     1       9.028   2.178   3.607  0.00  0.00    +0.000 C 
ATOM     31  C   UNL     1       9.306   3.114   2.429  0.00  0.00    +0.002 C 
ATOM     32  C   UNL     1       8.275   4.245   2.421  0.00  0.00    +0.027 C 
ENDBRANCH  26  27
ENDBRANCH   1  22
TORSDOF 4
