REMARK  Name = ZINC00664693
REMARK  5 active torsions:
REMARK  status: ('A' for Active; 'I' for Inactive)
REMARK    1  A    between atoms: C_4  and  N_7
REMARK    2  A    between atoms: N_7  and  C_8
REMARK    3  A    between atoms: C_15  and  N_28
REMARK    4  A    between atoms: C_16  and  C_26
REMARK    5  A    between atoms: C_17  and  C_19
REMARK                            x       y       z     vdW  Elec       q    Type
REMARK                         _______ _______ _______ _____ _____    ______ ____
ROOT
ATOM      1  C   UNL     1      -1.149  -0.794  -0.046  0.00  0.00    +0.035 A 
ATOM      2  C   UNL     1      -2.402  -0.196  -0.112  0.00  0.00    +0.024 A 
ATOM      3  C   UNL     1      -3.538  -0.979  -0.160  0.00  0.00    +0.010 A 
ATOM      4  C   UNL     1      -3.436  -2.359  -0.142  0.00  0.00    +0.008 A 
ATOM      5  C   UNL     1      -2.189  -2.962  -0.076  0.00  0.00    +0.136 A 
ATOM      6  C   UNL     1      -1.044  -2.177  -0.034  0.00  0.00    +0.069 A 
ATOM      7  O   UNL     1      -2.069  -4.312  -0.058  0.00  0.00    -0.441 OA
ATOM      8  C   UNL     1      -3.086  -5.081  -0.482  0.00  0.00    +0.199 C 
ATOM      9  C   UNL     1      -4.353  -4.610  -0.570  0.00  0.00    +0.098 C 
ATOM     10  C   UNL     1      -4.688  -3.194  -0.194  0.00  0.00    +0.101 C 
ENDROOT
BRANCH  10  11
ATOM     11  C   UNL     1      -5.353  -3.181   1.159  0.00  0.00    +0.000 A 
ATOM     12  C   UNL     1      -4.679  -3.663   2.265  0.00  0.00    +0.007 A 
ATOM     13  C   UNL     1      -5.286  -3.646   3.507  0.00  0.00    +0.000 A 
ATOM     14  C   UNL     1      -6.573  -3.158   3.641  0.00  0.00    +0.003 A 
ATOM     15  C   UNL     1      -7.250  -2.681   2.536  0.00  0.00    +0.038 A 
ATOM     16  C   UNL     1      -6.641  -2.692   1.292  0.00  0.00    +0.127 A 
ATOM     17  F   UNL     1      -7.302  -2.225   0.211  0.00  0.00    -0.205 F 
ENDBRANCH  10  11
BRANCH   8  18
ATOM     18  N   UNL     1      -2.834  -6.383  -0.838  0.00  0.00    -0.328 N 
ATOM     19  H   UNL     1      -1.932  -6.735  -0.780  0.00  0.00    +0.145 HD
ATOM     20  H   UNL     1      -3.557  -6.950  -1.146  0.00  0.00    +0.145 HD
ENDBRANCH   8  18
BRANCH   1  21
ATOM     21  N   UNL     1       0.002  -0.004   0.002  0.00  0.00    -0.314 N 
ATOM     22  H   UNL     1       0.016   0.860  -0.438  0.00  0.00    +0.152 HD
BRANCH  21  26
ATOM     23  C   UNL     1       3.375  -1.359   2.034  0.00  0.00    +0.000 A 
ATOM     24  C   UNL     1       3.516  -0.508   0.953  0.00  0.00    +0.002 A 
ATOM     25  C   UNL     1       2.400  -0.057   0.277  0.00  0.00    +0.023 A 
ATOM     26  C   UNL     1       1.134  -0.459   0.684  0.00  0.00    +0.031 A 
ATOM     27  C   UNL     1       0.995  -1.310   1.773  0.00  0.00    +0.023 A 
ATOM     28  C   UNL     1       2.116  -1.761   2.442  0.00  0.00    +0.002 A 
ENDBRANCH  21  26
ENDBRANCH   1  21
BRANCH   9  29
ATOM     29  C   UNL     1      -5.394  -5.479  -1.030  0.00  0.00    +0.101 C 
ATOM     30  N   UNL     1      -6.220  -6.168  -1.395  0.00  0.00    -0.191 NA
ENDBRANCH   9  29
TORSDOF 5
