REMARK  Name = ZINC06195665
REMARK  10 active torsions:
REMARK  status: ('A' for Active; 'I' for Inactive)
REMARK    1  A    between atoms: C_1  and  C_2
REMARK    2  A    between atoms: C_5  and  C_41
REMARK    3  A    between atoms: C_6  and  N_8
REMARK    4  A    between atoms: C_13  and  C_15
REMARK    5  A    between atoms: C_13  and  C_29
REMARK    6  A    between atoms: C_13  and  N_76
REMARK    7  A    between atoms: C_19  and  C_28
REMARK    8  A    between atoms: C_20  and  C_27
REMARK    9  A    between atoms: N_33  and  C_34
REMARK   10  A    between atoms: C_34  and  C_35
REMARK                            x       y       z     vdW  Elec       q    Type
REMARK                         _______ _______ _______ _____ _____    ______ ____
ROOT
ATOM      1  C   UNL     1      -8.158   2.692   1.162  0.00  0.00    +0.039 C 
ENDROOT
BRANCH   1   2
ATOM      2  C   UNL     1      -8.861   1.411   0.796  0.00  0.00    +0.011 A 
ATOM      3  C   UNL     1      -9.890   0.963   1.558  0.00  0.00    +0.017 A 
ATOM      4  C   UNL     1     -10.555  -0.283   1.173  0.00  0.00    -0.001 A 
ATOM      5  C   UNL     1     -11.625  -0.792   1.917  0.00  0.00    +0.013 A 
ATOM      6  C   UNL     1     -12.221  -1.960   1.534  0.00  0.00    -0.047 A 
ATOM      7  C   UNL     1     -11.774  -2.646   0.413  0.00  0.00    -0.046 A 
ATOM      8  C   UNL     1     -10.722  -2.164  -0.335  0.00  0.00    +0.030 A 
ATOM      9  C   UNL     1     -10.099  -0.977   0.036  0.00  0.00    +0.049 A 
ATOM     10  N   UNL     1      -9.044  -0.471  -0.693  0.00  0.00    -0.322 N 
ATOM     11  H   UNL     1      -8.732  -0.950  -1.477  0.00  0.00    +0.169 HD
ATOM     12  C   UNL     1      -8.443   0.677  -0.335  0.00  0.00    +0.251 A 
ATOM     13  O   UNL     1      -7.513   1.095  -1.004  0.00  0.00    -0.268 OA
ATOM     14  C   UNL     1     -12.447  -3.933   0.010  0.00  0.00    +0.044 C 
ATOM     15  C   UNL     1     -13.374  -2.507   2.335  0.00  0.00    +0.044 C 
ENDBRANCH   1   2
BRANCH   1  21
ATOM     16  N   UNL     1      -4.425   2.222   3.083  0.00  0.00    -0.333 N 
ATOM     17  C   UNL     1      -5.121   1.012   2.626  0.00  0.00    +0.086 C 
ATOM     18  C   UNL     1      -6.605   1.326   2.423  0.00  0.00    -0.058 C 
ATOM     19  C   UNL     1      -6.046   3.622   1.899  0.00  0.00    -0.058 C 
ATOM     20  C   UNL     1      -4.562   3.308   2.102  0.00  0.00    +0.086 C 
ATOM     21  N   UNL     1      -6.730   2.403   1.418  0.00  0.00    +0.391 N 
ATOM     22  H   UNL     1      -6.290   2.096   0.543  0.00  0.00    -0.080 HD
BRANCH  16  28
ATOM     23  C   UNL     1       0.016   0.861   1.475  0.00  0.00    +0.044 C 
ATOM     24  C   UNL     1      -0.904   1.294   2.588  0.00  0.00    -0.049 A 
ATOM     25  C   UNL     1      -0.415   1.427   3.875  0.00  0.00    +0.004 A 
ATOM     26  C   UNL     1      -1.255   1.824   4.899  0.00  0.00    +0.005 A 
ATOM     27  C   UNL     1      -2.586   2.088   4.640  0.00  0.00    -0.029 A 
ATOM     28  C   UNL     1      -3.079   1.956   3.349  0.00  0.00    +0.033 A 
ATOM     29  C   UNL     1      -2.232   1.562   2.321  0.00  0.00    +0.026 A 
ATOM     30  C   UNL     1      -3.500   2.520   5.757  0.00  0.00    +0.045 C 
ENDBRANCH  16  28
ENDBRANCH   1  21
BRANCH   1  31
ATOM     31  C   UNL     1      -8.803   3.287   2.387  0.00  0.00    +0.143 A 
ATOM     32  N   UNL     1      -8.673   2.869   3.622  0.00  0.00    -0.115 NA
ATOM     33  N   UNL     1      -9.378   3.637   4.379  0.00  0.00    -0.023 NA
ATOM     34  N   UNL     1      -9.955   4.534   3.659  0.00  0.00    -0.044 NA
ATOM     35  N   UNL     1      -9.621   4.356   2.425  0.00  0.00    -0.228 N 
BRANCH  35  36
ATOM     36  C   UNL     1     -10.053   5.162   1.281  0.00  0.00    +0.178 C 
BRANCH  36  37
ATOM     37  C   UNL     1     -11.344   4.577   0.704  0.00  0.00    +0.140 C 
ATOM     38  C   UNL     1     -11.848   5.447  -0.475  0.00  0.00    +0.035 C 
ATOM     39  C   UNL     1     -12.683   4.409  -1.272  0.00  0.00    +0.031 C 
ATOM     40  C   UNL     1     -11.887   3.105  -1.045  0.00  0.00    +0.160 C 
ATOM     41  O   UNL     1     -11.093   3.283   0.133  0.00  0.00    -0.375 OA
ENDBRANCH  36  37
ENDBRANCH  35  36
ENDBRANCH   1  31
TORSDOF 6
