REMARK  Name = ZINC36015806
REMARK  15 active torsions:
REMARK  status: ('A' for Active; 'I' for Inactive)
REMARK    1  A    between atoms: C_1  and  C_2
REMARK    2  A    between atoms: C_4  and  C_34
REMARK    3  A    between atoms: C_5  and  C_9
REMARK    4  A    between atoms: C_6  and  C_8
REMARK    5  A    between atoms: C_11  and  C_14
REMARK    6  A    between atoms: N_16  and  C_17
REMARK    7  A    between atoms: N_16  and  C_27
REMARK    8  A    between atoms: C_17  and  C_18
REMARK    9  A    between atoms: C_18  and  C_19
REMARK   10  A    between atoms: N_21  and  C_22
REMARK   11  A    between atoms: C_22  and  C_23
REMARK   12  A    between atoms: C_23  and  N_24
REMARK   13  A    between atoms: N_24  and  C_25
REMARK   14  A    between atoms: N_24  and  C_26
REMARK   15  A    between atoms: C_27  and  C_28
REMARK                            x       y       z     vdW  Elec       q    Type
REMARK                         _______ _______ _______ _____ _____    ______ ____
ROOT
ATOM      1  C   UNL     1       1.272  -7.583   0.789  0.00  0.00    +0.268 C 
ATOM      2  O   UNL     1       0.510  -6.671   0.537  0.00  0.00    -0.268 OA
ATOM      3  N   UNL     1       1.049  -8.809   0.276  0.00  0.00    -0.293 N 
ENDROOT
BRANCH   1   6
ATOM      4  C   UNL     1       3.984  -6.305   2.917  0.00  0.00    +0.168 A 
ATOM      5  C   UNL     1       2.873  -6.097   2.162  0.00  0.00    +0.086 A 
ATOM      6  C   UNL     1       2.449  -7.347   1.661  0.00  0.00    +0.168 A 
ATOM      7  N   UNL     1       3.277  -8.263   2.103  0.00  0.00    -0.073 NA
ATOM      8  O   UNL     1       4.260  -7.622   2.896  0.00  0.00    -0.354 OA
BRANCH   4  13
ATOM      9  C   UNL     1       6.995  -2.262   5.694  0.00  0.00    +0.044 C 
ATOM     10  C   UNL     1       6.207  -3.321   4.966  0.00  0.00    -0.050 A 
ATOM     11  C   UNL     1       5.546  -4.302   5.684  0.00  0.00    +0.007 A 
ATOM     12  C   UNL     1       4.823  -5.274   5.024  0.00  0.00    -0.039 A 
ATOM     13  C   UNL     1       4.757  -5.266   3.630  0.00  0.00    +0.026 A 
ATOM     14  C   UNL     1       5.425  -4.272   2.913  0.00  0.00    -0.039 A 
ATOM     15  C   UNL     1       6.141  -3.303   3.585  0.00  0.00    +0.007 A 
ATOM     16  C   UNL     1       5.360  -4.255   1.407  0.00  0.00    +0.044 C 
ATOM     17  C   UNL     1       4.105  -6.343   5.808  0.00  0.00    +0.044 C 
ENDBRANCH   4  13
ENDBRANCH   1   6
BRANCH   3  18
ATOM     18  C   UNL     1       1.917  -9.929   0.650  0.00  0.00    +0.117 C 
BRANCH  18  19
ATOM     19  C   UNL     1       1.443 -10.521   1.978  0.00  0.00    +0.114 C 
BRANCH  19  20
ATOM     20  C   UNL     1       2.336 -11.672   2.363  0.00  0.00    +0.214 C 
ATOM     21  O   UNL     1       3.260 -11.988   1.644  0.00  0.00    -0.276 OA
ATOM     22  N   UNL     1       2.107 -12.351   3.504  0.00  0.00    -0.317 N 
ATOM     23  H   UNL     1       1.367 -12.098   4.079  0.00  0.00    +0.149 HD
BRANCH  22  24
ATOM     24  C   UNL     1       2.975 -13.470   3.878  0.00  0.00    +0.085 C 
BRANCH  24  25
ATOM     25  C   UNL     1       2.501 -14.062   5.207  0.00  0.00    -0.061 C 
BRANCH  25  26
ATOM     26  N   UNL     1       3.371 -15.185   5.581  0.00  0.00    +0.377 N 
ATOM     27  C   UNL     1       2.991 -15.676   6.912  0.00  0.00    -0.097 C 
ATOM     28  C   UNL     1       3.224 -16.267   4.599  0.00  0.00    -0.097 C 
ATOM     29  H   UNL     1       4.331 -14.874   5.599  0.00  0.00    -0.083 HD
ENDBRANCH  25  26
ENDBRANCH  24  25
ENDBRANCH  22  24
ENDBRANCH  19  20
ENDBRANCH  18  19
ENDBRANCH   3  18
BRANCH   3  30
ATOM     30  C   UNL     1      -0.062  -9.023  -0.655  0.00  0.00    +0.139 C 
BRANCH  30  31
ATOM     31  C   UNL     1       0.400  -8.713  -2.080  0.00  0.00    +0.136 C 
ATOM     32  C   UNL     1      -0.771  -8.899  -3.077  0.00  0.00    +0.035 C 
ATOM     33  C   UNL     1      -0.324  -7.964  -4.234  0.00  0.00    +0.031 C 
ATOM     34  C   UNL     1       0.390  -6.824  -3.477  0.00  0.00    +0.160 C 
ATOM     35  O   UNL     1       0.776  -7.331  -2.193  0.00  0.00    -0.375 OA
ENDBRANCH  30  31
ENDBRANCH   3  30
TORSDOF 10
