REMARK  Name = ZINC11616267
REMARK  10 active torsions:
REMARK  status: ('A' for Active; 'I' for Inactive)
REMARK    1  A    between atoms: C_1  and  C_2
REMARK    2  A    between atoms: C_17  and  C_35
REMARK    3  A    between atoms: C_19  and  O_33
REMARK    4  A    between atoms: C_22  and  C_32
REMARK    5  A    between atoms: C_23  and  C_24
REMARK    6  A    between atoms: C_23  and  O_31
REMARK    7  A    between atoms: C_24  and  C_26
REMARK    8  A    between atoms: C_26  and  O_27
REMARK    9  A    between atoms: O_27  and  C_28
REMARK   10  A    between atoms: C_28  and  C_30
REMARK                            x       y       z     vdW  Elec       q    Type
REMARK                         _______ _______ _______ _____ _____    ______ ____
ROOT
ATOM      1  C   UNL     1      -0.717   0.563  -2.212  0.00  0.00    +0.011 C 
ATOM      2  C   UNL     1      -0.682   1.610  -1.100  0.00  0.00    +0.026 C 
ATOM      3  C   UNL     1       0.030   1.051   0.162  0.00  0.00    +0.011 C 
ATOM      4  C   UNL     1      -0.819   1.643   1.298  0.00  0.00    +0.005 C 
ATOM      5  C   UNL     1      -0.580   1.152   2.685  0.00  0.00    +0.034 C 
ATOM      6  C   UNL     1       0.082  -0.216   2.817  0.00  0.00    +0.011 C 
ATOM      7  C   UNL     1       0.612  -0.327   4.249  0.00  0.00    +0.032 C 
ATOM      8  C   UNL     1      -0.196   0.471   5.238  0.00  0.00    -0.053 C 
ATOM      9  C   UNL     1       0.345   0.641   6.457  0.00  0.00    +0.051 C 
ATOM     10  C   UNL     1      -0.367   1.456   7.464  0.00  0.00    +0.179 C 
ATOM     11  O   UNL     1      -0.082   1.376   8.655  0.00  0.00    -0.288 OA
ATOM     12  C   UNL     1      -1.411   2.392   6.990  0.00  0.00    +0.047 C 
ATOM     13  C   UNL     1      -1.920   2.223   5.758  0.00  0.00    -0.009 C 
ATOM     14  C   UNL     1      -1.553   1.024   4.957  0.00  0.00    +0.044 C 
ATOM     15  C   UNL     1      -1.883   1.106   3.490  0.00  0.00    +0.153 C 
ATOM     16  C   UNL     1      -2.774   2.264   3.079  0.00  0.00    +0.154 C 
ATOM     17  C   UNL     1      -3.305   2.020   1.651  0.00  0.00    +0.044 C 
ATOM     18  C   UNL     1      -2.246   1.422   0.767  0.00  0.00    +0.010 C 
ATOM     19  C   UNL     1      -2.121   1.989  -0.660  0.00  0.00    +0.135 C 
ATOM     20  C   UNL     1      -2.544  -0.079   0.582  0.00  0.00    +0.015 C 
ATOM     21  F   UNL     1      -2.548  -0.088   3.213  0.00  0.00    -0.238 F 
ATOM     22  C   UNL     1      -2.504  -0.072   5.466  0.00  0.00    +0.023 C 
ENDROOT
BRANCH  19  23
ATOM     23  C   UNL     1      -2.286   3.481  -0.690  0.00  0.00    +0.202 C 
ATOM     24  O   UNL     1      -2.009   4.139   0.283  0.00  0.00    -0.291 OA
BRANCH  23  25
ATOM     25  C   UNL     1      -2.799   4.157  -1.936  0.00  0.00    +0.309 C 
BRANCH  25  26
ATOM     26  O   UNL     1      -2.869   5.590  -1.715  0.00  0.00    -0.457 OA
BRANCH  26  27
ATOM     27  C   UNL     1      -3.309   6.343  -2.735  0.00  0.00    +0.304 C 
ATOM     28  O   UNL     1      -3.625   5.822  -3.778  0.00  0.00    -0.251 OA
ATOM     29  C   UNL     1      -3.409   7.839  -2.579  0.00  0.00    +0.136 C 
ENDBRANCH  26  27
ENDBRANCH  25  26
ENDBRANCH  23  25
ENDBRANCH  19  23
BRANCH  19  30
ATOM     30  O   UNL     1      -3.079   1.357  -1.510  0.00  0.00    -0.380 OA
ATOM     31  H   UNL     1      -3.014   1.619  -2.439  0.00  0.00    +0.211 HD
ENDBRANCH  19  30
BRANCH  16  32
ATOM     32  O   UNL     1      -2.046   3.495   3.114  0.00  0.00    -0.389 OA
ATOM     33  H   UNL     1      -2.570   4.269   2.869  0.00  0.00    +0.210 HD
ENDBRANCH  16  32
TORSDOF 6
