REMARK  Name = ZINC59310058
REMARK  7 active torsions:
REMARK  status: ('A' for Active; 'I' for Inactive)
REMARK    1  A    between atoms: C_14  and  C_15
REMARK    2  A    between atoms: N_16  and  N_17
REMARK    3  A    between atoms: C_20  and  S_23
REMARK    4  A    between atoms: S_23  and  C_24
REMARK    5  A    between atoms: C_24  and  C_25
REMARK    6  A    between atoms: N_27  and  C_28
REMARK    7  A    between atoms: C_33  and  N_34
REMARK                            x       y       z     vdW  Elec       q    Type
REMARK                         _______ _______ _______ _____ _____    ______ ____
ROOT
ATOM      1  N   UNL     1       7.308   0.385  -0.016  0.00  0.00    -0.205 N 
ATOM      2  C   UNL     1       8.529  -0.256   0.078  0.00  0.00    +0.232 A 
ATOM      3  N   UNL     1       8.715  -1.556   0.177  0.00  0.00    -0.186 NA
ATOM      4  C   UNL     1      10.024  -1.818   0.248  0.00  0.00    +0.211 A 
ATOM      5  N   UNL     1      10.689  -0.688   0.195  0.00  0.00    -0.144 NA
ATOM      6  N   UNL     1       9.741   0.340   0.080  0.00  0.00    -0.245 N 
ATOM      7  H   UNL     1       7.272   1.352  -0.090  0.00  0.00    +0.177 HD
ATOM      8  H   UNL     1       9.920   1.291   0.016  0.00  0.00    +0.192 HD
ENDROOT
BRANCH   1  10
ATOM      9  C   UNL     1       4.972   0.243  -0.095  0.00  0.00    +0.139 C 
ATOM     10  N   UNL     1       6.122  -0.361  -0.006  0.00  0.00    -0.188 NA
BRANCH   9  24
ATOM     11  C   UNL     1       3.828  -4.732  -0.122  0.00  0.00    +0.001 A 
ATOM     12  C   UNL     1       5.010  -3.994  -0.133  0.00  0.00    +0.001 A 
ATOM     13  C   UNL     1       5.002  -2.634  -0.121  0.00  0.00    +0.009 A 
ATOM     14  C   UNL     1       3.776  -1.947  -0.097  0.00  0.00    -0.009 A 
ATOM     15  C   UNL     1       2.532  -2.720  -0.086  0.00  0.00    -0.017 A 
ATOM     16  C   UNL     1       2.611  -4.130  -0.099  0.00  0.00    +0.008 A 
ATOM     17  C   UNL     1       1.298  -2.070  -0.063  0.00  0.00    +0.017 A 
ATOM     18  C   UNL     1       1.245  -0.675  -0.050  0.00  0.00    -0.017 A 
ATOM     19  C   UNL     1       0.009   0.005  -0.026  0.00  0.00    +0.008 A 
ATOM     20  C   UNL     1      -0.008   1.363  -0.013  0.00  0.00    +0.001 A 
ATOM     21  C   UNL     1       1.169   2.110  -0.024  0.00  0.00    +0.001 A 
ATOM     22  C   UNL     1       2.391   1.515  -0.047  0.00  0.00    +0.009 A 
ATOM     23  C   UNL     1       2.480   0.112  -0.061  0.00  0.00    -0.009 A 
ATOM     24  C   UNL     1       3.732  -0.538  -0.084  0.00  0.00    +0.010 A 
ENDBRANCH   9  24
ENDBRANCH   1  10
BRANCH   4  25
ATOM     25  S   UNL     1      10.741  -3.422   0.390  0.00  0.00    -0.075 S 
BRANCH  25  26
ATOM     26  C   UNL     1      12.526  -3.103   0.439  0.00  0.00    +0.173 C 
BRANCH  26  27
ATOM     27  C   UNL     1      13.267  -4.409   0.560  0.00  0.00    +0.228 C 
ATOM     28  O   UNL     1      12.651  -5.453   0.609  0.00  0.00    -0.275 OA
ATOM     29  N   UNL     1      14.613  -4.418   0.615  0.00  0.00    -0.283 N 
ATOM     30  H   UNL     1      15.102  -3.581   0.654  0.00  0.00    +0.155 HD
BRANCH  29  31
ATOM     31  C   UNL     1      15.306  -5.633   0.614  0.00  0.00    +0.064 A 
ATOM     32  C   UNL     1      14.823  -6.709  -0.120  0.00  0.00    +0.025 A 
ATOM     33  C   UNL     1      15.509  -7.908  -0.119  0.00  0.00    +0.002 A 
ATOM     34  C   UNL     1      16.675  -8.038   0.613  0.00  0.00    +0.002 A 
ATOM     35  C   UNL     1      17.158  -6.969   1.345  0.00  0.00    +0.034 A 
ATOM     36  C   UNL     1      16.480  -5.766   1.343  0.00  0.00    +0.147 A 
BRANCH  36  37
ATOM     37  N   UNL     1      17.002  -4.620   2.122  0.00  0.00    +0.058 N 
ATOM     38  O   UNL     1      17.974  -4.761   2.827  0.00  0.00    -0.126 OA
ATOM     39  O   UNL     1      16.456  -3.544   2.053  0.00  0.00    -0.126 OA
ENDBRANCH  36  37
ENDBRANCH  29  31
ENDBRANCH  26  27
ENDBRANCH  25  26
ENDBRANCH   4  25
TORSDOF 7
