REMARK  Name = ZINC32510551
REMARK  7 active torsions:
REMARK  status: ('A' for Active; 'I' for Inactive)
REMARK    1  A    between atoms: C_4  and  C_7
REMARK    2  A    between atoms: C_7  and  C_8
REMARK    3  A    between atoms: C_7  and  N_14
REMARK    4  A    between atoms: N_14  and  C_15
REMARK    5  A    between atoms: C_15  and  C_16
REMARK    6  A    between atoms: C_19  and  C_29
REMARK    7  A    between atoms: C_22  and  C_24
REMARK                            x       y       z     vdW  Elec       q    Type
REMARK                         _______ _______ _______ _____ _____    ______ ____
ROOT
ATOM      1  C   UNL     1       1.864   5.446  -1.374  0.00  0.00    +0.018 C 
ENDROOT
BRANCH   1   2
ATOM      2  C   UNL     1       2.957   5.934  -2.290  0.00  0.00    +0.218 C 
ATOM      3  O   UNL     1       3.919   5.229  -2.515  0.00  0.00    -0.276 OA
ATOM      4  N   UNL     1       2.866   7.152  -2.859  0.00  0.00    -0.184 N 
ATOM      5  C   UNL     1       3.861   7.750  -3.764  0.00  0.00    +0.173 C 
ATOM      6  C   UNL     1       3.257   9.126  -4.108  0.00  0.00    +0.093 C 
ATOM      7  C   UNL     1       1.959   9.159  -3.333  0.00  0.00    +0.104 C 
ATOM      8  N   UNL     1       1.818   8.053  -2.682  0.00  0.00    -0.178 NA
BRANCH   7   9
ATOM      9  C   UNL     1       1.007  10.274  -3.324  0.00  0.00    +0.150 A 
ATOM     10  C   UNL     1      -0.170  10.317  -2.635  0.00  0.00    +0.051 A 
ATOM     11  C   UNL     1      -0.755  11.567  -2.911  0.00  0.00    +0.042 A 
ATOM     12  C   UNL     1       0.077  12.217  -3.751  0.00  0.00    +0.196 A 
ATOM     13  O   UNL     1       1.139  11.434  -3.998  0.00  0.00    -0.462 OA
ENDBRANCH   7   9
BRANCH   5  14
ATOM     14  C   UNL     1       4.015   6.915  -5.009  0.00  0.00    +0.128 A 
ATOM     15  C   UNL     1       5.170   6.668  -5.652  0.00  0.00    +0.046 A 
ATOM     16  C   UNL     1       4.854   5.848  -6.759  0.00  0.00    +0.041 A 
ATOM     17  C   UNL     1       3.525   5.643  -6.727  0.00  0.00    +0.195 A 
ATOM     18  O   UNL     1       3.023   6.288  -5.661  0.00  0.00    -0.466 OA
ENDBRANCH   5  14
ENDBRANCH   1   2
BRANCH   1  19
ATOM     19  N   UNL     1       2.196   4.101  -0.888  0.00  0.00    +0.392 N 
ATOM     20  H   UNL     1       3.153   4.148  -0.346  0.00  0.00    -0.084 HD
ATOM     21  H   UNL     1       2.297   3.428  -1.752  0.00  0.00    -0.084 HD
BRANCH  19  22
ATOM     22  C   UNL     1       1.151   3.592   0.010  0.00  0.00    -0.009 C 
BRANCH  22  26
ATOM     23  C   UNL     1       1.208  -0.679  -0.013  0.00  0.00    +0.000 A 
ATOM     24  C   UNL     1       0.002  -0.004   0.002  0.00  0.00    +0.000 A 
ATOM     25  C   UNL     1      -0.017   1.378   0.010  0.00  0.00    +0.002 A 
ATOM     26  C   UNL     1       1.171   2.086   0.002  0.00  0.00    -0.057 A 
ATOM     27  C   UNL     1       2.377   1.411  -0.015  0.00  0.00    +0.002 A 
ATOM     28  C   UNL     1       2.396   0.029  -0.022  0.00  0.00    +0.000 A 
ENDBRANCH  22  26
BRANCH  22  29
ATOM     29  C   UNL     1       1.403   4.091   1.409  0.00  0.00    -0.057 A 
ATOM     30  C   UNL     1       2.693   4.135   1.905  0.00  0.00    +0.002 A 
ATOM     31  C   UNL     1       2.926   4.596   3.187  0.00  0.00    +0.000 A 
ATOM     32  C   UNL     1       1.868   5.005   3.977  0.00  0.00    +0.000 A 
ATOM     33  C   UNL     1       0.577   4.956   3.483  0.00  0.00    +0.000 A 
ATOM     34  C   UNL     1       0.345   4.499   2.200  0.00  0.00    +0.002 A 
ENDBRANCH  22  29
ENDBRANCH  19  22
ENDBRANCH   1  19
TORSDOF 7
