REMARK  Name = ZINC05616416
REMARK  8 active torsions:
REMARK  status: ('A' for Active; 'I' for Inactive)
REMARK    1  A    between atoms: C_3  and  N_21
REMARK    2  A    between atoms: C_6  and  N_7
REMARK    3  A    between atoms: N_7  and  C_8
REMARK    4  A    between atoms: C_8  and  C_9
REMARK    5  A    between atoms: C_9  and  C_10
REMARK    6  A    between atoms: C_10  and  N_11
REMARK    7  A    between atoms: C_12  and  C_13
REMARK    8  A    between atoms: C_18  and  O_19
REMARK                            x       y       z     vdW  Elec       q    Type
REMARK                         _______ _______ _______ _____ _____    ______ ____
ROOT
ATOM      1  C   UNL     1       2.263  -4.298  -0.042  0.00  0.00    +0.039 C 
ENDROOT
BRANCH   1   2
ATOM      2  C   UNL     1       2.518  -2.789  -0.036  0.00  0.00    +0.103 C 
BRANCH   2   3
ATOM      3  N   UNL     1       1.238  -2.077  -0.020  0.00  0.00    -0.344 N 
ATOM      4  H   UNL     1       0.294  -2.643  -0.014  0.00  0.00    +0.146 HD
BRANCH   3  10
ATOM      5  C   UNL     1       0.002  -0.004   0.002  0.00  0.00    +0.025 A 
ATOM      6  C   UNL     1      -0.017   1.377   0.010  0.00  0.00    +0.034 A 
ATOM      7  C   UNL     1       1.171   2.086   0.002  0.00  0.00    +0.126 A 
ATOM      8  C   UNL     1       2.380   1.416  -0.013  0.00  0.00    +0.034 A 
ATOM      9  C   UNL     1       2.406   0.035  -0.021  0.00  0.00    +0.025 A 
ATOM     10  C   UNL     1       1.215  -0.681  -0.013  0.00  0.00    +0.027 A 
BRANCH   7  11
ATOM     11  N   UNL     1       1.147   3.566   0.010  0.00  0.00    +0.056 N 
ATOM     12  O   UNL     1       0.082   4.158   0.024  0.00  0.00    -0.126 OA
ATOM     13  O   UNL     1       2.191   4.192   0.004  0.00  0.00    -0.126 OA
ENDBRANCH   7  11
ENDBRANCH   3  10
ENDBRANCH   2   3
ENDBRANCH   1   2
BRANCH   1  14
ATOM     14  C   UNL     1       3.600  -5.041  -0.058  0.00  0.00    +0.114 C 
BRANCH  14  15
ATOM     15  N   UNL     1       3.356  -6.485  -0.063  0.00  0.00    -0.390 N 
ATOM     16  C   UNL     1       3.705  -7.197  -1.086  0.00  0.00    +0.089 C 
ATOM     17  H   UNL     1       2.876  -6.965   0.802  0.00  0.00    +0.159 HD
BRANCH  16  18
ATOM     18  C   UNL     1       3.459  -8.650  -1.091  0.00  0.00    +0.033 A 
ATOM     19  C   UNL     1       3.835  -9.423  -2.193  0.00  0.00    +0.028 A 
ATOM     20  C   UNL     1       3.602 -10.782  -2.191  0.00  0.00    +0.019 A 
ATOM     21  C   UNL     1       2.997 -11.386  -1.100  0.00  0.00    +0.019 A 
ATOM     22  C   UNL     1       2.621 -10.633  -0.005  0.00  0.00    +0.047 A 
ATOM     23  C   UNL     1       2.853  -9.266   0.012  0.00  0.00    +0.125 A 
ATOM     24 BR   UNL     1       4.111 -11.826  -3.683  0.00  0.00    -0.050 Br
BRANCH  23  25
ATOM     25  O   UNL     1       2.489  -8.527   1.091  0.00  0.00    -0.506 OA
ATOM     26  H   UNL     1       2.013  -9.013   1.955  0.00  0.00    +0.292 HD
ENDBRANCH  23  25
ENDBRANCH  16  18
ENDBRANCH  14  15
ENDBRANCH   1  14
TORSDOF 8
