REMARK  Name = ZINC51693445
REMARK  5 active torsions:
REMARK  status: ('A' for Active; 'I' for Inactive)
REMARK    1  A    between atoms: C_3  and  S_11
REMARK    2  A    between atoms: C_6  and  N_7
REMARK    3  A    between atoms: S_11  and  N_14
REMARK    4  A    between atoms: N_14  and  C_15
REMARK    5  A    between atoms: C_18  and  N_21
REMARK                            x       y       z     vdW  Elec       q    Type
REMARK                         _______ _______ _______ _____ _____    ______ ____
ROOT
ATOM      1  S   UNL     1       4.022   2.357  -0.073  0.00  0.00    +0.060 S 
ATOM      2  O   UNL     1       5.019   1.891  -0.972  0.00  0.00    -0.153 OA
ATOM      3  O   UNL     1       3.537   3.692  -0.099  0.00  0.00    -0.153 OA
ENDROOT
BRANCH   1   6
ATOM      4  C   UNL     1       1.559  -0.533  -1.388  0.00  0.00    +0.035 A 
ATOM      5  C   UNL     1       2.657   0.291  -1.221  0.00  0.00    +0.032 A 
ATOM      6  C   UNL     1       2.622   1.308  -0.286  0.00  0.00    +0.124 A 
ATOM      7  C   UNL     1       1.488   1.503   0.482  0.00  0.00    +0.069 A 
ATOM      8  C   UNL     1       0.390   0.679   0.314  0.00  0.00    +0.054 A 
ATOM      9  C   UNL     1       0.426  -0.339  -0.621  0.00  0.00    +0.128 A 
ATOM     10 CL   UNL     1       1.444   2.780   1.657  0.00  0.00    -0.081 Cl
BRANCH   9  11
ATOM     11  N   UNL     1      -0.749  -1.220  -0.801  0.00  0.00    +0.056 N 
ATOM     12  O   UNL     1      -0.718  -2.110  -1.619  0.00  0.00    -0.126 OA
ATOM     13  O   UNL     1      -1.741  -1.050  -0.130  0.00  0.00    -0.126 OA
ENDBRANCH   9  11
ENDBRANCH   1   6
BRANCH   1  14
ATOM     14  N   UNL     1       4.603   2.094   1.455  0.00  0.00    -0.187 NA
ATOM     15  H   UNL     1       4.577   2.806   2.113  0.00  0.00    +0.148 HD
BRANCH  14  16
ATOM     16  C   UNL     1       5.155   0.785   1.814  0.00  0.00    +0.076 C 
ATOM     17  C   UNL     1       4.073  -0.056   2.494  0.00  0.00    +0.019 C 
ATOM     18  C   UNL     1       3.592   0.658   3.759  0.00  0.00    -0.015 C 
ATOM     19  C   UNL     1       4.770   0.847   4.717  0.00  0.00    -0.075 C 
ATOM     20  C   UNL     1       5.852   1.688   4.037  0.00  0.00    -0.015 C 
ATOM     21  C   UNL     1       6.333   0.974   2.772  0.00  0.00    +0.019 C 
BRANCH  19  22
ATOM     22  N   UNL     1       4.308   1.532   5.932  0.00  0.00    +0.380 N 
ATOM     23  H   UNL     1       3.595   0.978   6.380  0.00  0.00    -0.090 HD
ATOM     24  H   UNL     1       5.085   1.657   6.564  0.00  0.00    -0.090 HD
ATOM     25  H   UNL     1       3.928   2.434   5.685  0.00  0.00    -0.090 HD
ENDBRANCH  19  22
ENDBRANCH  14  16
ENDBRANCH   1  14
TORSDOF 5
