REMARK  Name = ZINC62039594
REMARK  8 active torsions:
REMARK  status: ('A' for Active; 'I' for Inactive)
REMARK    1  A    between atoms: C_1  and  C_2
REMARK    2  A    between atoms: C_9  and  C_27
REMARK    3  A    between atoms: C_10  and  C_11
REMARK    4  A    between atoms: C_11  and  C_12
REMARK    5  A    between atoms: N_14  and  C_15
REMARK    6  A    between atoms: C_16  and  C_24
REMARK    7  A    between atoms: C_30  and  C_34
REMARK    8  A    between atoms: C_31  and  C_33
REMARK                            x       y       z     vdW  Elec       q    Type
REMARK                         _______ _______ _______ _____ _____    ______ ____
ROOT
ATOM      1  C   UNL     1      -0.265  -5.206  -0.784  0.00  0.00    +0.152 C 
ENDROOT
BRANCH   1  11
ATOM      2  C   UNL     1       0.882   1.419  -0.039  0.00  0.00    +0.044 C 
ATOM      3  C   UNL     1       0.622  -0.065  -0.032  0.00  0.00    -0.046 A 
ATOM      4  C   UNL     1       0.519  -0.769  -1.243  0.00  0.00    +0.021 A 
ATOM      5  C   UNL     1       0.287  -2.099  -1.240  0.00  0.00    +0.093 A 
ATOM      6  N   UNL     1       0.149  -2.778  -0.064  0.00  0.00    -0.303 N 
ATOM      7  C   UNL     1       0.245  -2.118   1.135  0.00  0.00    +0.139 A 
ATOM      8  C   UNL     1       0.492  -0.730   1.148  0.00  0.00    +0.050 A 
ATOM      9  N   UNL     1       0.075  -2.999   2.109  0.00  0.00    -0.228 NA
ATOM     10  C   UNL     1      -0.129  -4.213   1.574  0.00  0.00    +0.093 A 
ATOM     11  C   UNL     1      -0.086  -4.095   0.217  0.00  0.00    +0.060 A 
BRANCH  10  12
ATOM     12  C   UNL     1      -0.361  -5.469   2.330  0.00  0.00    +0.002 A 
ATOM     13  C   UNL     1       0.267  -6.649   1.936  0.00  0.00    +0.010 A 
ATOM     14  C   UNL     1       0.048  -7.814   2.642  0.00  0.00    +0.004 A 
ATOM     15  C   UNL     1      -0.793  -7.811   3.740  0.00  0.00    -0.047 A 
ATOM     16  C   UNL     1      -1.419  -6.644   4.136  0.00  0.00    -0.047 A 
ATOM     17  C   UNL     1      -1.203  -5.471   3.440  0.00  0.00    +0.013 A 
ATOM     18  C   UNL     1      -2.335  -6.649   5.333  0.00  0.00    +0.044 C 
ATOM     19  C   UNL     1      -1.029  -9.087   4.508  0.00  0.00    +0.044 C 
ENDBRANCH  10  12
ENDBRANCH   1  11
BRANCH   1  20
ATOM     20  C   UNL     1       1.086  -5.732  -1.197  0.00  0.00    +0.223 C 
ATOM     21  O   UNL     1       2.094  -5.251  -0.725  0.00  0.00    -0.275 OA
ATOM     22  N   UNL     1       1.174  -6.736  -2.092  0.00  0.00    -0.279 N 
ATOM     23  H   UNL     1       0.367  -7.121  -2.470  0.00  0.00    +0.155 HD
BRANCH  22  24
ATOM     24  C   UNL     1       2.416  -7.220  -2.472  0.00  0.00    +0.084 A 
ATOM     25  C   UNL     1       2.697  -8.233  -3.374  0.00  0.00    +0.068 A 
ATOM     26  C   UNL     1       4.095  -8.554  -3.600  0.00  0.00    -0.023 A 
ATOM     27  C   UNL     1       4.957  -7.803  -2.881  0.00  0.00    -0.004 A 
ATOM     28  S   UNL     1       3.928  -6.707  -1.950  0.00  0.00    -0.077 S 
ATOM     29  C   UNL     1       6.452  -7.891  -2.890  0.00  0.00    +0.043 C 
ATOM     30  C   UNL     1       6.852  -9.217  -3.554  0.00  0.00    +0.005 C 
ATOM     31  C   UNL     1       6.067  -9.374  -4.860  0.00  0.00    +0.005 C 
ATOM     32  C   UNL     1       4.591  -9.632  -4.552  0.00  0.00    +0.037 C 
BRANCH  25  33
ATOM     33  C   UNL     1       1.626  -8.953  -4.072  0.00  0.00    +0.244 C 
ATOM     34  O   UNL     1       1.218  -8.545  -5.144  0.00  0.00    -0.270 OA
ATOM     35  N   UNL     1       1.095 -10.065  -3.527  0.00  0.00    -0.325 N 
ATOM     36  H   UNL     1       1.420 -10.389  -2.673  0.00  0.00    +0.145 HD
ATOM     37  H   UNL     1       0.387 -10.540  -3.988  0.00  0.00    +0.145 HD
ENDBRANCH  25  33
ENDBRANCH  22  24
ENDBRANCH   1  20
TORSDOF 5
