REMARK  Name = ZINC20701053
REMARK  5 active torsions:
REMARK  status: ('A' for Active; 'I' for Inactive)
REMARK    1  A    between atoms: C_4  and  N_7
REMARK    2  A    between atoms: N_7  and  S_8
REMARK    3  A    between atoms: S_8  and  C_11
REMARK    4  A    between atoms: C_24  and  C_27
REMARK    5  A    between atoms: C_32  and  O_33
REMARK                            x       y       z     vdW  Elec       q    Type
REMARK                         _______ _______ _______ _____ _____    ______ ____
ROOT
ATOM      1  C   UNL     1       2.065   6.869   2.079  0.00  0.00    +0.109 A 
ATOM      2  C   UNL     1       2.093   7.379   0.794  0.00  0.00    +0.030 A 
ATOM      3  C   UNL     1       2.372   6.551  -0.274  0.00  0.00    +0.025 A 
ATOM      4  C   UNL     1       2.624   5.200  -0.068  0.00  0.00    +0.031 A 
ATOM      5  C   UNL     1       2.581   4.688   1.234  0.00  0.00    -0.018 A 
ATOM      6  C   UNL     1       2.309   5.525   2.295  0.00  0.00    +0.034 A 
ATOM      7  C   UNL     1       2.826   3.240   1.406  0.00  0.00    +0.049 C 
ATOM      8  C   UNL     1       3.386   2.681   2.663  0.00  0.00    -0.023 C 
ATOM      9  C   UNL     1       4.100   1.602   2.365  0.00  0.00    -0.030 C 
ATOM     10  C   UNL     1       4.098   1.375   0.853  0.00  0.00    +0.033 C 
ATOM     11  C   UNL     1       3.880   2.799   0.343  0.00  0.00    +0.029 C 
ATOM     12  C   UNL     1       3.179   2.937  -0.997  0.00  0.00    +0.109 C 
ATOM     13  N   UNL     1       2.918   4.383  -1.166  0.00  0.00    -0.336 N 
ATOM     14  H   UNL     1       2.952   4.834  -2.169  0.00  0.00    +0.147 HD
ENDROOT
BRANCH  12  15
ATOM     15  C   UNL     1       1.881   2.171  -0.987  0.00  0.00    +0.017 A 
ATOM     16  C   UNL     1       0.691   2.830  -0.747  0.00  0.00    +0.029 A 
ATOM     17  C   UNL     1      -0.501   2.128  -0.737  0.00  0.00    +0.043 A 
ATOM     18  C   UNL     1      -0.504   0.764  -0.968  0.00  0.00    +0.043 A 
ATOM     19  C   UNL     1       0.684   0.100  -1.208  0.00  0.00    +0.084 A 
ATOM     20  C   UNL     1       1.881   0.803  -1.218  0.00  0.00    +0.140 A 
ATOM     21 CL   UNL     1       0.680  -1.612  -1.496  0.00  0.00    -0.080 Cl
ATOM     22 CL   UNL     1      -1.995   2.961  -0.443  0.00  0.00    -0.083 Cl
BRANCH  20  23
ATOM     23  O   UNL     1       3.051   0.153  -1.454  0.00  0.00    -0.505 OA
ATOM     24  H   UNL     1       3.050  -0.932  -1.637  0.00  0.00    +0.292 HD
ENDBRANCH  20  23
ENDBRANCH  12  15
BRANCH   1  25
ATOM     25  S   UNL     1       1.718   7.931   3.442  0.00  0.00    +0.072 S 
ATOM     26  O   UNL     1       1.099   9.091   2.904  0.00  0.00    -0.150 OA
ATOM     27  O   UNL     1       1.098   7.127   4.436  0.00  0.00    -0.150 OA
BRANCH  25  28
ATOM     28  N   UNL     1       3.173   8.417   4.066  0.00  0.00    -0.216 N 
ATOM     29  H   UNL     1       3.452   8.137   5.093  0.00  0.00    +0.174 HD
BRANCH  28  33
ATOM     30  C   UNL     1       5.775  10.699   1.752  0.00  0.00    +0.000 A 
ATOM     31  C   UNL     1       4.637  11.278   2.284  0.00  0.00    +0.002 A 
ATOM     32  C   UNL     1       3.772  10.523   3.052  0.00  0.00    +0.024 A 
ATOM     33  C   UNL     1       4.046   9.182   3.289  0.00  0.00    +0.048 A 
ATOM     34  C   UNL     1       5.192   8.606   2.757  0.00  0.00    +0.024 A 
ATOM     35  C   UNL     1       6.050   9.364   1.986  0.00  0.00    +0.002 A 
ENDBRANCH  28  33
ENDBRANCH  25  28
ENDBRANCH   1  25
TORSDOF 5
