REMARK  Name = ZINC33071212
REMARK  4 active torsions:
REMARK  status: ('A' for Active; 'I' for Inactive)
REMARK    1  A    between atoms: C_3  and  C_6
REMARK    2  A    between atoms: C_6  and  C_7
REMARK    3  A    between atoms: C_7  and  N_8
REMARK    4  A    between atoms: C_9  and  C_11
REMARK                            x       y       z     vdW  Elec       q    Type
REMARK                         _______ _______ _______ _____ _____    ______ ____
ROOT
ATOM      1  C   UNL     1       7.697   3.238   2.554  0.00  0.00    +0.078 C 
ATOM      2  C   UNL     1       8.592   2.239   1.817  0.00  0.00    +0.032 C 
ATOM      3  C   UNL     1      10.026   2.776   1.778  0.00  0.00    +0.108 C 
ATOM      4  N   UNL     1      10.457   3.075   3.150  0.00  0.00    -0.301 N 
ATOM      5  C   UNL     1       9.620   3.954   3.978  0.00  0.00    +0.108 C 
ATOM      6  C   UNL     1       8.191   3.403   3.993  0.00  0.00    +0.032 C 
ATOM      7  C   UNL     1      11.625   2.540   3.652  0.00  0.00    +0.197 A 
ATOM      8  N   UNL     1      12.437   1.753   2.991  0.00  0.00    -0.214 NA
ATOM      9  C   UNL     1      13.488   1.412   3.783  0.00  0.00    +0.092 A 
ATOM     10  C   UNL     1      14.618   0.614   3.587  0.00  0.00    +0.050 A 
ATOM     11  C   UNL     1      15.529   0.456   4.608  0.00  0.00    +0.043 A 
ATOM     12  C   UNL     1      15.332   1.083   5.831  0.00  0.00    +0.022 A 
ATOM     13  C   UNL     1      14.220   1.873   6.039  0.00  0.00    +0.029 A 
ATOM     14  C   UNL     1      13.294   2.044   5.021  0.00  0.00    +0.068 A 
ATOM     15  N   UNL     1      12.110   2.756   4.910  0.00  0.00    -0.326 N 
ATOM     16 CL   UNL     1      16.933  -0.536   4.365  0.00  0.00    -0.083 Cl
ATOM     17  H   UNL     1      11.701   3.304   5.598  0.00  0.00    +0.169 HD
ENDROOT
BRANCH   1  19
ATOM     18  N   UNL     1       5.633   2.506   1.403  0.00  0.00    -0.315 N 
ATOM     19  C   UNL     1       6.279   2.728   2.565  0.00  0.00    +0.216 C 
ATOM     20  O   UNL     1       5.718   2.518   3.620  0.00  0.00    -0.276 OA
ATOM     21  H   UNL     1       6.082   2.674   0.560  0.00  0.00    +0.149 HD
BRANCH  18  22
ATOM     22  C   UNL     1       4.255   2.011   1.414  0.00  0.00    +0.109 C 
BRANCH  22  23
ATOM     23  C   UNL     1       3.761   1.845  -0.024  0.00  0.00    +0.061 C 
BRANCH  23  26
ATOM     24  C   UNL     1      -0.016   1.351   0.009  0.00  0.00    +0.008 A 
ATOM     25  C   UNL     1       1.183   2.038   0.002  0.00  0.00    +0.011 A 
ATOM     26  C   UNL     1       2.343   1.336  -0.013  0.00  0.00    -0.009 A 
ATOM     27  S   UNL     1       1.754  -0.349  -0.017  0.00  0.00    -0.102 S 
ATOM     28  C   UNL     1       0.002  -0.004   0.002  0.00  0.00    +0.045 A 
ENDBRANCH  23  26
ENDBRANCH  22  23
ENDBRANCH  18  22
ENDBRANCH   1  19
TORSDOF 4
