REMARK  Name = ZINC37793793
REMARK  3 active torsions:
REMARK  status: ('A' for Active; 'I' for Inactive)
REMARK    1  A    between atoms: C_7  and  N_10
REMARK    2  A    between atoms: C_11  and  C_13
REMARK    3  A    between atoms: C_19  and  C_21
REMARK                            x       y       z     vdW  Elec       q    Type
REMARK                         _______ _______ _______ _____ _____    ______ ____
ROOT
ATOM      1  N   UNL     1       0.360   0.406  -2.450  0.00  0.00    -0.304 N 
ATOM      2  C   UNL     1       0.188  -0.094  -3.690  0.00  0.00    +0.218 C 
ATOM      3  O   UNL     1       0.369  -1.275  -3.898  0.00  0.00    -0.275 OA
ATOM      4  H   UNL     1       0.215   1.351  -2.284  0.00  0.00    +0.149 HD
ENDROOT
BRANCH   1  11
ATOM      5  C   UNL     1       0.615   1.684  -0.088  0.00  0.00    +0.004 C 
ATOM      6  C   UNL     1       2.056   2.119  -0.278  0.00  0.00    +0.019 C 
ATOM      7  C   UNL     1       2.577   1.694  -1.652  0.00  0.00    +0.104 C 
ATOM      8  N   UNL     1       3.098   0.321  -1.554  0.00  0.00    -0.314 N 
ATOM      9  C   UNL     1       2.262  -0.710  -1.417  0.00  0.00    +0.233 C 
ATOM     10  O   UNL     1       2.701  -1.838  -1.343  0.00  0.00    -0.274 OA
ATOM     11  C   UNL     1       0.767  -0.476  -1.354  0.00  0.00    +0.159 C 
ATOM     12  C   UNL     1       0.434   0.179  -0.011  0.00  0.00    +0.032 C 
ATOM     13  H   UNL     1       4.054   0.164  -1.589  0.00  0.00    +0.149 HD
ENDBRANCH   1  11
BRANCH   2  14
ATOM     14  C   UNL     1      -0.231   0.814  -4.817  0.00  0.00    +0.093 C 
ATOM     15  C   UNL     1      -1.476   0.244  -5.501  0.00  0.00    +0.040 C 
ATOM     16  C   UNL     1      -1.124  -0.998  -6.265  0.00  0.00    -0.030 C 
ATOM     17  C   UNL     1       0.083  -1.329  -6.595  0.00  0.00    -0.030 C 
ATOM     18  C   UNL     1       1.300  -0.522  -6.250  0.00  0.00    +0.042 C 
ATOM     19  C   UNL     1       0.898   0.904  -5.853  0.00  0.00    +0.118 C 
BRANCH  19  20
ATOM     20  C   UNL     1       2.078   1.624  -5.253  0.00  0.00    +0.360 C 
ATOM     21  O   UNL     1       3.208   1.356  -5.625  0.00  0.00    -0.246 OA
ATOM     22  O   UNL     1       1.903   2.474  -4.397  0.00  0.00    -0.246 OA
ENDBRANCH  19  20
ENDBRANCH   2  14
TORSDOF 3
