REMARK  Name = ZINC08628443
REMARK  5 active torsions:
REMARK  status: ('A' for Active; 'I' for Inactive)
REMARK    1  A    between atoms: C_4  and  N_23
REMARK    2  A    between atoms: C_5  and  C_7
REMARK    3  A    between atoms: N_8  and  N_9
REMARK    4  A    between atoms: C_10  and  C_12
REMARK    5  A    between atoms: C_12  and  C_13
REMARK                            x       y       z     vdW  Elec       q    Type
REMARK                         _______ _______ _______ _____ _____    ______ ____
ROOT
ATOM      1  N   UNL     1      -2.328   4.169   1.923  0.00  0.00    -0.207 N 
ATOM      2  C   UNL     1      -1.109   3.647   1.686  0.00  0.00    +0.237 C 
ATOM      3  O   UNL     1      -0.610   2.884   2.487  0.00  0.00    -0.274 OA
ATOM      4  H   UNL     1      -2.727   4.779   1.282  0.00  0.00    +0.177 HD
ENDROOT
BRANCH   1   6
ATOM      5  C   UNL     1      -4.237   4.246   3.269  0.00  0.00    +0.140 C 
ATOM      6  N   UNL     1      -3.020   3.832   3.093  0.00  0.00    -0.188 NA
BRANCH   5  11
ATOM      7  C   UNL     1      -5.349   5.179  -0.192  0.00  0.00    +0.001 A 
ATOM      8  C   UNL     1      -6.322   6.123   0.084  0.00  0.00    +0.002 A 
ATOM      9  C   UNL     1      -6.620   6.457   1.393  0.00  0.00    +0.033 A 
ATOM     10  C   UNL     1      -5.946   5.852   2.434  0.00  0.00    +0.135 A 
ATOM     11  C   UNL     1      -4.962   4.898   2.163  0.00  0.00    +0.025 A 
ATOM     12  C   UNL     1      -4.663   4.569   0.838  0.00  0.00    +0.012 A 
BRANCH  10  13
ATOM     13  N   UNL     1      -6.265   6.211   3.834  0.00  0.00    +0.057 N 
ATOM     14  O   UNL     1      -7.061   7.102   4.067  0.00  0.00    -0.126 OA
ATOM     15  O   UNL     1      -5.731   5.615   4.752  0.00  0.00    -0.126 OA
ENDBRANCH  10  13
ENDBRANCH   5  11
ENDBRANCH   1   6
BRANCH   2  16
ATOM     16  C   UNL     1      -0.364   4.009   0.427  0.00  0.00    +0.134 C 
BRANCH  16  17
ATOM     17  C   UNL     1       0.964   3.296   0.406  0.00  0.00    -0.014 A 
ATOM     18  C   UNL     1       2.143   3.792   0.814  0.00  0.00    +0.087 A 
ATOM     19  N   UNL     1       3.127   2.858   0.638  0.00  0.00    -0.360 N 
ATOM     20  H   UNL     1       4.062   2.986   0.860  0.00  0.00    +0.165 HD
ATOM     21  C   UNL     1       2.592   1.710   0.098  0.00  0.00    +0.047 A 
ATOM     22  C   UNL     1       1.213   1.934  -0.071  0.00  0.00    +0.003 A 
ATOM     23  C   UNL     1       0.404   0.930  -0.606  0.00  0.00    +0.010 A 
ATOM     24  C   UNL     1       0.957  -0.268  -0.963  0.00  0.00    +0.001 A 
ATOM     25  C   UNL     1       2.316  -0.494  -0.798  0.00  0.00    +0.002 A 
ATOM     26  C   UNL     1       3.133   0.483  -0.272  0.00  0.00    +0.026 A 
ENDBRANCH  16  17
ENDBRANCH   2  16
TORSDOF 5
