REMARK  Name = ZINC20925967
REMARK  11 active torsions:
REMARK  status: ('A' for Active; 'I' for Inactive)
REMARK    1  A    between atoms: C_1  and  C_2
REMARK    2  A    between atoms: C_2  and  C_3
REMARK    3  A    between atoms: C_3  and  O_4
REMARK    4  A    between atoms: O_4  and  C_5
REMARK    5  A    between atoms: C_8  and  C_12
REMARK    6  A    between atoms: C_12  and  N_13
REMARK    7  A    between atoms: N_13  and  C_14
REMARK    8  A    between atoms: C_14  and  C_15
REMARK    9  A    between atoms: C_15  and  N_16
REMARK   10  A    between atoms: N_16  and  C_17
REMARK   11  A    between atoms: C_20  and  N_23
REMARK                            x       y       z     vdW  Elec       q    Type
REMARK                         _______ _______ _______ _____ _____    ______ ____
ROOT
ATOM      1  N   UNL     1      -2.995   4.112  -1.333  0.00  0.00    +0.383 N 
ATOM      2  H   UNL     1      -2.242   4.721  -1.855  0.00  0.00    -0.085 HD
ATOM      3  H   UNL     1      -3.116   3.152  -1.856  0.00  0.00    -0.085 HD
ENDROOT
BRANCH   1   4
ATOM      4  C   UNL     1      -2.554   3.866   0.046  0.00  0.00    -0.047 C 
BRANCH   4   8
ATOM      5  C   UNL     1       1.179   1.786   0.000  0.00  0.00    +0.134 A 
ATOM      6  C   UNL     1      -0.013   1.076   0.008  0.00  0.00    +0.047 A 
ATOM      7  C   UNL     1      -1.218   1.751   0.017  0.00  0.00    +0.005 A 
ATOM      8  C   UNL     1      -1.238   3.133   0.030  0.00  0.00    -0.063 A 
ATOM      9  C   UNL     1      -0.052   3.844   0.023  0.00  0.00    +0.020 A 
ATOM     10  C   UNL     1       1.157   3.174   0.008  0.00  0.00    +0.060 A 
ATOM     11 BR   UNL     1       2.778   4.147  -0.003  0.00  0.00    -0.047 Br
BRANCH   5  12
ATOM     12  O   UNL     1       2.366   1.124  -0.015  0.00  0.00    -0.491 OA
BRANCH  12  13
ATOM     13  C   UNL     1       2.313  -0.304  -0.023  0.00  0.00    +0.229 C 
BRANCH  13  15
ATOM     14  C   UNL     1       3.678  -2.396  -0.048  0.00  0.00    +0.007 C 
ATOM     15  C   UNL     1       3.735  -0.867  -0.040  0.00  0.00    +0.038 C 
ENDBRANCH  13  15
ENDBRANCH  12  13
ENDBRANCH   5  12
ENDBRANCH   4   8
ENDBRANCH   1   4
BRANCH   1  16
ATOM     16  C   UNL     1      -4.278   4.827  -1.357  0.00  0.00    -0.063 C 
BRANCH  16  17
ATOM     17  C   UNL     1      -4.703   5.064  -2.807  0.00  0.00    +0.082 C 
BRANCH  17  18
ATOM     18  N   UNL     1      -5.983   5.777  -2.831  0.00  0.00    -0.346 N 
ATOM     19  H   UNL     1      -6.477   6.051  -1.887  0.00  0.00    +0.146 HD
BRANCH  18  20
ATOM     20  C   UNL     1      -6.576   6.107  -4.051  0.00  0.00    +0.027 A 
ATOM     21  C   UNL     1      -5.951   5.766  -5.244  0.00  0.00    +0.025 A 
ATOM     22  C   UNL     1      -6.543   6.089  -6.449  0.00  0.00    +0.034 A 
ATOM     23  C   UNL     1      -7.751   6.762  -6.470  0.00  0.00    +0.126 A 
ATOM     24  C   UNL     1      -8.373   7.108  -5.284  0.00  0.00    +0.034 A 
ATOM     25  C   UNL     1      -7.789   6.783  -4.075  0.00  0.00    +0.025 A 
BRANCH  23  26
ATOM     26  N   UNL     1      -8.379   7.112  -7.763  0.00  0.00    +0.056 N 
ATOM     27  O   UNL     1      -9.443   7.704  -7.783  0.00  0.00    -0.126 OA
ATOM     28  O   UNL     1      -7.832   6.808  -8.808  0.00  0.00    -0.126 OA
ENDBRANCH  23  26
ENDBRANCH  18  20
ENDBRANCH  17  18
ENDBRANCH  16  17
ENDBRANCH   1  16
TORSDOF 10
