REMARK  Name = ZINC01750488
REMARK  11 active torsions:
REMARK  status: ('A' for Active; 'I' for Inactive)
REMARK    1  A    between atoms: C_1  and  C_2
REMARK    2  A    between atoms: C_5  and  N_31
REMARK    3  A    between atoms: N_6  and  C_7
REMARK    4  A    between atoms: C_7  and  C_8
REMARK    5  A    between atoms: C_8  and  O_9
REMARK    6  A    between atoms: O_9  and  C_10
REMARK    7  A    between atoms: N_12  and  C_13
REMARK    8  A    between atoms: C_13  and  C_15
REMARK    9  A    between atoms: C_13  and  N_51
REMARK   10  A    between atoms: C_19  and  C_20
REMARK   11  A    between atoms: C_19  and  N_51
REMARK                            x       y       z     vdW  Elec       q    Type
REMARK                         _______ _______ _______ _____ _____    ______ ____
ROOT
ATOM      1  C   UNL     1      -0.013   9.407   0.375  0.00  0.00    +0.071 C 
ENDROOT
BRANCH   1   4
ATOM      2  C   UNL     1      -1.734  10.788   1.409  0.00  0.00    +0.399 C 
ATOM      3  O   UNL     1      -2.411  10.639   0.411  0.00  0.00    -0.227 OA
ATOM      4  N   UNL     1      -0.518  10.212   1.490  0.00  0.00    -0.291 N 
ATOM      5  H   UNL     1       0.023  10.331   2.286  0.00  0.00    +0.150 HD
BRANCH   2   6
ATOM      6  O   UNL     1      -2.197  11.528   2.434  0.00  0.00    -0.449 OA
BRANCH   6   7
ATOM      7  C   UNL     1      -3.515  12.119   2.277  0.00  0.00    +0.255 C 
BRANCH   7   8
ATOM      8  C   UNL     1      -3.868  12.917   3.534  0.00  0.00    +0.166 C 
BRANCH   8  14
ATOM      9  C   UNL     1      -6.545  11.592   4.355  0.00  0.00    +0.086 C 
ATOM     10  C   UNL     1      -6.374  12.951   3.727  0.00  0.00    +0.108 A 
ATOM     11  N   UNL     1      -7.338  13.780   3.434  0.00  0.00    -0.239 NA
ATOM     12  C   UNL     1      -6.816  14.890   2.890  0.00  0.00    +0.164 A 
ATOM     13  C   UNL     1      -5.478  14.745   2.850  0.00  0.00    +0.216 A 
ATOM     14  N   UNL     1      -5.197  13.513   3.376  0.00  0.00    -0.306 N 
BRANCH  13  15
ATOM     15  N   UNL     1      -4.499  15.728   2.333  0.00  0.00    +0.075 N 
ATOM     16  O   UNL     1      -3.309  15.470   2.352  0.00  0.00    -0.125 OA
ATOM     17  O   UNL     1      -4.883  16.795   1.890  0.00  0.00    -0.125 OA
ENDBRANCH  13  15
ENDBRANCH   8  14
ENDBRANCH   7   8
ENDBRANCH   6   7
ENDBRANCH   2   6
ENDBRANCH   1   4
BRANCH   1  18
ATOM     18  C   UNL     1       1.444   9.780   0.095  0.00  0.00    +0.194 C 
ATOM     19 CL   UNL     1       2.065   8.788  -1.277  0.00  0.00    -0.084 Cl
ATOM     20 CL   UNL     1       1.545  11.528  -0.333  0.00  0.00    -0.084 Cl
ATOM     21 CL   UNL     1       2.439   9.462   1.565  0.00  0.00    -0.084 Cl
ENDBRANCH   1  18
BRANCH   1  22
ATOM     22  N   UNL     1      -0.089   7.977   0.730  0.00  0.00    +0.396 N 
ATOM     23  H   UNL     1      -0.234   7.887   1.743  0.00  0.00    -0.083 HD
ATOM     24  H   UNL     1       0.789   7.516   0.468  0.00  0.00    -0.083 HD
BRANCH  22  25
ATOM     25  C   UNL     1      -1.209   7.332   0.019  0.00  0.00    -0.031 C 
BRANCH  25  26
ATOM     26  C   UNL     1      -1.263   5.852   0.407  0.00  0.00    +0.194 C 
ATOM     27  C   UNL     1      -2.424   5.167  -0.326  0.00  0.00    +0.271 C 
ATOM     28  O   UNL     1      -2.437   3.785   0.048  0.00  0.00    -0.485 OA
ATOM     29  C   UNL     1      -1.241   3.136   0.030  0.00  0.00    +0.162 A 
ATOM     30  C   UNL     1      -1.219   1.749   0.017  0.00  0.00    +0.049 A 
ATOM     31  C   UNL     1      -0.013   1.076   0.008  0.00  0.00    +0.004 A 
ATOM     32  C   UNL     1       1.176   1.782   0.000  0.00  0.00    +0.004 A 
ATOM     33  C   UNL     1       1.161   3.164   0.007  0.00  0.00    +0.049 A 
ATOM     34  C   UNL     1      -0.046   3.846   0.020  0.00  0.00    +0.162 A 
ATOM     35  O   UNL     1      -0.045   5.207   0.019  0.00  0.00    -0.484 OA
ENDBRANCH  25  26
ENDBRANCH  22  25
ENDBRANCH   1  22
TORSDOF 10
