REMARK  Name = ZINC03384998
REMARK  7 active torsions:
REMARK  status: ('A' for Active; 'I' for Inactive)
REMARK    1  A    between atoms: C_1  and  C_2
REMARK    2  A    between atoms: C_2  and  C_23
REMARK    3  A    between atoms: N_5  and  N_9
REMARK    4  A    between atoms: C_10  and  C_11
REMARK    5  A    between atoms: C_14  and  C_17
REMARK    6  A    between atoms: C_26  and  O_29
REMARK    7  A    between atoms: O_29  and  C_30
REMARK                            x       y       z     vdW  Elec       q    Type
REMARK                         _______ _______ _______ _____ _____    ______ ____
ROOT
ATOM      1  C   UNL     1      -5.479   0.357  -0.942  0.00  0.00    +0.047 C 
ATOM      2  C   UNL     1      -4.548   0.411   0.271  0.00  0.00    +0.137 C 
ATOM      3  C   UNL     1      -3.566   1.559   0.147  0.00  0.00    +0.271 C 
ATOM      4  O   UNL     1      -3.826   2.742   0.081  0.00  0.00    -0.271 OA
ATOM      5  N   UNL     1      -2.344   0.992   0.124  0.00  0.00    -0.109 N 
ATOM      6  C   UNL     1      -2.416  -0.340   0.223  0.00  0.00    +0.330 C 
ATOM      7  O   UNL     1      -1.445  -1.071   0.228  0.00  0.00    -0.250 OA
ATOM      8  N   UNL     1      -3.684  -0.781   0.315  0.00  0.00    -0.280 N 
ATOM      9  H   UNL     1      -3.973  -1.703   0.395  0.00  0.00    +0.152 HD
ENDROOT
BRANCH   2  10
ATOM     10  C   UNL     1      -5.345   0.535   1.544  0.00  0.00    -0.015 A 
ATOM     11  C   UNL     1      -5.684   1.786   2.027  0.00  0.00    +0.010 A 
ATOM     12  C   UNL     1      -6.420   1.902   3.190  0.00  0.00    +0.046 A 
ATOM     13  C   UNL     1      -6.807   0.763   3.881  0.00  0.00    +0.127 A 
ATOM     14  C   UNL     1      -6.461  -0.490   3.398  0.00  0.00    +0.046 A 
ATOM     15  C   UNL     1      -5.731  -0.601   2.230  0.00  0.00    +0.010 A 
BRANCH  13  16
ATOM     16  O   UNL     1      -7.525   0.875   5.030  0.00  0.00    -0.434 OA
BRANCH  16  17
ATOM     17  C   UNL     1      -7.846   2.197   5.468  0.00  0.00    +0.541 C 
ATOM     18  F   UNL     1      -6.666   2.914   5.691  0.00  0.00    -0.166 F 
ATOM     19  F   UNL     1      -8.605   2.842   4.486  0.00  0.00    -0.166 F 
ENDBRANCH  16  17
ENDBRANCH  13  16
ENDBRANCH   2  10
BRANCH   5  20
ATOM     20  N   UNL     1      -1.145   1.709   0.017  0.00  0.00    -0.176 NA
ATOM     21  C   UNL     1      -1.162   3.007   0.032  0.00  0.00    +0.139 C 
BRANCH  21  22
ATOM     22  C   UNL     1       0.104   3.760   0.038  0.00  0.00    -0.005 A 
ATOM     23  C   UNL     1       1.325   3.078   0.027  0.00  0.00    +0.010 A 
ATOM     24  C   UNL     1       2.507   3.783   0.028  0.00  0.00    +0.009 A 
ATOM     25  C   UNL     1       2.488   5.178   0.050  0.00  0.00    -0.018 A 
ATOM     26  C   UNL     1       1.271   5.860   0.066  0.00  0.00    +0.009 A 
ATOM     27  C   UNL     1       0.087   5.158   0.059  0.00  0.00    +0.010 A 
BRANCH  25  28
ATOM     28  C   UNL     1       3.762   5.936   0.057  0.00  0.00    -0.018 A 
ATOM     29  C   UNL     1       3.747   7.330   0.073  0.00  0.00    +0.008 A 
ATOM     30  C   UNL     1       4.936   8.030   0.085  0.00  0.00    +0.001 A 
ATOM     31  C   UNL     1       6.142   7.351   0.070  0.00  0.00    +0.000 A 
ATOM     32  C   UNL     1       6.163   5.968   0.049  0.00  0.00    +0.001 A 
ATOM     33  C   UNL     1       4.980   5.257   0.042  0.00  0.00    +0.008 A 
ENDBRANCH  25  28
ENDBRANCH  21  22
ENDBRANCH   5  20
TORSDOF 6
