REMARK  Name = ZINC39928585
REMARK  9 active torsions:
REMARK  status: ('A' for Active; 'I' for Inactive)
REMARK    1  A    between atoms: C_1  and  C_2
REMARK    2  A    between atoms: C_2  and  O_3
REMARK    3  A    between atoms: O_3  and  C_4
REMARK    4  A    between atoms: C_11  and  C_16
REMARK    5  A    between atoms: C_16  and  N_17
REMARK    6  A    between atoms: N_17  and  C_18
REMARK    7  A    between atoms: C_22  and  C_25
REMARK    8  A    between atoms: C_23  and  C_24
REMARK    9  A    between atoms: C_26  and  C_28
REMARK                            x       y       z     vdW  Elec       q    Type
REMARK                         _______ _______ _______ _____ _____    ______ ____
ROOT
ATOM      1  N   UNL     1      -5.253  -7.848  -1.280  0.00  0.00    -0.266 N 
ATOM      2  C   UNL     1      -4.091  -8.530  -1.314  0.00  0.00    +0.251 C 
ATOM      3  O   UNL     1      -3.084  -7.995  -1.735  0.00  0.00    -0.270 OA
ENDROOT
BRANCH   1   4
ATOM      4  C   UNL     1      -6.425  -8.485  -0.859  0.00  0.00    +0.040 A 
ATOM      5  C   UNL     1      -6.963  -8.197   0.389  0.00  0.00    +0.024 A 
ATOM      6  C   UNL     1      -8.120  -8.826   0.802  0.00  0.00    +0.002 A 
ATOM      7  C   UNL     1      -8.744  -9.742  -0.025  0.00  0.00    +0.004 A 
ATOM      8  C   UNL     1      -8.211 -10.031  -1.268  0.00  0.00    -0.046 A 
ATOM      9  C   UNL     1      -7.056  -9.401  -1.689  0.00  0.00    -0.026 A 
ATOM     10  C   UNL     1      -6.479  -9.712  -3.046  0.00  0.00    +0.046 C 
ATOM     11  C   UNL     1      -8.894 -11.030  -2.166  0.00  0.00    +0.044 C 
ENDBRANCH   1   4
BRANCH   2  12
ATOM     12  C   UNL     1      -4.040  -9.932  -0.838  0.00  0.00    +0.040 A 
ATOM     13  C   UNL     1      -3.114 -10.837  -1.365  0.00  0.00    +0.033 A 
ATOM     14  C   UNL     1      -3.102 -12.135  -0.891  0.00  0.00    +0.111 A 
ATOM     15  N   UNL     1      -3.946 -12.522   0.044  0.00  0.00    -0.263 NA
ATOM     16  C   UNL     1      -4.835 -11.701   0.568  0.00  0.00    +0.111 A 
ATOM     17  C   UNL     1      -4.914 -10.385   0.156  0.00  0.00    +0.033 A 
ENDBRANCH   2  12
BRANCH   1  18
ATOM     18  C   UNL     1      -5.288  -6.441  -1.685  0.00  0.00    +0.131 C 
BRANCH  18  26
ATOM     19  C   UNL     1      -3.939  -0.830  -0.805  0.00  0.00    +0.121 A 
ATOM     20  C   UNL     1      -2.697  -1.167  -0.253  0.00  0.00    +0.047 A 
ATOM     21  C   UNL     1      -2.375  -2.438   0.102  0.00  0.00    +0.027 A 
ATOM     22  C   UNL     1      -3.297  -3.486  -0.076  0.00  0.00    +0.041 A 
ATOM     23  N   UNL     1      -2.968  -4.729   0.276  0.00  0.00    -0.284 N 
ATOM     24  C   UNL     1      -3.784  -5.760   0.137  0.00  0.00    +0.226 C 
ATOM     25  O   UNL     1      -3.427  -6.872   0.477  0.00  0.00    -0.275 OA
ATOM     26  C   UNL     1      -5.163  -5.551  -0.447  0.00  0.00    +0.116 C 
ATOM     27  C   UNL     1      -5.543  -4.139  -0.850  0.00  0.00    -0.003 C 
ATOM     28  C   UNL     1      -4.613  -3.162  -0.655  0.00  0.00    -0.004 A 
ATOM     29  C   UNL     1      -4.900  -1.772  -1.011  0.00  0.00    +0.055 A 
ATOM     30  H   UNL     1      -2.087  -4.884   0.652  0.00  0.00    +0.155 HD
BRANCH  19  31
ATOM     31  O   UNL     1      -4.191   0.464  -1.136  0.00  0.00    -0.492 OA
BRANCH  31  33
ATOM     32  C   UNL     1      -3.613   2.803  -1.330  0.00  0.00    +0.048 C 
ATOM     33  C   UNL     1      -3.147   1.411  -0.898  0.00  0.00    +0.225 C 
ENDBRANCH  31  33
ENDBRANCH  19  31
ENDBRANCH  18  26
ENDBRANCH   1  18
TORSDOF 6
