REMARK  Name = ZINC12112286
REMARK  8 active torsions:
REMARK  status: ('A' for Active; 'I' for Inactive)
REMARK    1  A    between atoms: C_1  and  C_2
REMARK    2  A    between atoms: C_2  and  N_71
REMARK    3  A    between atoms: C_6  and  C_8
REMARK    4  A    between atoms: C_8  and  N_9
REMARK    5  A    between atoms: C_10  and  C_12
REMARK    6  A    between atoms: C_12  and  C_13
REMARK    7  A    between atoms: C_13  and  C_14
REMARK    8  A    between atoms: C_19  and  N_73
REMARK                            x       y       z     vdW  Elec       q    Type
REMARK                         _______ _______ _______ _____ _____    ______ ____
ROOT
ATOM      1  C   UNL     1       1.177  -4.222  -4.444  0.00  0.00    -0.014 C 
ATOM      2  C   UNL     1       0.203  -3.706  -5.507  0.00  0.00    -0.015 C 
ATOM      3  C   UNL     1       0.624  -4.238  -6.878  0.00  0.00    -0.078 C 
ATOM      4  C   UNL     1       1.581  -6.226  -5.877  0.00  0.00    -0.078 C 
ATOM      5  C   UNL     1       1.190  -5.753  -4.475  0.00  0.00    -0.015 C 
ATOM      6  N   UNL     1       0.592  -5.716  -6.850  0.00  0.00    +0.383 N 
ATOM      7  H   UNL     1      -0.345  -6.024  -6.564  0.00  0.00    -0.081 HD
ENDROOT
BRANCH   6   8
ATOM      8  C   UNL     1       0.883  -6.253  -8.195  0.00  0.00    -0.065 C 
ATOM      9  C   UNL     1       2.295  -5.861  -8.637  0.00  0.00    -0.009 C 
ATOM     10  C   UNL     1       2.570  -6.430 -10.030  0.00  0.00    -0.012 C 
ATOM     11  C   UNL     1       1.549  -5.867 -11.022  0.00  0.00    +0.007 C 
ATOM     12  C   UNL     1       0.138  -6.260 -10.579  0.00  0.00    -0.012 C 
ATOM     13  C   UNL     1      -0.137  -5.690  -9.186  0.00  0.00    -0.009 C 
ATOM     14  C   UNL     1       0.022  -7.785 -10.539  0.00  0.00    +0.007 C 
ATOM     15  C   UNL     1       1.042  -8.348  -9.548  0.00  0.00    -0.012 C 
ATOM     16  C   UNL     1       2.454  -7.955  -9.990  0.00  0.00    +0.007 C 
ATOM     17  C   UNL     1       0.767  -7.778  -8.155  0.00  0.00    -0.009 C 
ENDBRANCH   6   8
BRANCH   1  18
ATOM     18  C   UNL     1       0.727  -3.743  -3.062  0.00  0.00    +0.012 C 
BRANCH  18  19
ATOM     19  C   UNL     1       0.834  -2.218  -2.991  0.00  0.00    +0.096 C 
BRANCH  19  21
ATOM     20  N   UNL     1       0.401  -0.431  -1.337  0.00  0.00    -0.317 N 
ATOM     21  C   UNL     1       0.391  -1.746  -1.631  0.00  0.00    +0.213 C 
ATOM     22  O   UNL     1       0.026  -2.550  -0.799  0.00  0.00    -0.276 OA
ATOM     23  H   UNL     1       0.693   0.212  -2.002  0.00  0.00    +0.149 HD
BRANCH  20  24
ATOM     24  C   UNL     1      -0.030   0.028  -0.015  0.00  0.00    +0.089 C 
BRANCH  24  28
ATOM     25  C   UNL     1       0.488   2.811   1.990  0.00  0.00    -0.078 C 
ATOM     26  C   UNL     1       1.408   3.311   0.848  0.00  0.00    -0.020 C 
ATOM     27  C   UNL     1       1.398   2.096  -0.120  0.00  0.00    -0.016 C 
ATOM     28  C   UNL     1      -0.041   1.558   0.016  0.00  0.00    -0.051 C 
ATOM     29  N   UNL     1      -0.570   2.046   1.300  0.00  0.00    +0.382 N 
ATOM     30  H   UNL     1      -1.374   2.659   1.125  0.00  0.00    -0.081 HD
BRANCH  29  32
ATOM     31  C   UNL     1      -1.452   1.421   3.511  0.00  0.00    -0.017 C 
ATOM     32  C   UNL     1      -1.006   0.902   2.143  0.00  0.00    -0.082 C 
ENDBRANCH  29  32
ENDBRANCH  24  28
ENDBRANCH  20  24
ENDBRANCH  19  21
ENDBRANCH  18  19
ENDBRANCH   1  18
TORSDOF 7
