REMARK  Name = ZINC21737766
REMARK  11 active torsions:
REMARK  status: ('A' for Active; 'I' for Inactive)
REMARK    1  A    between atoms: C_1  and  C_2
REMARK    2  A    between atoms: C_3  and  C_32
REMARK    3  A    between atoms: N_4  and  C_24
REMARK    4  A    between atoms: C_5  and  N_9
REMARK    5  A    between atoms: C_6  and  C_7
REMARK    6  A    between atoms: C_10  and  C_12
REMARK    7  A    between atoms: C_12  and  O_13
REMARK    8  A    between atoms: O_13  and  C_14
REMARK    9  A    between atoms: C_14  and  C_16
REMARK   10  A    between atoms: C_21  and  N_22
REMARK   11  A    between atoms: C_24  and  C_25
REMARK                            x       y       z     vdW  Elec       q    Type
REMARK                         _______ _______ _______ _____ _____    ______ ____
ROOT
ATOM      1  N   UNL     1      -2.423   1.443  -0.697  0.00  0.00    -0.268 N 
ATOM      2  C   UNL     1      -2.796   0.334  -0.027  0.00  0.00    +0.256 C 
ATOM      3  O   UNL     1      -1.954  -0.411   0.428  0.00  0.00    -0.272 OA
ATOM      4  H   UNL     1      -3.185   2.140  -1.075  0.00  0.00    +0.156 HD
ENDROOT
BRANCH   1   9
ATOM      5  C   UNL     1       2.427   1.065  -2.067  0.00  0.00    +0.047 C 
ATOM      6  C   UNL     1       1.117   1.567  -1.515  0.00  0.00    -0.011 A 
ATOM      7  C   UNL     1       0.897   2.754  -0.929  0.00  0.00    +0.022 A 
ATOM      8  N   UNL     1      -0.419   2.840  -0.561  0.00  0.00    -0.327 N 
ATOM      9  C   UNL     1      -1.077   1.705  -0.910  0.00  0.00    +0.124 A 
ATOM     10  C   UNL     1      -0.165   0.851  -1.514  0.00  0.00    +0.095 A 
ATOM     11  C   UNL     1       1.935   3.825  -0.711  0.00  0.00    +0.064 C 
BRANCH  10  12
ATOM     12  C   UNL     1      -0.423  -0.457  -2.036  0.00  0.00    +0.103 C 
ATOM     13  N   UNL     1      -0.627  -1.495  -2.450  0.00  0.00    -0.191 NA
ENDBRANCH  10  12
BRANCH   8  14
ATOM     14  C   UNL     1      -1.030   3.992   0.107  0.00  0.00    +0.158 C 
BRANCH  14  15
ATOM     15  C   UNL     1      -1.482   4.991  -0.927  0.00  0.00    -0.028 A 
ATOM     16  C   UNL     1      -0.598   5.941  -1.403  0.00  0.00    +0.008 A 
ATOM     17  C   UNL     1      -1.010   6.854  -2.354  0.00  0.00    +0.038 A 
ATOM     18  C   UNL     1      -2.312   6.824  -2.824  0.00  0.00    +0.123 A 
ATOM     19  C   UNL     1      -3.198   5.875  -2.342  0.00  0.00    +0.038 A 
ATOM     20  C   UNL     1      -2.783   4.960  -1.395  0.00  0.00    +0.008 A 
ATOM     21  F   UNL     1      -2.717   7.719  -3.751  0.00  0.00    -0.205 F 
ENDBRANCH  14  15
ENDBRANCH   8  14
ENDBRANCH   1   9
BRANCH   2  22
ATOM     22  C   UNL     1      -4.258   0.021   0.157  0.00  0.00    +0.328 C 
BRANCH  22  23
ATOM     23  O   UNL     1      -4.399  -1.215   0.905  0.00  0.00    -0.452 OA
BRANCH  23  24
ATOM     24  C   UNL     1      -5.653  -1.639   1.157  0.00  0.00    +0.341 C 
ATOM     25  O   UNL     1      -6.604  -0.993   0.762  0.00  0.00    -0.245 OA
BRANCH  24  26
ATOM     26  C   UNL     1      -5.872  -2.884   1.910  0.00  0.00    +0.080 A 
ATOM     27  C   UNL     1      -4.787  -3.568   2.469  0.00  0.00    +0.019 A 
ATOM     28  C   UNL     1      -4.997  -4.732   3.173  0.00  0.00    +0.039 A 
ATOM     29  C   UNL     1      -6.283  -5.233   3.331  0.00  0.00    +0.125 A 
ATOM     30  C   UNL     1      -7.365  -4.569   2.785  0.00  0.00    +0.061 A 
ATOM     31  C   UNL     1      -7.171  -3.390   2.077  0.00  0.00    +0.041 A 
ATOM     32  F   UNL     1      -6.477  -6.377   4.024  0.00  0.00    -0.205 F 
BRANCH  31  33
ATOM     33  N   UNL     1      -8.257  -2.718   1.532  0.00  0.00    -0.357 N 
ATOM     34  H   UNL     1      -9.274  -3.116   1.664  0.00  0.00    +0.142 HD
ATOM     35  H   UNL     1      -8.100  -1.786   0.968  0.00  0.00    +0.142 HD
ENDBRANCH  31  33
ENDBRANCH  24  26
ENDBRANCH  23  24
ENDBRANCH  22  23
ENDBRANCH   2  22
TORSDOF 9
