REMARK  Name = ZINC22356320
REMARK  7 active torsions:
REMARK  status: ('A' for Active; 'I' for Inactive)
REMARK    1  A    between atoms: C_1  and  C_2
REMARK    2  A    between atoms: C_12  and  C_14
REMARK    3  A    between atoms: C_14  and  C_16
REMARK    4  A    between atoms: C_14  and  N_17
REMARK    5  A    between atoms: N_17  and  C_18
REMARK    6  A    between atoms: C_21  and  N_25
REMARK    7  A    between atoms: C_26  and  C_28
REMARK                            x       y       z     vdW  Elec       q    Type
REMARK                         _______ _______ _______ _____ _____    ______ ____
ROOT
ATOM      1  C   UNL     1      -0.455   1.764   1.509  0.00  0.00    +0.154 C 
ATOM      2  C   UNL     1       0.307   0.919   0.487  0.00  0.00    +0.038 C 
ENDROOT
BRANCH   1  13
ATOM      3  C   UNL     1      -4.831   1.808   2.127  0.00  0.00    +0.029 C 
ATOM      4  C   UNL     1      -4.221   1.197   0.864  0.00  0.00    +0.083 C 
ATOM      5  C   UNL     1      -4.881   1.796  -0.388  0.00  0.00    +0.059 C 
ATOM      6  C   UNL     1      -3.747   2.462  -1.135  0.00  0.00    -0.024 A 
ATOM      7  C   UNL     1      -3.733   3.158  -2.329  0.00  0.00    +0.005 A 
ATOM      8  C   UNL     1      -2.549   3.681  -2.814  0.00  0.00    +0.000 A 
ATOM      9  C   UNL     1      -1.377   3.507  -2.100  0.00  0.00    +0.002 A 
ATOM     10  C   UNL     1      -1.386   2.815  -0.909  0.00  0.00    +0.024 A 
ATOM     11  C   UNL     1      -2.578   2.283  -0.413  0.00  0.00    +0.040 A 
ATOM     12  N   UNL     1      -2.804   1.555   0.760  0.00  0.00    -0.267 N 
ATOM     13  C   UNL     1      -1.855   1.227   1.660  0.00  0.00    +0.240 C 
ATOM     14  O   UNL     1      -2.129   0.500   2.591  0.00  0.00    -0.273 OA
ENDBRANCH   1  13
BRANCH   1  15
ATOM     15  N   UNL     1       0.232   1.705   2.802  0.00  0.00    -0.333 N 
ATOM     16  H   UNL     1      -0.085   0.974   3.560  0.00  0.00    +0.147 HD
BRANCH  15  17
ATOM     17  C   UNL     1       1.292   2.577   3.071  0.00  0.00    +0.029 A 
ATOM     18  C   UNL     1       1.944   2.522   4.296  0.00  0.00    +0.025 A 
ATOM     19  C   UNL     1       2.990   3.382   4.562  0.00  0.00    +0.026 A 
ATOM     20  C   UNL     1       3.391   4.304   3.604  0.00  0.00    +0.052 A 
ATOM     21  C   UNL     1       2.740   4.361   2.378  0.00  0.00    +0.064 A 
ATOM     22  C   UNL     1       1.696   3.496   2.111  0.00  0.00    +0.044 A 
ATOM     23 CL   UNL     1       3.242   5.513   1.181  0.00  0.00    -0.082 Cl
BRANCH  20  24
ATOM     24  N   UNL     1       4.454   5.177   3.874  0.00  0.00    -0.285 N 
ATOM     25  C   UNL     1       5.332   4.887   4.855  0.00  0.00    +0.214 C 
ATOM     26  O   UNL     1       5.267   3.822   5.432  0.00  0.00    -0.276 OA
ATOM     27  C   UNL     1       6.396   5.886   5.234  0.00  0.00    +0.109 C 
ATOM     28  H   UNL     1       4.571   6.099   3.286  0.00  0.00    +0.155 HD
ENDBRANCH  20  24
ENDBRANCH  15  17
ENDBRANCH   1  15
TORSDOF 4
