REMARK  Name = ZINC41584126
REMARK  13 active torsions:
REMARK  status: ('A' for Active; 'I' for Inactive)
REMARK    1  A    between atoms: C_1  and  C_2
REMARK    2  A    between atoms: C_2  and  C_3
REMARK    3  A    between atoms: C_3  and  C_4
REMARK    4  A    between atoms: C_4  and  N_5
REMARK    5  A    between atoms: N_5  and  C_6
REMARK    6  A    between atoms: N_5  and  C_7
REMARK    7  A    between atoms: C_7  and  C_8
REMARK    8  A    between atoms: C_9  and  O_32
REMARK    9  A    between atoms: C_15  and  C_28
REMARK   10  A    between atoms: C_16  and  O_19
REMARK   11  A    between atoms: O_19  and  C_20
REMARK   12  A    between atoms: C_24  and  O_26
REMARK   13  A    between atoms: O_26  and  C_27
REMARK                            x       y       z     vdW  Elec       q    Type
REMARK                         _______ _______ _______ _____ _____    ______ ____
ROOT
ATOM      1  C   UNL     1       1.858  -4.599  -3.514  0.00  0.00    +0.020 A 
ATOM      2  C   UNL     1       0.961  -4.725  -4.561  0.00  0.00    +0.122 A 
ATOM      3  C   UNL     1       1.395  -5.124  -5.823  0.00  0.00    +0.046 A 
ATOM      4  C   UNL     1       2.715  -5.397  -6.045  0.00  0.00    +0.019 A 
ATOM      5  C   UNL     1       3.632  -5.274  -5.000  0.00  0.00    +0.068 A 
ATOM      6  C   UNL     1       3.203  -4.867  -3.724  0.00  0.00    +0.144 A 
ATOM      7  O   UNL     1       4.099  -4.747  -2.723  0.00  0.00    -0.447 OA
ATOM      8  C   UNL     1       5.404  -4.998  -2.894  0.00  0.00    +0.254 A 
ATOM      9  C   UNL     1       5.923  -5.389  -4.074  0.00  0.00    +0.222 A 
ATOM     10  C   UNL     1       5.064  -5.560  -5.197  0.00  0.00    +0.235 A 
ATOM     11  O   UNL     1       5.498  -5.912  -6.281  0.00  0.00    -0.283 OA
ENDROOT
BRANCH   8  12
ATOM     12  C   UNL     1       6.330  -4.837  -1.716  0.00  0.00    +0.454 C 
ATOM     13  F   UNL     1       7.611  -5.274  -2.067  0.00  0.00    -0.163 F 
ATOM     14  F   UNL     1       6.382  -3.489  -1.345  0.00  0.00    -0.163 F 
ATOM     15  F   UNL     1       5.855  -5.597  -0.642  0.00  0.00    -0.163 F 
ENDBRANCH   8  12
BRANCH   2  16
ATOM     16  O   UNL     1      -0.354  -4.459  -4.356  0.00  0.00    -0.506 OA
ATOM     17  H   UNL     1      -0.598  -3.537  -4.515  0.00  0.00    +0.292 HD
ENDBRANCH   2  16
BRANCH   1  18
ATOM     18  C   UNL     1       1.377  -4.168  -2.152  0.00  0.00    -0.036 C 
BRANCH  18  19
ATOM     19  N   UNL     1       1.429  -2.703  -2.056  0.00  0.00    +0.381 N 
ATOM     20  C   UNL     1       2.827  -2.257  -2.134  0.00  0.00    -0.096 C 
ATOM     21  H   UNL     1       0.904  -2.297  -2.816  0.00  0.00    -0.082 HD
BRANCH  19  22
ATOM     22  C   UNL     1       0.849  -2.275  -0.777  0.00  0.00    -0.079 C 
BRANCH  22  23
ATOM     23  C   UNL     1       0.789  -0.747  -0.729  0.00  0.00    -0.019 C 
BRANCH  23  25
ATOM     24  C   UNL     1       0.125   1.227   0.651  0.00  0.00    +0.004 C 
ATOM     25  C   UNL     1       0.185  -0.301   0.604  0.00  0.00    -0.005 C 
ENDBRANCH  23  25
ENDBRANCH  22  23
ENDBRANCH  19  22
ENDBRANCH  18  19
ENDBRANCH   1  18
BRANCH   9  26
ATOM     26  O   UNL     1       7.258  -5.630  -4.190  0.00  0.00    -0.448 OA
BRANCH  26  27
ATOM     27  C   UNL     1       7.990  -4.799  -4.977  0.00  0.00    +0.132 A 
ATOM     28  C   UNL     1       7.400  -3.674  -5.537  0.00  0.00    +0.046 A 
ATOM     29  C   UNL     1       8.145  -2.829  -6.337  0.00  0.00    +0.007 A 
ATOM     30  C   UNL     1       9.478  -3.101  -6.582  0.00  0.00    +0.046 A 
ATOM     31  C   UNL     1      10.072  -4.224  -6.024  0.00  0.00    +0.124 A 
ATOM     32  C   UNL     1       9.328  -5.071  -5.216  0.00  0.00    +0.091 A 
BRANCH  31  33
ATOM     33  O   UNL     1      11.382  -4.491  -6.265  0.00  0.00    -0.495 OA
ATOM     34  C   UNL     1      12.088  -3.572  -7.101  0.00  0.00    +0.277 C 
ENDBRANCH  31  33
ENDBRANCH  26  27
ENDBRANCH   9  26
TORSDOF 10
