REMARK  Name = ZINC27842774
REMARK  7 active torsions:
REMARK  status: ('A' for Active; 'I' for Inactive)
REMARK    1  A    between atoms: C_6  and  C_7
REMARK    2  A    between atoms: N_10  and  N_13
REMARK    3  A    between atoms: N_13  and  C_14
REMARK    4  A    between atoms: C_14  and  C_16
REMARK    5  A    between atoms: C_26  and  C_30
REMARK    6  A    between atoms: C_30  and  C_31
REMARK    7  A    between atoms: C_31  and  N_32
REMARK                            x       y       z     vdW  Elec       q    Type
REMARK                         _______ _______ _______ _____ _____    ______ ____
ROOT
ATOM      1  C   UNL     1      -1.268  -0.760   0.011  0.00  0.00    -0.042 C 
ATOM      2  C   UNL     1      -1.569  -1.500  -1.034  0.00  0.00    -0.006 C 
ATOM      3  C   UNL     1      -2.835  -2.301  -1.133  0.00  0.00    +0.133 C 
ATOM      4  N   UNL     1      -3.440  -2.461   0.195  0.00  0.00    -0.225 NA
ATOM      5  C   UNL     1      -3.566  -1.154   0.859  0.00  0.00    +0.110 C 
ATOM      6  C   UNL     1      -2.161  -0.656   1.216  0.00  0.00    +0.052 C 
ENDROOT
BRANCH   1  12
ATOM      7  C   UNL     1      -0.017   1.396   0.010  0.00  0.00    +0.010 A 
ATOM      8  C   UNL     1       1.147   2.108   0.002  0.00  0.00    +0.027 A 
ATOM      9  C   UNL     1       2.373   1.448  -0.013  0.00  0.00    +0.047 A 
ATOM     10  C   UNL     1       2.405   0.041  -0.021  0.00  0.00    +0.003 A 
ATOM     11  C   UNL     1       1.214  -0.684  -0.013  0.00  0.00    +0.018 A 
ATOM     12  C   UNL     1       0.002  -0.004   0.002  0.00  0.00    -0.021 A 
ATOM     13  C   UNL     1       3.823  -0.332  -0.036  0.00  0.00    -0.024 A 
ATOM     14  C   UNL     1       4.528   0.810  -0.037  0.00  0.00    +0.087 A 
ATOM     15  N   UNL     1       3.679   1.883  -0.023  0.00  0.00    -0.360 N 
ATOM     16  H   UNL     1       3.957   2.813  -0.021  0.00  0.00    +0.165 HD
BRANCH  13  17
ATOM     17  C   UNL     1       4.382  -1.731  -0.049  0.00  0.00    +0.019 C 
BRANCH  17  18
ATOM     18  C   UNL     1       4.441  -2.244  -1.489  0.00  0.00    -0.074 C 
BRANCH  18  19
ATOM     19  N   UNL     1       4.986  -3.608  -1.501  0.00  0.00    +0.380 N 
ATOM     20  C   UNL     1       4.022  -4.551  -0.877  0.00  0.00    -0.079 C 
ATOM     21  C   UNL     1       4.445  -5.925  -1.454  0.00  0.00    -0.020 C 
ATOM     22  C   UNL     1       4.841  -5.581  -2.909  0.00  0.00    -0.020 C 
ATOM     23  C   UNL     1       5.162  -4.075  -2.893  0.00  0.00    -0.079 C 
ATOM     24  H   UNL     1       5.867  -3.635  -1.011  0.00  0.00    -0.082 HD
ENDBRANCH  18  19
ENDBRANCH  17  18
ENDBRANCH  13  17
ENDBRANCH   1  12
BRANCH   4  25
ATOM     25  N   UNL     1      -4.653  -3.085   0.109  0.00  0.00    -0.274 N 
ATOM     26  H   UNL     1      -5.385  -2.658  -0.362  0.00  0.00    +0.167 HD
BRANCH  25  27
ATOM     27  C   UNL     1      -4.831  -4.294   0.677  0.00  0.00    +0.069 C 
ATOM     28  S   UNL     1      -3.623  -4.998   1.454  0.00  0.00    -0.039 S 
BRANCH  27  29
ATOM     29  C   UNL     1      -6.168  -4.982   0.582  0.00  0.00    +0.017 C 
ATOM     30  C   UNL     1      -6.520  -5.210  -0.889  0.00  0.00    +0.017 C 
ATOM     31  C   UNL     1      -7.878  -5.908  -0.986  0.00  0.00    -0.010 C 
ATOM     32  C   UNL     1      -7.812  -7.255  -0.263  0.00  0.00    +0.007 C 
ATOM     33  C   UNL     1      -7.460  -7.027   1.209  0.00  0.00    -0.010 C 
ATOM     34  C   UNL     1      -6.102  -6.328   1.306  0.00  0.00    +0.017 C 
ATOM     35  C   UNL     1      -8.532  -6.150   1.859  0.00  0.00    +0.007 C 
ATOM     36  C   UNL     1      -8.598  -4.803   1.136  0.00  0.00    -0.010 C 
ATOM     37  C   UNL     1      -8.950  -5.032  -0.335  0.00  0.00    +0.007 C 
ATOM     38  C   UNL     1      -7.240  -4.105   1.233  0.00  0.00    +0.017 C 
ENDBRANCH  27  29
ENDBRANCH  25  27
ENDBRANCH   4  25
TORSDOF 7
