REMARK  Name = ZINC43213920
REMARK  15 active torsions:
REMARK  status: ('A' for Active; 'I' for Inactive)
REMARK    1  A    between atoms: C_1  and  C_2
REMARK    2  A    between atoms: C_2  and  C_3
REMARK    3  A    between atoms: C_2  and  C_4
REMARK    4  A    between atoms: C_4  and  C_5
REMARK    5  A    between atoms: C_5  and  C_7
REMARK    6  A    between atoms: C_5  and  N_38
REMARK    7  A    between atoms: C_9  and  C_12
REMARK    8  A    between atoms: N_14  and  C_15
REMARK    9  A    between atoms: C_15  and  C_17
REMARK   10  A    between atoms: C_15  and  C_26
REMARK   11  A    between atoms: C_17  and  S_18
REMARK   12  A    between atoms: S_18  and  C_19
REMARK   13  A    between atoms: C_19  and  C_20
REMARK   14  A    between atoms: N_28  and  C_29
REMARK   15  A    between atoms: C_32  and  N_35
REMARK                            x       y       z     vdW  Elec       q    Type
REMARK                         _______ _______ _______ _____ _____    ______ ____
ROOT
ATOM      1  C   UNL     1      -6.001  -5.288   3.863  0.00  0.00    +0.169 C 
ENDROOT
BRANCH   1   4
ATOM      2  C   UNL     1      -5.513  -4.218   1.729  0.00  0.00    +0.266 C 
ATOM      3  O   UNL     1      -6.657  -4.449   1.385  0.00  0.00    -0.268 OA
ATOM      4  N   UNL     1      -5.087  -4.597   2.950  0.00  0.00    -0.298 N 
ATOM      5  H   UNL     1      -4.175  -4.412   3.224  0.00  0.00    +0.150 HD
BRANCH   2   8
ATOM      6  C   UNL     1      -2.816  -2.594   0.013  0.00  0.00    +0.182 A 
ATOM      7  N   UNL     1      -3.296  -3.198   1.058  0.00  0.00    -0.210 NA
ATOM      8  C   UNL     1      -4.594  -3.522   0.810  0.00  0.00    +0.163 A 
ATOM      9  C   UNL     1      -4.884  -3.083  -0.445  0.00  0.00    +0.230 A 
ATOM     10  O   UNL     1      -3.771  -2.505  -0.924  0.00  0.00    -0.449 OA
BRANCH   6  11
ATOM     11  C   UNL     1      -1.409  -2.070  -0.123  0.00  0.00    +0.013 C 
BRANCH  11  12
ATOM     12  N   UNL     1      -0.874  -2.439  -1.440  0.00  0.00    +0.386 N 
ATOM     13  H   UNL     1       0.068  -2.088  -1.531  0.00  0.00    -0.089 HD
ATOM     14  H   UNL     1      -0.869  -3.444  -1.532  0.00  0.00    -0.089 HD
ATOM     15  H   UNL     1      -1.453  -2.039  -2.163  0.00  0.00    -0.089 HD
ENDBRANCH  11  12
BRANCH  11  16
ATOM     16  C   UNL     1      -1.417  -0.546   0.015  0.00  0.00    -0.004 C 
BRANCH  16  18
ATOM     17  C   UNL     1       0.010   1.504   0.015  0.00  0.00    +0.007 C 
ATOM     18  C   UNL     1       0.022  -0.026   0.002  0.00  0.00    -0.018 C 
ATOM     19  C   UNL     1       0.761  -0.541   1.238  0.00  0.00    +0.007 C 
ENDBRANCH  16  18
ENDBRANCH  11  16
ENDBRANCH   6  11
ENDBRANCH   2   8
ENDBRANCH   1   4
BRANCH   1  20
ATOM     20  C   UNL     1      -5.555  -5.065   5.285  0.00  0.00    +0.238 C 
ATOM     21  O   UNL     1      -4.571  -4.394   5.513  0.00  0.00    -0.273 OA
ATOM     22  N   UNL     1      -6.250  -5.610   6.303  0.00  0.00    -0.284 N 
ATOM     23  H   UNL     1      -7.074  -6.090   6.125  0.00  0.00    +0.155 HD
BRANCH  22  24
ATOM     24  C   UNL     1      -5.782  -5.484   7.616  0.00  0.00    +0.034 A 
ATOM     25  C   UNL     1      -5.963  -6.522   8.521  0.00  0.00    +0.025 A 
ATOM     26  C   UNL     1      -5.500  -6.395   9.816  0.00  0.00    +0.034 A 
ATOM     27  C   UNL     1      -4.858  -5.236  10.212  0.00  0.00    +0.126 A 
ATOM     28  C   UNL     1      -4.677  -4.200   9.313  0.00  0.00    +0.034 A 
ATOM     29  C   UNL     1      -5.132  -4.324   8.014  0.00  0.00    +0.025 A 
BRANCH  27  30
ATOM     30  N   UNL     1      -4.364  -5.103  11.601  0.00  0.00    +0.056 N 
ATOM     31  O   UNL     1      -4.522  -6.006  12.388  0.00  0.00    -0.126 OA
ATOM     32  O   UNL     1      -3.802  -4.090  11.948  0.00  0.00    -0.126 OA
ENDBRANCH  27  30
ENDBRANCH  22  24
ENDBRANCH   1  20
BRANCH   1  33
ATOM     33  C   UNL     1      -5.992  -6.787   3.555  0.00  0.00    +0.101 C 
BRANCH  33  34
ATOM     34  S   UNL     1      -6.529  -7.056   1.844  0.00  0.00    -0.154 S 
BRANCH  34  35
ATOM     35  C   UNL     1      -6.463  -8.858   1.641  0.00  0.00    +0.104 C 
BRANCH  35  36
ATOM     36  C   UNL     1      -6.891  -9.222   0.243  0.00  0.00    -0.038 A 
ATOM     37  C   UNL     1      -8.224  -9.467  -0.030  0.00  0.00    +0.004 A 
ATOM     38  C   UNL     1      -8.617  -9.801  -1.313  0.00  0.00    +0.000 A 
ATOM     39  C   UNL     1      -7.676  -9.890  -2.322  0.00  0.00    +0.000 A 
ATOM     40  C   UNL     1      -6.344  -9.645  -2.049  0.00  0.00    +0.000 A 
ATOM     41  C   UNL     1      -5.952  -9.307  -0.767  0.00  0.00    +0.004 A 
ENDBRANCH  35  36
ENDBRANCH  34  35
ENDBRANCH  33  34
ENDBRANCH   1  33
TORSDOF 13
