REMARK  Name = ZINC27551582
REMARK  9 active torsions:
REMARK  status: ('A' for Active; 'I' for Inactive)
REMARK    1  A    between atoms: C_1  and  C_2
REMARK    2  A    between atoms: C_2  and  C_3
REMARK    3  A    between atoms: C_2  and  C_4
REMARK    4  A    between atoms: C_2  and  C_5
REMARK    5  A    between atoms: C_10  and  N_11
REMARK    6  A    between atoms: C_12  and  C_14
REMARK    7  A    between atoms: C_14  and  N_15
REMARK    8  A    between atoms: C_22  and  S_24
REMARK    9  A    between atoms: S_24  and  N_27
REMARK                            x       y       z     vdW  Elec       q    Type
REMARK                         _______ _______ _______ _____ _____    ______ ____
ROOT
ATOM      1  C   UNL     1       1.890   5.186  -0.860  0.00  0.00    +0.201 C 
ENDROOT
BRANCH   1   2
ATOM      2  N   UNL     1       0.986   4.344  -0.064  0.00  0.00    -0.321 N 
ATOM      3  C   UNL     1      -0.377   4.338  -0.638  0.00  0.00    +0.110 C 
ATOM      4  C   UNL     1      -1.269   4.154   0.610  0.00  0.00    +0.056 C 
ATOM      5  C   UNL     1      -0.409   4.715   1.725  0.00  0.00    -0.023 A 
ATOM      6  C   UNL     1       0.895   4.811   1.253  0.00  0.00    +0.033 A 
ATOM      7  C   UNL     1       1.884   5.319   2.094  0.00  0.00    +0.025 A 
ATOM      8  C   UNL     1       1.568   5.714   3.377  0.00  0.00    +0.030 A 
ATOM      9  C   UNL     1       0.269   5.613   3.837  0.00  0.00    +0.105 A 
ATOM     10  C   UNL     1      -0.719   5.108   3.010  0.00  0.00    +0.034 A 
BRANCH   9  11
ATOM     11  S   UNL     1      -0.129   6.122   5.477  0.00  0.00    +0.056 S 
ATOM     12  O   UNL     1       0.862   7.065   5.861  0.00  0.00    -0.153 OA
ATOM     13  O   UNL     1      -1.516   6.430   5.481  0.00  0.00    -0.153 OA
BRANCH  11  14
ATOM     14  N   UNL     1       0.066   4.803   6.459  0.00  0.00    -0.204 NA
ATOM     15  H   UNL     1      -0.173   5.080   7.497  0.00  0.00    +0.144 HD
ATOM     16  H   UNL     1       1.108   4.456   6.404  0.00  0.00    +0.144 HD
ENDBRANCH  11  14
ENDBRANCH   9  11
ENDBRANCH   1   2
BRANCH   1  18
ATOM     17  N   UNL     1       2.553   5.409  -3.232  0.00  0.00    -0.284 N 
ATOM     18  C   UNL     1       1.889   4.710  -2.290  0.00  0.00    +0.235 C 
ATOM     19  O   UNL     1       1.292   3.699  -2.592  0.00  0.00    -0.274 OA
ATOM     20  H   UNL     1       3.136   6.298  -2.949  0.00  0.00    +0.155 HD
BRANCH  17  26
ATOM     21  C   UNL     1       2.706   5.929  -5.586  0.00  0.00    -0.021 A 
ATOM     22  C   UNL     1       2.653   5.526  -6.906  0.00  0.00    +0.006 A 
ATOM     23  C   UNL     1       2.395   4.203  -7.217  0.00  0.00    +0.000 A 
ATOM     24  C   UNL     1       2.189   3.280  -6.208  0.00  0.00    +0.002 A 
ATOM     25  C   UNL     1       2.246   3.676  -4.886  0.00  0.00    +0.023 A 
ATOM     26  C   UNL     1       2.500   5.004  -4.570  0.00  0.00    +0.037 A 
BRANCH  21  28
ATOM     27  C   UNL     1       2.997   8.203  -6.531  0.00  0.00    +0.015 C 
ATOM     28  C   UNL     1       2.988   7.370  -5.248  0.00  0.00    -0.011 C 
ATOM     29  C   UNL     1       1.902   7.895  -4.306  0.00  0.00    +0.015 C 
ATOM     30  C   UNL     1       4.352   7.475  -4.562  0.00  0.00    +0.015 C 
ENDBRANCH  21  28
ENDBRANCH  17  26
ENDBRANCH   1  18
TORSDOF 6
