REMARK  Name = ZINC64070371
REMARK  9 active torsions:
REMARK  status: ('A' for Active; 'I' for Inactive)
REMARK    1  A    between atoms: C_1  and  C_2
REMARK    2  A    between atoms: C_5  and  C_25
REMARK    3  A    between atoms: C_7  and  N_8
REMARK    4  A    between atoms: C_9  and  C_11
REMARK    5  A    between atoms: C_11  and  C_12
REMARK    6  A    between atoms: C_12  and  C_13
REMARK    7  A    between atoms: C_13  and  N_14
REMARK    8  A    between atoms: N_14  and  S_15
REMARK    9  A    between atoms: S_15  and  C_18
REMARK                            x       y       z     vdW  Elec       q    Type
REMARK                         _______ _______ _______ _____ _____    ______ ____
ROOT
ATOM      1  C   UNL     1      -0.169   0.070   4.882  0.00  0.00    +0.097 C 
ENDROOT
BRANCH   1   3
ATOM      2  N   UNL     1       0.025  -0.007   2.417  0.00  0.00    -0.285 N 
ATOM      3  C   UNL     1      -0.057  -0.682   3.581  0.00  0.00    +0.217 C 
ATOM      4  O   UNL     1      -0.040  -1.895   3.581  0.00  0.00    -0.275 OA
ATOM      5  H   UNL     1       0.077   0.962   2.421  0.00  0.00    +0.155 HD
BRANCH   2  12
ATOM      6  C   UNL     1      -1.265   1.183   0.182  0.00  0.00    +0.045 C 
ATOM      7  C   UNL     1      -0.586  -0.158   0.085  0.00  0.00    -0.029 A 
ATOM      8  C   UNL     1      -0.575  -0.839  -1.118  0.00  0.00    +0.006 A 
ATOM      9  C   UNL     1       0.045  -2.068  -1.215  0.00  0.00    +0.019 A 
ATOM     10  C   UNL     1       0.665  -2.627  -0.096  0.00  0.00    +0.054 A 
ATOM     11  C   UNL     1       0.655  -1.940   1.118  0.00  0.00    +0.042 A 
ATOM     12  C   UNL     1       0.033  -0.703   1.203  0.00  0.00    +0.038 A 
BRANCH  10  13
ATOM     13  C   UNL     1       1.309  -3.903  -0.193  0.00  0.00    +0.099 C 
ATOM     14  N   UNL     1       1.820  -4.914  -0.271  0.00  0.00    -0.191 NA
ENDBRANCH  10  13
ENDBRANCH   2  12
ENDBRANCH   1   3
BRANCH   1  15
ATOM     15  C   UNL     1      -0.246  -0.926   6.041  0.00  0.00    +0.026 C 
BRANCH  15  16
ATOM     16  C   UNL     1      -0.359  -0.162   7.362  0.00  0.00    +0.106 C 
BRANCH  16  17
ATOM     17  N   UNL     1      -0.433  -1.116   8.473  0.00  0.00    -0.190 NA
ATOM     18  H   UNL     1      -0.624  -2.050   8.297  0.00  0.00    +0.148 HD
BRANCH  17  19
ATOM     19  S   UNL     1      -0.189  -0.598  10.026  0.00  0.00    +0.058 S 
ATOM     20  O   UNL     1      -0.350  -1.734  10.864  0.00  0.00    -0.153 OA
ATOM     21  O   UNL     1       1.003   0.177  10.014  0.00  0.00    -0.153 OA
BRANCH  19  22
ATOM     22  C   UNL     1      -1.504   0.508  10.419  0.00  0.00    +0.105 A 
ATOM     23  C   UNL     1      -1.371   1.859  10.160  0.00  0.00    +0.031 A 
ATOM     24  C   UNL     1      -2.401   2.727  10.467  0.00  0.00    +0.040 A 
ATOM     25  C   UNL     1      -3.567   2.243  11.035  0.00  0.00    +0.124 A 
ATOM     26  C   UNL     1      -3.699   0.889  11.295  0.00  0.00    +0.040 A 
ATOM     27  C   UNL     1      -2.669   0.023  10.982  0.00  0.00    +0.031 A 
ATOM     28  F   UNL     1      -4.575   3.091  11.336  0.00  0.00    -0.205 F 
ENDBRANCH  19  22
ENDBRANCH  17  19
ENDBRANCH  16  17
ENDBRANCH  15  16
ENDBRANCH   1  15
TORSDOF 8
