REMARK  Name = ZINC38728274
REMARK  11 active torsions:
REMARK  status: ('A' for Active; 'I' for Inactive)
REMARK    1  A    between atoms: C_1  and  C_2
REMARK    2  A    between atoms: C_2  and  C_3
REMARK    3  A    between atoms: N_16  and  C_28
REMARK    4  A    between atoms: C_17  and  C_19
REMARK    5  A    between atoms: C_23  and  O_25
REMARK    6  A    between atoms: O_25  and  C_26
REMARK    7  A    between atoms: C_26  and  C_27
REMARK    8  A    between atoms: C_28  and  C_29
REMARK    9  A    between atoms: C_29  and  N_30
REMARK   10  A    between atoms: N_30  and  C_31
REMARK   11  A    between atoms: N_30  and  C_32
REMARK                            x       y       z     vdW  Elec       q    Type
REMARK                         _______ _______ _______ _____ _____    ______ ____
ROOT
ATOM      1  C   UNL     1       0.707  -0.490  -1.238  0.00  0.00    -0.047 A 
ATOM      2  C   UNL     1      -0.016  -0.719  -2.400  0.00  0.00    +0.007 A 
ATOM      3  C   UNL     1       0.609  -1.166  -3.543  0.00  0.00    +0.047 A 
ATOM      4  C   UNL     1       1.985  -1.393  -3.544  0.00  0.00    +0.139 A 
ATOM      5  C   UNL     1       2.707  -1.153  -2.364  0.00  0.00    +0.065 A 
ATOM      6  C   UNL     1       2.058  -0.699  -1.216  0.00  0.00    +0.019 A 
ATOM      7  C   UNL     1       4.175  -1.377  -2.359  0.00  0.00    +0.199 A 
ATOM      8  O   UNL     1       4.850  -1.357  -1.345  0.00  0.00    -0.287 OA
ATOM      9  C   UNL     1       4.734  -1.627  -3.692  0.00  0.00    +0.072 A 
ATOM     10  C   UNL     1       3.921  -1.838  -4.769  0.00  0.00    +0.199 A 
ATOM     11  O   UNL     1       2.576  -1.839  -4.675  0.00  0.00    -0.450 OA
ATOM     12  C   UNL     1       4.769  -2.048  -5.955  0.00  0.00    +0.283 C 
ATOM     13  O   UNL     1       4.356  -2.259  -7.078  0.00  0.00    -0.267 OA
ATOM     14  N   UNL     1       6.072  -1.972  -5.613  0.00  0.00    -0.285 N 
ATOM     15  C   UNL     1       6.148  -1.704  -4.167  0.00  0.00    +0.145 C 
ENDROOT
BRANCH  15  16
ATOM     16  C   UNL     1       6.871  -2.826  -3.468  0.00  0.00    -0.019 A 
ATOM     17  C   UNL     1       6.683  -4.132  -3.881  0.00  0.00    +0.006 A 
ATOM     18  C   UNL     1       7.344  -5.164  -3.241  0.00  0.00    +0.004 A 
ATOM     19  C   UNL     1       8.195  -4.892  -2.187  0.00  0.00    +0.045 A 
ATOM     20  C   UNL     1       8.386  -3.583  -1.772  0.00  0.00    +0.121 A 
ATOM     21  C   UNL     1       7.726  -2.548  -2.419  0.00  0.00    +0.051 A 
BRANCH  20  22
ATOM     22  O   UNL     1       9.223  -3.312  -0.735  0.00  0.00    -0.492 OA
BRANCH  22  23
ATOM     23  C   UNL     1       9.874  -4.426  -0.120  0.00  0.00    +0.225 C 
ATOM     24  C   UNL     1      10.768  -3.929   1.018  0.00  0.00    +0.048 C 
ENDBRANCH  22  23
ENDBRANCH  20  22
ENDBRANCH  15  16
BRANCH   1  26
ATOM     25  C   UNL     1      -0.019   1.526   0.010  0.00  0.00    +0.009 C 
ATOM     26  C   UNL     1       0.002  -0.004   0.002  0.00  0.00    +0.032 C 
ENDBRANCH   1  26
BRANCH  14  27
ATOM     27  C   UNL     1       7.211  -2.129  -6.520  0.00  0.00    +0.090 C 
BRANCH  27  28
ATOM     28  C   UNL     1       7.594  -0.765  -7.099  0.00  0.00    -0.060 C 
BRANCH  28  29
ATOM     29  N   UNL     1       8.736  -0.922  -8.009  0.00  0.00    +0.377 N 
ATOM     30  C   UNL     1       9.028   0.364  -8.655  0.00  0.00    -0.097 C 
ATOM     31  C   UNL     1       9.912  -1.365  -7.247  0.00  0.00    -0.097 C 
ATOM     32  H   UNL     1       8.513  -1.610  -8.713  0.00  0.00    -0.083 HD
ENDBRANCH  28  29
ENDBRANCH  27  28
ENDBRANCH  14  27
TORSDOF 7
