REMARK  Name = ZINC01428825
REMARK  5 active torsions:
REMARK  status: ('A' for Active; 'I' for Inactive)
REMARK    1  A    between atoms: C_1  and  C_2
REMARK    2  A    between atoms: C_7  and  N_8
REMARK    3  A    between atoms: C_9  and  C_11
REMARK    4  A    between atoms: C_11  and  N_12
REMARK    5  A    between atoms: C_13  and  C_20
REMARK                            x       y       z     vdW  Elec       q    Type
REMARK                         _______ _______ _______ _____ _____    ______ ____
ROOT
ATOM      1  N   UNL     1       2.403   1.106  -0.015  0.00  0.00    -0.284 N 
ATOM      2  C   UNL     1       2.426  -0.238   0.078  0.00  0.00    +0.239 C 
ATOM      3  O   UNL     1       1.387  -0.864   0.085  0.00  0.00    -0.273 OA
ATOM      4  H   UNL     1       3.233   1.602  -0.087  0.00  0.00    +0.155 HD
ENDROOT
BRANCH   1  11
ATOM      5  C   UNL     1       2.289   3.656   1.243  0.00  0.00    +0.046 C 
ATOM      6  C   UNL     1       1.080   3.033   0.592  0.00  0.00    -0.028 A 
ATOM      7  C   UNL     1      -0.128   3.703   0.596  0.00  0.00    +0.019 A 
ATOM      8  C   UNL     1      -1.238   3.132  -0.001  0.00  0.00    +0.014 A 
ATOM      9  C   UNL     1      -1.140   1.892  -0.607  0.00  0.00    +0.016 A 
ATOM     10  C   UNL     1       0.064   1.216  -0.608  0.00  0.00    +0.024 A 
ATOM     11  C   UNL     1       1.180   1.786  -0.010  0.00  0.00    +0.036 A 
ATOM     12  I   UNL     1      -3.069   4.151   0.006  0.00  0.00    -0.044 I 
ENDBRANCH   1  11
BRANCH   2  13
ATOM     13  C   UNL     1       3.744  -0.964   0.175  0.00  0.00    +0.239 C 
BRANCH  13  14
ATOM     14  N   UNL     1       3.502  -2.406   0.266  0.00  0.00    -0.258 N 
ATOM     15  C   UNL     1       3.337  -3.113   1.404  0.00  0.00    +0.039 A 
ATOM     16  C   UNL     1       3.134  -4.406   1.060  0.00  0.00    +0.077 A 
ATOM     17  C   UNL     1       3.185  -4.493  -0.335  0.00  0.00    +0.236 A 
ATOM     18  N   UNL     1       3.405  -3.295  -0.812  0.00  0.00    -0.146 NA
ATOM     19  N   UNL     1       3.020  -5.728  -1.134  0.00  0.00    +0.077 N 
ATOM     20  O   UNL     1       3.084  -5.681  -2.349  0.00  0.00    -0.125 OA
ATOM     21  O   UNL     1       2.818  -6.792  -0.576  0.00  0.00    -0.125 OA
ATOM     22  C   UNL     1       3.370  -2.561   2.805  0.00  0.00    +0.065 C 
ENDBRANCH  13  14
ENDBRANCH   2  13
TORSDOF 3
