REMARK  Name = ZINC63807973
REMARK  6 active torsions:
REMARK  status: ('A' for Active; 'I' for Inactive)
REMARK    1  A    between atoms: C_4  and  C_7
REMARK    2  A    between atoms: C_7  and  N_8
REMARK    3  A    between atoms: C_9  and  C_11
REMARK    4  A    between atoms: C_14  and  C_18
REMARK    5  A    between atoms: C_18  and  C_19
REMARK    6  A    between atoms: N_21  and  C_22
REMARK                            x       y       z     vdW  Elec       q    Type
REMARK                         _______ _______ _______ _____ _____    ______ ____
ROOT
ATOM      1  C   UNL     1       5.949  -1.858   3.001  0.00  0.00    +0.297 C 
ATOM      2  N   UNL     1       6.254  -0.561   3.660  0.00  0.00    -0.265 NA
ATOM      3  C   UNL     1       6.091  -0.883   5.103  0.00  0.00    +0.158 C 
ATOM      4  N   UNL     1       4.952  -1.830   5.122  0.00  0.00    -0.181 NA
ATOM      5  O   UNL     1       4.879  -2.426   3.779  0.00  0.00    -0.270 OA
ATOM      6  H   UNL     1       7.198  -0.268   3.459  0.00  0.00    +0.126 HD
ATOM      7  H   UNL     1       5.085  -2.541   5.825  0.00  0.00    +0.156 HD
ENDROOT
BRANCH   1   9
ATOM      8  N   UNL     1       4.317  -1.036   1.333  0.00  0.00    -0.308 N 
ATOM      9  C   UNL     1       5.501  -1.632   1.580  0.00  0.00    +0.259 C 
ATOM     10  O   UNL     1       6.205  -1.986   0.658  0.00  0.00    -0.271 OA
ATOM     11  H   UNL     1       3.754  -0.753   2.070  0.00  0.00    +0.149 HD
BRANCH   8  12
ATOM     12  C   UNL     1       3.882  -0.816  -0.048  0.00  0.00    +0.139 C 
BRANCH  12  16
ATOM     13  C   UNL     1       0.067   1.105  -0.052  0.00  0.00    +0.000 A 
ATOM     14  C   UNL     1       1.222   1.863  -0.050  0.00  0.00    +0.000 A 
ATOM     15  C   UNL     1       2.457   1.242  -0.049  0.00  0.00    +0.005 A 
ATOM     16  C   UNL     1       2.536  -0.138  -0.049  0.00  0.00    -0.030 A 
ATOM     17  C   UNL     1       1.380  -0.897  -0.051  0.00  0.00    +0.005 A 
ATOM     18  C   UNL     1       0.146  -0.275  -0.053  0.00  0.00    +0.000 A 
ENDBRANCH  12  16
ENDBRANCH   8  12
ENDBRANCH   1   9
BRANCH   3  19
ATOM     19  C   UNL     1       5.761   0.379   5.902  0.00  0.00    +0.132 C 
BRANCH  19  20
ATOM     20  C   UNL     1       5.723   0.048   7.371  0.00  0.00    +0.220 C 
ATOM     21  O   UNL     1       5.939  -1.086   7.743  0.00  0.00    -0.275 OA
ATOM     22  N   UNL     1       5.449   1.012   8.273  0.00  0.00    -0.286 N 
ATOM     23  H   UNL     1       5.347   1.932   7.983  0.00  0.00    +0.155 HD
BRANCH  22  24
ATOM     24  C   UNL     1       5.311   0.685   9.627  0.00  0.00    +0.032 C 
ATOM     25  C   UNL     1       4.161   0.996  10.249  0.00  0.00    +0.027 C 
ATOM     26  C   UNL     1       4.022   0.700  11.713  0.00  0.00    +0.160 C 
ATOM     27  C   UNL     1       4.924  -0.478  12.031  0.00  0.00    -0.018 C 
ATOM     28  C   UNL     1       4.160  -1.337  12.729  0.00  0.00    +0.025 C 
ATOM     29  C   UNL     1       2.824  -0.878  12.734  0.00  0.00    +0.106 C 
ATOM     30  N   UNL     1       2.695   0.271  12.131  0.00  0.00    -0.279 NA
ATOM     31  C   UNL     1       6.226  -0.596  11.507  0.00  0.00    +0.008 C 
ATOM     32  C   UNL     1       6.423   0.014  10.302  0.00  0.00    +0.023 C 
ENDBRANCH  22  24
ENDBRANCH  19  20
ENDBRANCH   3  19
TORSDOF 6
