REMARK  Name = ZINC40569384
REMARK  8 active torsions:
REMARK  status: ('A' for Active; 'I' for Inactive)
REMARK    1  A    between atoms: C_1  and  C_2
REMARK    2  A    between atoms: C_2  and  C_3
REMARK    3  A    between atoms: C_3  and  C_4
REMARK    4  A    between atoms: N_10  and  C_11
REMARK    5  A    between atoms: C_11  and  C_12
REMARK    6  A    between atoms: C_18  and  C_26
REMARK    7  A    between atoms: C_20  and  C_24
REMARK    8  A    between atoms: C_21  and  N_23
REMARK                            x       y       z     vdW  Elec       q    Type
REMARK                         _______ _______ _______ _____ _____    ______ ____
ROOT
ATOM      1  C   UNL     1       0.800  -1.864   1.048  0.00  0.00    +0.026 A 
ATOM      2  C   UNL     1       1.971  -2.332   0.565  0.00  0.00    +0.068 A 
ATOM      3  C   UNL     1       2.246  -3.714   0.616  0.00  0.00    +0.141 A 
ATOM      4  C   UNL     1       1.307  -4.563   1.162  0.00  0.00    +0.072 A 
ATOM      5  C   UNL     1       0.106  -4.032   1.650  0.00  0.00    +0.259 A 
ATOM      6  O   UNL     1      -0.735  -4.771   2.136  0.00  0.00    -0.267 OA
ATOM      7  N   UNL     1      -0.119  -2.706   1.589  0.00  0.00    -0.309 N 
ATOM      8  C   UNL     1       1.560  -6.044   1.237  0.00  0.00    +0.103 C 
ATOM      9  C   UNL     1       2.691  -6.423   0.322  0.00  0.00    +0.098 C 
ATOM     10  C   UNL     1       3.539  -5.490  -0.170  0.00  0.00    +0.199 C 
ATOM     11  O   UNL     1       3.416  -4.186   0.134  0.00  0.00    -0.441 OA
ENDROOT
BRANCH   8  12
ATOM     12  C   UNL     1       1.920  -6.417   2.652  0.00  0.00    -0.034 A 
ATOM     13  C   UNL     1       3.027  -5.851   3.256  0.00  0.00    +0.006 A 
ATOM     14  C   UNL     1       3.358  -6.193   4.554  0.00  0.00    +0.020 A 
ATOM     15  C   UNL     1       2.580  -7.103   5.248  0.00  0.00    +0.041 A 
ATOM     16  C   UNL     1       1.472  -7.669   4.644  0.00  0.00    +0.020 A 
ATOM     17  C   UNL     1       1.139  -7.322   3.348  0.00  0.00    +0.006 A 
ATOM     18 CL   UNL     1       2.995  -7.534   6.878  0.00  0.00    -0.084 Cl
ENDBRANCH   8  12
BRANCH  10  19
ATOM     19  N   UNL     1       4.556  -5.886  -1.002  0.00  0.00    -0.328 N 
ATOM     20  H   UNL     1       4.659  -6.824  -1.230  0.00  0.00    +0.145 HD
ATOM     21  H   UNL     1       5.173  -5.230  -1.362  0.00  0.00    +0.145 HD
ENDBRANCH  10  19
BRANCH   9  22
ATOM     22  C   UNL     1       2.873  -7.797  -0.037  0.00  0.00    +0.101 C 
ATOM     23  N   UNL     1       3.018  -8.887  -0.322  0.00  0.00    -0.191 NA
ENDBRANCH   9  22
BRANCH   1  24
ATOM     24  C   UNL     1       0.511  -0.386   0.991  0.00  0.00    +0.053 C 
BRANCH  24  26
ATOM     25  C   UNL     1       0.799   1.792   2.182  0.00  0.00    +0.004 C 
ATOM     26  C   UNL     1       0.993   0.278   2.283  0.00  0.00    +0.003 C 
ENDBRANCH  24  26
ENDBRANCH   1  24
BRANCH   7  27
ATOM     27  C   UNL     1      -1.377  -2.163   2.109  0.00  0.00    +0.156 C 
BRANCH  27  28
ATOM     28  C   UNL     1      -2.396  -2.061   0.973  0.00  0.00    +0.138 C 
ATOM     29  C   UNL     1      -3.693  -1.403   1.490  0.00  0.00    +0.035 C 
ATOM     30  C   UNL     1      -4.792  -2.223   0.761  0.00  0.00    +0.031 C 
ATOM     31  C   UNL     1      -4.131  -3.623   0.712  0.00  0.00    +0.160 C 
ATOM     32  O   UNL     1      -2.731  -3.371   0.501  0.00  0.00    -0.375 OA
ENDBRANCH  27  28
ENDBRANCH   7  27
TORSDOF 7
