REMARK  Name = ZINC04557085
REMARK  7 active torsions:
REMARK  status: ('A' for Active; 'I' for Inactive)
REMARK    1  A    between atoms: C_1  and  C_2
REMARK    2  A    between atoms: C_11  and  O_13
REMARK    3  A    between atoms: O_13  and  C_14
REMARK    4  A    between atoms: C_16  and  N_37
REMARK    5  A    between atoms: C_18  and  O_36
REMARK    6  A    between atoms: C_27  and  C_30
REMARK    7  A    between atoms: C_38  and  C_40
REMARK                            x       y       z     vdW  Elec       q    Type
REMARK                         _______ _______ _______ _____ _____    ______ ____
ROOT
ATOM      1  C   UNL     1      -2.185  -4.247  -0.002  0.00  0.00    +0.331 C 
ATOM      2  C   UNL     1      -3.564  -4.862  -0.244  0.00  0.00    +0.173 C 
ATOM      3  C   UNL     1      -3.469  -6.391  -0.166  0.00  0.00    +0.172 C 
ATOM      4  C   UNL     1      -2.879  -6.770   1.193  0.00  0.00    +0.183 C 
ATOM      5  C   UNL     1      -1.504  -6.105   1.332  0.00  0.00    +0.179 C 
ATOM      6  O   UNL     1      -1.664  -4.691   1.255  0.00  0.00    -0.332 OA
ATOM      7  C   UNL     1      -0.899  -6.522   2.674  0.00  0.00    +0.197 C 
ATOM      8  O   UNL     1      -0.863  -7.954   2.727  0.00  0.00    -0.345 OA
ATOM      9  C   UNL     1      -2.134  -8.582   2.554  0.00  0.00    +0.282 C 
ATOM     10  O   UNL     1      -2.714  -8.184   1.306  0.00  0.00    -0.339 OA
ENDROOT
BRANCH   9  11
ATOM     11  C   UNL     1      -1.957 -10.079   2.567  0.00  0.00    +0.008 A 
ATOM     12  C   UNL     1      -2.334 -10.829   1.468  0.00  0.00    +0.008 A 
ATOM     13  C   UNL     1      -2.167 -12.201   1.479  0.00  0.00    +0.000 A 
ATOM     14  C   UNL     1      -1.634 -12.824   2.591  0.00  0.00    +0.000 A 
ATOM     15  C   UNL     1      -1.262 -12.075   3.692  0.00  0.00    +0.000 A 
ATOM     16  C   UNL     1      -1.424 -10.702   3.679  0.00  0.00    +0.008 A 
ENDBRANCH   9  11
BRANCH   2  17
ATOM     17  N   UNL     1      -4.499  -4.379   0.776  0.00  0.00    -0.304 N 
ATOM     18  C   UNL     1      -5.135  -3.204   0.604  0.00  0.00    +0.210 C 
ATOM     19  O   UNL     1      -4.934  -2.546  -0.395  0.00  0.00    -0.276 OA
ATOM     20  C   UNL     1      -6.097  -2.707   1.653  0.00  0.00    +0.109 C 
ATOM     21  H   UNL     1      -4.660  -4.906   1.575  0.00  0.00    +0.149 HD
ENDBRANCH   2  17
BRANCH   3  22
ATOM     22  O   UNL     1      -4.772  -6.961  -0.300  0.00  0.00    -0.387 OA
ATOM     23  H   UNL     1      -5.212  -6.746  -1.134  0.00  0.00    +0.210 HD
ENDBRANCH   3  22
BRANCH   1  24
ATOM     24  O   UNL     1      -2.296  -2.822   0.007  0.00  0.00    -0.461 OA
BRANCH  24  35
ATOM     25  C   UNL     1       3.816  -0.600  -0.037  0.00  0.00    +0.045 C 
ATOM     26  C   UNL     1       2.475   0.087  -0.021  0.00  0.00    -0.033 A 
ATOM     27  C   UNL     1       2.386   1.443  -0.012  0.00  0.00    +0.096 A 
ATOM     28  C   UNL     1       1.119   2.062   0.002  0.00  0.00    +0.337 A 
ATOM     29  O   UNL     1       1.053   3.278   0.010  0.00  0.00    -0.245 OA
ATOM     30  O   UNL     1      -0.016   1.346   0.009  0.00  0.00    -0.422 OA
ATOM     31  C   UNL     1       0.002  -0.004   0.002  0.00  0.00    +0.143 A 
ATOM     32  C   UNL     1       1.232  -0.688  -0.013  0.00  0.00    +0.021 A 
ATOM     33  C   UNL     1       1.256  -2.087  -0.022  0.00  0.00    +0.015 A 
ATOM     34  C   UNL     1       0.083  -2.785  -0.015  0.00  0.00    +0.046 A 
ATOM     35  C   UNL     1      -1.138  -2.114   0.001  0.00  0.00    +0.127 A 
ATOM     36  C   UNL     1      -1.180  -0.729   0.009  0.00  0.00    +0.092 A 
ENDBRANCH  24  35
ENDBRANCH   1  24
TORSDOF 5
