REMARK  Name = ZINC12401503
REMARK  6 active torsions:
REMARK  status: ('A' for Active; 'I' for Inactive)
REMARK    1  A    between atoms: C_1  and  C_2
REMARK    2  A    between atoms: C_2  and  C_3
REMARK    3  A    between atoms: C_3  and  N_4
REMARK    4  A    between atoms: C_17  and  S_18
REMARK    5  A    between atoms: S_18  and  C_19
REMARK    6  A    between atoms: C_19  and  C_20
REMARK                            x       y       z     vdW  Elec       q    Type
REMARK                         _______ _______ _______ _____ _____    ______ ____
ROOT
ATOM      1  S   UNL     1       4.734   4.627  -2.161  0.00  0.00    -0.078 S 
ENDROOT
BRANCH   1  15
ATOM      2  N   UNL     1       7.398   8.694  -3.924  0.00  0.00    -0.277 N 
ATOM      3  C   UNL     1       7.156   8.530  -5.240  0.00  0.00    +0.263 A 
ATOM      4  O   UNL     1       7.619   9.306  -6.055  0.00  0.00    -0.267 OA
ATOM      5  C   UNL     1       6.322   7.395  -5.675  0.00  0.00    +0.064 A 
ATOM      6  C   UNL     1       6.040   7.178  -7.022  0.00  0.00    +0.015 A 
ATOM      7  C   UNL     1       5.256   6.105  -7.390  0.00  0.00    +0.001 A 
ATOM      8  C   UNL     1       4.749   5.245  -6.428  0.00  0.00    +0.002 A 
ATOM      9  C   UNL     1       5.022   5.450  -5.089  0.00  0.00    +0.027 A 
ATOM     10  C   UNL     1       5.808   6.524  -4.702  0.00  0.00    +0.064 A 
ATOM     11  N   UNL     1       6.103   6.750  -3.359  0.00  0.00    -0.256 N 
ATOM     12  C   UNL     1       6.877   7.815  -2.986  0.00  0.00    +0.240 A 
ATOM     13  N   UNL     1       6.988   7.792  -1.677  0.00  0.00    -0.109 NA
ATOM     14  N   UNL     1       6.267   6.691  -1.198  0.00  0.00    -0.120 NA
ATOM     15  C   UNL     1       5.737   6.075  -2.226  0.00  0.00    +0.198 A 
BRANCH   2  16
ATOM     16  C   UNL     1       8.226   9.817  -3.477  0.00  0.00    +0.128 C 
BRANCH  16  18
ATOM     17  C   UNL     1      10.558  10.557  -2.970  0.00  0.00    +0.005 C 
ATOM     18  C   UNL     1       9.693   9.384  -3.436  0.00  0.00    +0.018 C 
ENDBRANCH  16  18
ENDBRANCH   2  16
ENDBRANCH   1  15
BRANCH   1  19
ATOM     19  C   UNL     1       4.636   4.240  -0.392  0.00  0.00    +0.153 C 
BRANCH  19  20
ATOM     20  C   UNL     1       3.795   3.006  -0.193  0.00  0.00    +0.143 A 
ATOM     21  N   UNL     1       4.377   1.819  -0.200  0.00  0.00    -0.216 NA
ATOM     22  C   UNL     1       3.694   0.699  -0.031  0.00  0.00    +0.128 A 
ATOM     23  C   UNL     1       2.287   0.769   0.165  0.00  0.00    +0.051 A 
ATOM     24  C   UNL     1       1.337  -0.330   0.373  0.00  0.00    -0.025 A 
ATOM     25  C   UNL     1       0.042   0.011   0.531  0.00  0.00    -0.004 A 
ATOM     26  S   UNL     1       0.009   1.782   0.422  0.00  0.00    -0.073 S 
ATOM     27  C   UNL     1       1.739   2.066   0.159  0.00  0.00    +0.114 A 
ATOM     28  N   UNL     1       2.494   3.134  -0.017  0.00  0.00    -0.224 NA
ATOM     29  C   UNL     1      -1.127  -0.901   0.738  0.00  0.00    +0.043 C 
ATOM     30  C   UNL     1      -0.797  -1.906   1.850  0.00  0.00    +0.005 C 
ATOM     31  C   UNL     1      -0.148  -3.130   1.212  0.00  0.00    +0.001 C 
ATOM     32  C   UNL     1       0.675  -2.711  -0.004  0.00  0.00    +0.005 C 
ATOM     33  C   UNL     1       1.808  -1.781   0.413  0.00  0.00    +0.037 C 
ATOM     34  N   UNL     1       4.340  -0.525  -0.045  0.00  0.00    -0.343 N 
ATOM     35  H   UNL     1       5.169  -0.630  -0.537  0.00  0.00    +0.144 HD
ATOM     36  H   UNL     1       3.963  -1.278   0.436  0.00  0.00    +0.144 HD
ENDBRANCH  19  20
ENDBRANCH   1  19
TORSDOF 5
