REMARK  Name = ZINC58891065
REMARK  9 active torsions:
REMARK  status: ('A' for Active; 'I' for Inactive)
REMARK    1  A    between atoms: C_4  and  C_7
REMARK    2  A    between atoms: C_7  and  C_9
REMARK    3  A    between atoms: C_7  and  O_34
REMARK    4  A    between atoms: C_9  and  C_10
REMARK    5  A    between atoms: C_10  and  C_11
REMARK    6  A    between atoms: N_13  and  N_14
REMARK    7  A    between atoms: C_15  and  C_16
REMARK    8  A    between atoms: N_18  and  C_25
REMARK    9  A    between atoms: C_25  and  C_26
REMARK                            x       y       z     vdW  Elec       q    Type
REMARK                         _______ _______ _______ _____ _____    ______ ____
ROOT
ATOM      1  C   UNL     1       9.407  -3.865  -3.683  0.00  0.00    +0.020 A 
ATOM      2  C   UNL     1      10.704  -4.254  -3.807  0.00  0.00    +0.096 A 
ATOM      3  N   UNL     1      11.253  -4.424  -2.571  0.00  0.00    -0.342 N 
ATOM      4  C   UNL     1      10.321  -4.148  -1.593  0.00  0.00    +0.050 A 
ATOM      5  C   UNL     1       9.129  -3.781  -2.239  0.00  0.00    +0.009 A 
ATOM      6  C   UNL     1       8.005  -3.439  -1.489  0.00  0.00    +0.010 A 
ATOM      7  C   UNL     1       8.072  -3.461  -0.113  0.00  0.00    +0.001 A 
ATOM      8  C   UNL     1       9.250  -3.820   0.526  0.00  0.00    +0.002 A 
ATOM      9  C   UNL     1      10.366  -4.168  -0.203  0.00  0.00    +0.026 A 
ENDROOT
BRANCH   1  11
ATOM     10  N   UNL     1       8.681  -4.064  -5.964  0.00  0.00    -0.188 NA
ATOM     11  C   UNL     1       8.466  -3.578  -4.778  0.00  0.00    +0.140 C 
BRANCH  10  14
ATOM     12  C   UNL     1       9.985  -5.444  -7.400  0.00  0.00    +0.232 C 
ATOM     13  O   UNL     1       9.388  -4.991  -8.355  0.00  0.00    -0.274 OA
ATOM     14  N   UNL     1       9.684  -5.023  -6.156  0.00  0.00    -0.207 N 
ATOM     15  H   UNL     1      10.162  -5.385  -5.393  0.00  0.00    +0.177 HD
BRANCH  12  16
ATOM     16  C   UNL     1      11.064  -6.475  -7.607  0.00  0.00    +0.100 C 
BRANCH  16  17
ATOM     17  C   UNL     1      11.205  -6.773  -9.101  0.00  0.00    +0.045 C 
BRANCH  17  18
ATOM     18  C   UNL     1      12.301  -7.821  -9.311  0.00  0.00    +0.145 C 
BRANCH  18  22
ATOM     19  C   UNL     1      12.456  -8.908 -13.439  0.00  0.00    +0.000 A 
ATOM     20  C   UNL     1      11.717  -9.668 -12.552  0.00  0.00    +0.000 A 
ATOM     21  C   UNL     1      11.667  -9.316 -11.216  0.00  0.00    +0.006 A 
ATOM     22  C   UNL     1      12.356  -8.205 -10.767  0.00  0.00    -0.019 A 
ATOM     23  C   UNL     1      13.096  -7.446 -11.654  0.00  0.00    +0.006 A 
ATOM     24  C   UNL     1      13.145  -7.796 -12.990  0.00  0.00    +0.000 A 
ENDBRANCH  18  22
BRANCH  18  25
ATOM     25  O   UNL     1      13.561  -7.278  -8.913  0.00  0.00    -0.387 OA
ATOM     26  H   UNL     1      13.823  -6.489  -9.406  0.00  0.00    +0.210 HD
ENDBRANCH  18  25
ENDBRANCH  17  18
ENDBRANCH  16  17
ENDBRANCH  12  16
ENDBRANCH  10  14
ENDBRANCH   1  11
BRANCH   3  27
ATOM     27  C   UNL     1      12.634  -4.840  -2.318  0.00  0.00    +0.158 C 
BRANCH  27  28
ATOM     28  C   UNL     1      12.681  -6.332  -2.115  0.00  0.00    -0.009 A 
ATOM     29  C   UNL     1      12.631  -6.859  -0.838  0.00  0.00    +0.008 A 
ATOM     30  C   UNL     1      12.673  -8.227  -0.651  0.00  0.00    +0.020 A 
ATOM     31  C   UNL     1      12.764  -9.072  -1.744  0.00  0.00    +0.042 A 
ATOM     32  C   UNL     1      12.814  -8.546  -3.022  0.00  0.00    +0.040 A 
ATOM     33  C   UNL     1      12.767  -7.176  -3.208  0.00  0.00    +0.047 A 
ATOM     34 CL   UNL     1      12.822  -6.516  -4.813  0.00  0.00    -0.083 Cl
ATOM     35 CL   UNL     1      12.818 -10.791  -1.509  0.00  0.00    -0.083 Cl
ENDBRANCH  27  28
ENDBRANCH   3  27
TORSDOF 9
