REMARK  Name = ZINC66835404
REMARK  7 active torsions:
REMARK  status: ('A' for Active; 'I' for Inactive)
REMARK    1  A    between atoms: C_1  and  O_2
REMARK    2  A    between atoms: O_2  and  C_3
REMARK    3  A    between atoms: C_3  and  C_5
REMARK    4  A    between atoms: N_10  and  C_12
REMARK    5  A    between atoms: C_12  and  C_13
REMARK    6  A    between atoms: N_15  and  C_16
REMARK    7  A    between atoms: C_17  and  C_25
REMARK                            x       y       z     vdW  Elec       q    Type
REMARK                         _______ _______ _______ _____ _____    ______ ____
ROOT
ATOM      1  C   UNL     1      -4.226  -5.987  -0.190  0.00  0.00    +0.201 C 
ATOM      2  O   UNL     1      -3.201  -6.633  -0.231  0.00  0.00    -0.278 OA
ATOM      3  N   UNL     1      -5.419  -6.611  -0.268  0.00  0.00    -0.281 N 
ATOM      4  H   UNL     1      -6.239  -6.094  -0.235  0.00  0.00    +0.155 HD
ENDROOT
BRANCH   3   5
ATOM      5  C   UNL     1      -5.473  -7.990  -0.395  0.00  0.00    +0.084 A 
ATOM      6  C   UNL     1      -6.598  -8.794  -0.494  0.00  0.00    +0.068 A 
ATOM      7  C   UNL     1      -6.384 -10.225  -0.620  0.00  0.00    -0.023 A 
ATOM      8  C   UNL     1      -5.084 -10.590  -0.622  0.00  0.00    -0.004 A 
ATOM      9  S   UNL     1      -4.190  -9.071  -0.472  0.00  0.00    -0.077 S 
ATOM     10  C   UNL     1      -4.541 -11.981  -0.735  0.00  0.00    +0.043 C 
ATOM     11  C   UNL     1      -5.686 -12.969  -0.467  0.00  0.00    +0.005 C 
ATOM     12  C   UNL     1      -6.904 -12.553  -1.298  0.00  0.00    +0.005 C 
ATOM     13  C   UNL     1      -7.496 -11.256  -0.740  0.00  0.00    +0.037 C 
BRANCH   6  14
ATOM     14  C   UNL     1      -7.948  -8.223  -0.473  0.00  0.00    +0.244 C 
ATOM     15  O   UNL     1      -8.485  -7.890  -1.513  0.00  0.00    -0.270 OA
ATOM     16  N   UNL     1      -8.595  -8.066   0.699  0.00  0.00    -0.325 N 
ATOM     17  H   UNL     1      -8.168  -8.331   1.528  0.00  0.00    +0.145 HD
ATOM     18  H   UNL     1      -9.489  -7.688   0.713  0.00  0.00    +0.145 HD
ENDBRANCH   6  14
ENDBRANCH   3   5
BRANCH   1  19
ATOM     19  C   UNL     1      -4.168  -4.488  -0.052  0.00  0.00    +0.019 C 
BRANCH  19  24
ATOM     20  C   UNL     1      -1.244  -2.135   0.003  0.00  0.00    +0.081 C 
ATOM     21  C   UNL     1      -0.533  -2.681   1.244  0.00  0.00    +0.011 C 
ATOM     22  C   UNL     1      -0.665  -4.207   1.267  0.00  0.00    -0.018 C 
ATOM     23  C   UNL     1      -2.148  -4.585   1.235  0.00  0.00    -0.078 C 
ATOM     24  N   UNL     1      -2.765  -4.057   0.013  0.00  0.00    +0.386 N 
ATOM     25  C   UNL     1      -2.705  -2.590   0.016  0.00  0.00    -0.064 C 
ATOM     26  H   UNL     1      -2.269  -4.410  -0.792  0.00  0.00    -0.081 HD
BRANCH  20  27
ATOM     27  C   UNL     1      -1.185  -0.630   0.010  0.00  0.00    +0.308 C 
ATOM     28  O   UNL     1      -2.208   0.015   0.023  0.00  0.00    -0.251 OA
BRANCH  27  30
ATOM     29  C   UNL     1      -0.017   1.425   0.010  0.00  0.00    +0.280 C 
ATOM     30  O   UNL     1       0.002  -0.004   0.002  0.00  0.00    -0.468 OA
ENDBRANCH  27  30
ENDBRANCH  20  27
ENDBRANCH  19  24
ENDBRANCH   1  19
TORSDOF 6
