REMARK  Name = ZINC45995862
REMARK  12 active torsions:
REMARK  status: ('A' for Active; 'I' for Inactive)
REMARK    1  A    between atoms: C_1  and  C_2
REMARK    2  A    between atoms: C_2  and  C_3
REMARK    3  A    between atoms: C_3  and  C_5
REMARK    4  A    between atoms: C_3  and  O_30
REMARK    5  A    between atoms: N_7  and  C_8
REMARK    6  A    between atoms: C_12  and  C_15
REMARK    7  A    between atoms: C_13  and  C_14
REMARK    8  A    between atoms: C_15  and  O_17
REMARK    9  A    between atoms: O_17  and  C_18
REMARK   10  A    between atoms: C_18  and  C_19
REMARK   11  A    between atoms: C_27  and  C_29
REMARK   12  A    between atoms: O_30  and  C_31
REMARK                            x       y       z     vdW  Elec       q    Type
REMARK                         _______ _______ _______ _____ _____    ______ ____
ROOT
ATOM      1  C   UNL     1      -1.378  -3.437  -1.683  0.00  0.00    +0.037 A 
ATOM      2  C   UNL     1      -2.259  -4.042  -0.794  0.00  0.00    +0.023 A 
ATOM      3  C   UNL     1      -2.552  -5.387  -0.911  0.00  0.00    +0.003 A 
ATOM      4  C   UNL     1      -1.972  -6.140  -1.912  0.00  0.00    +0.015 A 
ATOM      5  C   UNL     1      -1.085  -5.543  -2.810  0.00  0.00    +0.064 A 
ATOM      6  C   UNL     1      -0.794  -4.183  -2.695  0.00  0.00    -0.015 A 
ATOM      7  C   UNL     1       0.157  -3.529  -3.664  0.00  0.00    +0.046 C 
ENDROOT
BRANCH   1  10
ATOM      8  C   UNL     1      -1.984  -1.240  -1.002  0.00  0.00    +0.258 C 
ATOM      9  O   UNL     1      -3.010  -1.681  -0.531  0.00  0.00    -0.271 OA
ATOM     10  N   UNL     1      -1.085  -2.074  -1.560  0.00  0.00    -0.282 N 
ATOM     11  H   UNL     1      -0.235  -1.730  -1.877  0.00  0.00    +0.155 HD
BRANCH   8  12
ATOM     12  C   UNL     1      -1.713   0.242  -0.963  0.00  0.00    +0.259 C 
BRANCH  12  14
ATOM     13  C   UNL     1      -0.147   2.004  -0.134  0.00  0.00    +0.008 C 
ATOM     14  C   UNL     1      -0.498   0.516  -0.074  0.00  0.00    +0.051 C 
ENDBRANCH  12  14
BRANCH  12  15
ATOM     15  O   UNL     1      -2.853   0.921  -0.433  0.00  0.00    -0.480 OA
BRANCH  15  16
ATOM     16  C   UNL     1      -3.106   2.168  -0.910  0.00  0.00    +0.122 A 
ATOM     17  C   UNL     1      -2.336   2.687  -1.942  0.00  0.00    +0.045 A 
ATOM     18  C   UNL     1      -2.596   3.954  -2.425  0.00  0.00    +0.004 A 
ATOM     19  C   UNL     1      -3.621   4.707  -1.883  0.00  0.00    +0.000 A 
ATOM     20  C   UNL     1      -4.389   4.192  -0.854  0.00  0.00    +0.004 A 
ATOM     21  C   UNL     1      -4.138   2.923  -0.371  0.00  0.00    +0.045 A 
ENDBRANCH  15  16
ENDBRANCH  12  15
ENDBRANCH   8  12
ENDBRANCH   1  10
BRANCH   5  22
ATOM     22  C   UNL     1      -0.462  -6.346  -3.882  0.00  0.00    +0.340 C 
ATOM     23  O   UNL     1       0.259  -5.812  -4.700  0.00  0.00    -0.245 OA
BRANCH  22  24
ATOM     24  O   UNL     1      -0.694  -7.672  -3.951  0.00  0.00    -0.455 OA
BRANCH  24  25
ATOM     25  C   UNL     1      -0.059  -8.386  -5.014  0.00  0.00    +0.288 C 
BRANCH  25  26
ATOM     26  C   UNL     1      -0.431  -9.844  -4.931  0.00  0.00    +0.086 A 
ATOM     27  C   UNL     1      -1.172 -10.424  -5.940  0.00  0.00    +0.100 A 
ATOM     28  C   UNL     1      -1.505 -11.783  -5.838  0.00  0.00    +0.287 A 
ATOM     29  O   UNL     1      -2.160 -12.330  -6.713  0.00  0.00    -0.265 OA
ATOM     30  N   UNL     1      -1.090 -12.474  -4.759  0.00  0.00    -0.119 N 
ATOM     31  C   UNL     1      -0.361 -11.856  -3.790  0.00  0.00    +0.177 A 
ATOM     32  N   UNL     1      -0.042 -10.569  -3.892  0.00  0.00    -0.228 NA
ATOM     33  C   UNL     1      -0.080 -12.827  -2.804  0.00  0.00    +0.093 A 
ATOM     34  C   UNL     1      -0.633 -13.992  -3.187  0.00  0.00    +0.134 A 
ATOM     35  O   UNL     1      -1.253 -13.823  -4.363  0.00  0.00    -0.373 OA
ATOM     36  C   UNL     1      -0.565 -15.285  -2.415  0.00  0.00    +0.089 C 
ENDBRANCH  25  26
ENDBRANCH  24  25
ENDBRANCH  22  24
ENDBRANCH   5  22
TORSDOF 9
