REMARK  Name = ZINC38714727
REMARK  14 active torsions:
REMARK  status: ('A' for Active; 'I' for Inactive)
REMARK    1  A    between atoms: C_1  and  C_2
REMARK    2  A    between atoms: C_2  and  C_3
REMARK    3  A    between atoms: C_3  and  O_4
REMARK    4  A    between atoms: O_4  and  C_5
REMARK    5  A    between atoms: C_8  and  C_13
REMARK    6  A    between atoms: C_10  and  O_11
REMARK    7  A    between atoms: O_11  and  C_12
REMARK    8  A    between atoms: C_21  and  C_35
REMARK    9  A    between atoms: N_28  and  C_29
REMARK   10  A    between atoms: C_29  and  C_30
REMARK   11  A    between atoms: C_30  and  C_31
REMARK   12  A    between atoms: C_31  and  N_32
REMARK   13  A    between atoms: N_32  and  C_33
REMARK   14  A    between atoms: N_32  and  C_34
REMARK                            x       y       z     vdW  Elec       q    Type
REMARK                         _______ _______ _______ _____ _____    ______ ____
ROOT
ATOM      1  C   UNL     1      -6.403  -4.585   0.038  0.00  0.00    +0.145 C 
ATOM      2  C   UNL     1      -6.990  -4.558   1.411  0.00  0.00    +0.072 A 
ATOM      3  C   UNL     1      -6.507  -5.114   2.680  0.00  0.00    +0.199 A 
ATOM      4  O   UNL     1      -5.388  -5.573   2.824  0.00  0.00    -0.287 OA
ATOM      5  C   UNL     1      -7.511  -5.062   3.772  0.00  0.00    +0.066 A 
ATOM      6  C   UNL     1      -7.279  -5.727   4.976  0.00  0.00    +0.035 A 
ATOM      7  C   UNL     1      -8.225  -5.673   5.976  0.00  0.00    +0.045 A 
ATOM      8  C   UNL     1      -9.402  -4.960   5.784  0.00  0.00    -0.029 A 
ATOM      9  C   UNL     1      -9.641  -4.300   4.600  0.00  0.00    +0.051 A 
ATOM     10  C   UNL     1      -8.697  -4.337   3.573  0.00  0.00    +0.140 A 
ATOM     11  O   UNL     1      -8.953  -3.670   2.424  0.00  0.00    -0.450 OA
ATOM     12  C   UNL     1      -8.173  -3.879   1.345  0.00  0.00    +0.199 A 
ATOM     13  C   UNL     1      -8.387  -3.459  -0.051  0.00  0.00    +0.283 C 
ATOM     14  O   UNL     1      -9.351  -2.836  -0.450  0.00  0.00    -0.267 OA
ATOM     15  N   UNL     1      -7.358  -3.868  -0.823  0.00  0.00    -0.284 N 
ATOM     16  C   UNL     1     -10.431  -4.910   6.884  0.00  0.00    +0.045 C 
ATOM     17 CL   UNL     1      -7.946  -6.496   7.479  0.00  0.00    -0.083 Cl
ENDROOT
BRANCH   1  21
ATOM     18  C   UNL     1      -2.617  -2.596   0.013  0.00  0.00    +0.162 A 
ATOM     19  C   UNL     1      -3.790  -1.859   0.022  0.00  0.00    +0.050 A 
ATOM     20  C   UNL     1      -5.013  -2.505   0.030  0.00  0.00    +0.009 A 
ATOM     21  C   UNL     1      -5.068  -3.886   0.029  0.00  0.00    -0.019 A 
ATOM     22  C   UNL     1      -3.901  -4.628   0.020  0.00  0.00    +0.055 A 
ATOM     23  C   UNL     1      -2.673  -3.987   0.006  0.00  0.00    +0.162 A 
BRANCH  23  24
ATOM     24  O   UNL     1      -1.524  -4.715  -0.009  0.00  0.00    -0.491 OA
ATOM     25  C   UNL     1      -1.658  -6.138  -0.015  0.00  0.00    +0.277 C 
ENDBRANCH  23  24
BRANCH  18  26
ATOM     26  O   UNL     1      -1.414  -1.962   0.005  0.00  0.00    -0.488 OA
BRANCH  26  27
ATOM     27  C   UNL     1      -1.433  -0.534   0.013  0.00  0.00    +0.229 C 
BRANCH  27  29
ATOM     28  C   UNL     1      -0.019   1.526   0.010  0.00  0.00    +0.007 C 
ATOM     29  C   UNL     1       0.002  -0.004   0.002  0.00  0.00    +0.038 C 
ENDBRANCH  27  29
ENDBRANCH  26  27
ENDBRANCH  18  26
ENDBRANCH   1  21
BRANCH  15  30
ATOM     30  C   UNL     1      -7.214  -3.637  -2.262  0.00  0.00    +0.107 C 
BRANCH  30  31
ATOM     31  C   UNL     1      -7.853  -4.795  -3.031  0.00  0.00    +0.000 C 
BRANCH  31  32
ATOM     32  C   UNL     1      -7.703  -4.554  -4.534  0.00  0.00    -0.078 C 
BRANCH  32  33
ATOM     33  N   UNL     1      -8.317  -5.666  -5.272  0.00  0.00    +0.376 N 
ATOM     34  C   UNL     1      -8.280  -5.378  -6.712  0.00  0.00    -0.097 C 
ATOM     35  C   UNL     1      -7.574  -6.904  -5.000  0.00  0.00    -0.097 C 
ATOM     36  H   UNL     1      -9.276  -5.777  -4.976  0.00  0.00    -0.083 HD
ENDBRANCH  32  33
ENDBRANCH  31  32
ENDBRANCH  30  31
ENDBRANCH  15  30
TORSDOF 9
