REMARK  Name = ZINC12292377
REMARK  9 active torsions:
REMARK  status: ('A' for Active; 'I' for Inactive)
REMARK    1  A    between atoms: C_1  and  C_2
REMARK    2  A    between atoms: C_2  and  O_3
REMARK    3  A    between atoms: O_3  and  C_4
REMARK    4  A    between atoms: C_7  and  C_10
REMARK    5  A    between atoms: C_10  and  C_12
REMARK    6  A    between atoms: C_10  and  O_28
REMARK    7  A    between atoms: C_12  and  N_55
REMARK    8  A    between atoms: C_15  and  C_18
REMARK    9  A    between atoms: C_15  and  O_27
REMARK                            x       y       z     vdW  Elec       q    Type
REMARK                         _______ _______ _______ _____ _____    ______ ____
ROOT
ATOM      1  C   UNL     1      -0.124  -4.334   0.755  0.00  0.00    -0.076 C 
ATOM      2  C   UNL     1      -0.141  -2.811   0.908  0.00  0.00    +0.021 C 
ATOM      3  C   UNL     1       1.119  -2.225   0.265  0.00  0.00    +0.088 C 
ATOM      4  C   UNL     1       1.175  -2.644  -1.206  0.00  0.00    +0.021 C 
ATOM      5  C   UNL     1       1.153  -4.172  -1.298  0.00  0.00    -0.076 C 
ATOM      6  N   UNL     1      -0.096  -4.672  -0.684  0.00  0.00    +0.382 N 
ATOM      7  H   UNL     1      -0.896  -4.225  -1.147  0.00  0.00    -0.082 HD
ENDROOT
BRANCH   3   8
ATOM      8  C   UNL     1       1.080  -0.722   0.359  0.00  0.00    -0.013 A 
ATOM      9  C   UNL     1      -0.135  -0.062   0.359  0.00  0.00    +0.010 A 
ATOM     10  C   UNL     1      -0.176   1.317   0.445  0.00  0.00    +0.050 A 
ATOM     11  C   UNL     1       1.001   2.042   0.531  0.00  0.00    +0.166 A 
ATOM     12  C   UNL     1       2.225   1.377   0.531  0.00  0.00    +0.167 A 
ATOM     13  C   UNL     1       2.259  -0.005   0.446  0.00  0.00    +0.056 A 
ATOM     14  O   UNL     1       3.224   2.303   0.624  0.00  0.00    -0.453 OA
ATOM     15  C   UNL     1       2.618   3.560   0.270  0.00  0.00    +0.466 C 
ATOM     16  O   UNL     1       1.233   3.384   0.625  0.00  0.00    -0.453 OA
ENDBRANCH   3   8
BRANCH   3  17
ATOM     17  O   UNL     1       2.275  -2.716   0.947  0.00  0.00    -0.384 OA
ATOM     18  H   UNL     1       3.112  -2.386   0.591  0.00  0.00    +0.211 HD
ENDBRANCH   3  17
BRANCH   6  19
ATOM     19  C   UNL     1      -0.194  -6.135  -0.861  0.00  0.00    -0.042 C 
BRANCH  19  20
ATOM     20  C   UNL     1       1.129  -6.811  -0.495  0.00  0.00    +0.128 C 
BRANCH  20  24
ATOM     21  C   UNL     1       0.916 -10.971  -1.449  0.00  0.00    +0.121 A 
ATOM     22  C   UNL     1       1.561 -10.093  -2.308  0.00  0.00    +0.046 A 
ATOM     23  C   UNL     1       1.628  -8.749  -1.998  0.00  0.00    +0.009 A 
ATOM     24  C   UNL     1       1.054  -8.278  -0.832  0.00  0.00    -0.021 A 
ATOM     25  C   UNL     1       0.415  -9.152   0.029  0.00  0.00    +0.009 A 
ATOM     26  C   UNL     1       0.340 -10.496  -0.280  0.00  0.00    +0.046 A 
BRANCH  21  27
ATOM     27  O   UNL     1       0.849 -12.294  -1.752  0.00  0.00    -0.492 OA
BRANCH  27  29
ATOM     28  C   UNL     1       0.196 -14.582  -1.329  0.00  0.00    +0.048 C 
ATOM     29  C   UNL     1       0.169 -13.139  -0.821  0.00  0.00    +0.225 C 
ENDBRANCH  27  29
ENDBRANCH  21  27
ENDBRANCH  20  24
BRANCH  20  30
ATOM     30  O   UNL     1       1.373  -6.655   0.904  0.00  0.00    -0.389 OA
ATOM     31  H   UNL     1       0.689  -7.042   1.468  0.00  0.00    +0.210 HD
ENDBRANCH  20  30
ENDBRANCH  19  20
ENDBRANCH   6  19
TORSDOF 8
