REMARK  Name = ZINC24216594
REMARK  8 active torsions:
REMARK  status: ('A' for Active; 'I' for Inactive)
REMARK    1  A    between atoms: C_1  and  C_2
REMARK    2  A    between atoms: C_2  and  O_3
REMARK    3  A    between atoms: O_3  and  C_4
REMARK    4  A    between atoms: C_7  and  C_10
REMARK    5  A    between atoms: N_15  and  C_16
REMARK    6  A    between atoms: C_16  and  C_17
REMARK    7  A    between atoms: N_22  and  S_25
REMARK    8  A    between atoms: S_25  and  C_28
REMARK                            x       y       z     vdW  Elec       q    Type
REMARK                         _______ _______ _______ _____ _____    ______ ____
ROOT
ATOM      1  C   UNL     1      -2.688   3.005  -2.149  0.00  0.00    +0.199 C 
ATOM      2  O   UNL     1      -1.986   3.278  -3.100  0.00  0.00    -0.278 OA
ATOM      3  N   UNL     1      -3.989   3.357  -2.148  0.00  0.00    -0.300 N 
ATOM      4  C   UNL     1      -4.852   3.026  -1.006  0.00  0.00    +0.125 C 
ATOM      5  C   UNL     1      -5.498   4.325  -0.494  0.00  0.00    +0.128 C 
ATOM      6  N   UNL     1      -6.081   5.040  -1.638  0.00  0.00    -0.174 NA
ATOM      7  C   UNL     1      -5.219   5.366  -2.783  0.00  0.00    +0.128 C 
ATOM      8  C   UNL     1      -4.571   4.072  -3.292  0.00  0.00    +0.125 C 
ENDROOT
BRANCH   6   9
ATOM      9  S   UNL     1      -7.679   5.473  -1.637  0.00  0.00    +0.062 S 
ATOM     10  O   UNL     1      -8.079   5.547  -0.275  0.00  0.00    -0.153 OA
ATOM     11  O   UNL     1      -7.803   6.572  -2.528  0.00  0.00    -0.153 OA
BRANCH   9  12
ATOM     12  C   UNL     1      -8.580   4.139  -2.354  0.00  0.00    +0.124 A 
ATOM     13  C   UNL     1      -9.485   3.426  -1.590  0.00  0.00    +0.030 A 
ATOM     14  C   UNL     1     -10.191   2.379  -2.152  0.00  0.00    +0.002 A 
ATOM     15  C   UNL     1      -9.994   2.046  -3.479  0.00  0.00    +0.002 A 
ATOM     16  C   UNL     1      -9.091   2.758  -4.245  0.00  0.00    +0.022 A 
ATOM     17  C   UNL     1      -8.386   3.809  -3.683  0.00  0.00    +0.067 A 
ATOM     18 CL   UNL     1      -7.256   4.709  -4.646  0.00  0.00    -0.082 Cl
ENDBRANCH   9  12
ENDBRANCH   6   9
BRANCH   1  19
ATOM     19  C   UNL     1      -2.105   2.271  -0.969  0.00  0.00    +0.020 C 
BRANCH  19  24
ATOM     20  C   UNL     1      -0.018   1.503   0.010  0.00  0.00    -0.037 C 
ATOM     21  C   UNL     1       1.422   2.047  -0.001  0.00  0.00    -0.013 C 
ATOM     22  C   UNL     1       1.519   2.907  -1.282  0.00  0.00    -0.020 C 
ATOM     23  C   UNL     1       0.039   3.251  -1.581  0.00  0.00    -0.077 C 
ATOM     24  N   UNL     1      -0.681   2.004  -1.213  0.00  0.00    +0.390 N 
ATOM     25  H   UNL     1      -0.650   1.260  -2.022  0.00  0.00    -0.080 HD
BRANCH  20  29
ATOM     26  C   UNL     1       0.040  -2.770  -0.013  0.00  0.00    +0.121 A 
ATOM     27  C   UNL     1      -0.197  -2.085   1.170  0.00  0.00    +0.046 A 
ATOM     28  C   UNL     1      -0.215  -0.704   1.175  0.00  0.00    +0.005 A 
ATOM     29  C   UNL     1       0.002  -0.004   0.002  0.00  0.00    -0.061 A 
ATOM     30  C   UNL     1       0.233  -0.685  -1.179  0.00  0.00    +0.005 A 
ATOM     31  C   UNL     1       0.257  -2.066  -1.188  0.00  0.00    +0.046 A 
BRANCH  26  32
ATOM     32  O   UNL     1       0.059  -4.129  -0.021  0.00  0.00    -0.492 OA
BRANCH  32  34
ATOM     33  C   UNL     1       0.291  -6.286  -1.086  0.00  0.00    +0.048 C 
ATOM     34  C   UNL     1       0.308  -4.768  -1.274  0.00  0.00    +0.225 C 
ENDBRANCH  32  34
ENDBRANCH  26  32
ENDBRANCH  20  29
ENDBRANCH  19  24
ENDBRANCH   1  19
TORSDOF 7
