REMARK  Name = ZINC00875670
REMARK  5 active torsions:
REMARK  status: ('A' for Active; 'I' for Inactive)
REMARK    1  A    between atoms: C_1  and  C_2
REMARK    2  A    between atoms: C_5  and  C_8
REMARK    3  A    between atoms: C_13  and  C_18
REMARK    4  A    between atoms: C_13  and  C_19
REMARK    5  A    between atoms: C_25  and  O_27
REMARK                            x       y       z     vdW  Elec       q    Type
REMARK                         _______ _______ _______ _____ _____    ______ ____
ROOT
ATOM      1  C   UNL     1      -1.608   6.070   3.196  0.00  0.00    +0.058 C 
ATOM      2  C   UNL     1      -0.905   5.339   2.050  0.00  0.00    +0.081 C 
ATOM      3  C   UNL     1      -1.060   3.831   2.272  0.00  0.00    +0.182 C 
ATOM      4  C   UNL     1      -0.457   3.076   1.084  0.00  0.00    +0.094 C 
ATOM      5  C   UNL     1      -0.729   1.579   1.267  0.00  0.00    +0.036 C 
ATOM      6  N   UNL     1      -2.167   1.368   1.434  0.00  0.00    -0.294 N 
ATOM      7  C   UNL     1      -2.952   2.309   1.981  0.00  0.00    +0.303 C 
ATOM      8  O   UNL     1      -4.139   2.078   2.109  0.00  0.00    -0.253 OA
ATOM      9  N   UNL     1      -2.478   3.495   2.392  0.00  0.00    -0.262 N 
ATOM     10  C   UNL     1      -0.240   0.817   0.034  0.00  0.00    +0.031 C 
ATOM     11  C   UNL     1       0.010   1.073   2.507  0.00  0.00    +0.031 C 
ATOM     12  O   UNL     1      -0.371   3.473   3.470  0.00  0.00    -0.468 OA
ATOM     13  C   UNL     1      -0.605   4.216   4.583  0.00  0.00    +0.131 A 
ATOM     14  C   UNL     1      -1.189   5.470   4.514  0.00  0.00    +0.004 A 
ATOM     15  C   UNL     1      -1.403   6.197   5.674  0.00  0.00    +0.031 A 
ATOM     16  C   UNL     1      -1.040   5.678   6.901  0.00  0.00    +0.083 A 
ATOM     17  C   UNL     1      -0.457   4.420   6.976  0.00  0.00    +0.139 A 
ATOM     18  C   UNL     1      -0.240   3.692   5.818  0.00  0.00    +0.093 A 
ATOM     19 CL   UNL     1      -1.312   6.596   8.349  0.00  0.00    -0.080 Cl
ATOM     20  H   UNL     1      -2.562   0.530   1.143  0.00  0.00    +0.151 HD
ATOM     21  H   UNL     1      -3.089   4.143   2.777  0.00  0.00    +0.154 HD
ENDROOT
BRANCH   1  26
ATOM     22  C   UNL     1      -0.159  11.663   3.082  0.00  0.00    +0.044 C 
ATOM     23  C   UNL     1      -0.537  10.204   3.113  0.00  0.00    -0.050 A 
ATOM     24  C   UNL     1      -1.861   9.831   2.981  0.00  0.00    +0.003 A 
ATOM     25  C   UNL     1      -2.208   8.493   3.008  0.00  0.00    +0.004 A 
ATOM     26  C   UNL     1      -1.230   7.529   3.167  0.00  0.00    -0.040 A 
ATOM     27  C   UNL     1       0.094   7.903   3.304  0.00  0.00    +0.004 A 
ATOM     28  C   UNL     1       0.441   9.240   3.272  0.00  0.00    +0.003 A 
ENDBRANCH   1  26
BRANCH  17  29
ATOM     29  O   UNL     1      -0.100   3.904   8.181  0.00  0.00    -0.505 OA
ATOM     30  H   UNL     1       0.804   4.122   8.450  0.00  0.00    +0.292 HD
ENDBRANCH  17  29
TORSDOF 2
