REMARK  Name = ZINC16194995
REMARK  6 active torsions:
REMARK  status: ('A' for Active; 'I' for Inactive)
REMARK    1  A    between atoms: C_1  and  O_2
REMARK    2  A    between atoms: O_2  and  C_3
REMARK    3  A    between atoms: C_5  and  C_11
REMARK    4  A    between atoms: C_8  and  O_9
REMARK    5  A    between atoms: N_12  and  N_13
REMARK    6  A    between atoms: C_14  and  C_15
REMARK                            x       y       z     vdW  Elec       q    Type
REMARK                         _______ _______ _______ _____ _____    ______ ____
ROOT
ATOM      1  N   UNL     1       4.250   0.268   6.269  0.00  0.00    -0.263 N 
ATOM      2  C   UNL     1       4.329  -0.416   7.390  0.00  0.00    +0.139 C 
ATOM      3  N   UNL     1       4.448   0.245   8.596  0.00  0.00    -0.342 N 
ATOM      4  H   UNL     1       4.363   1.211   8.629  0.00  0.00    +0.144 HD
ATOM      5  H   UNL     1       4.616  -0.255   9.409  0.00  0.00    +0.144 HD
ATOM      6  H   UNL     1       4.275   1.237   6.290  0.00  0.00    +0.190 HD
ENDROOT
BRANCH   2   7
ATOM      7  C   UNL     1       4.291  -1.890   7.359  0.00  0.00    +0.144 A 
ATOM      8  C   UNL     1       3.622  -2.599   8.384  0.00  0.00    +0.167 A 
ATOM      9  N   UNL     1       3.582  -3.918   8.366  0.00  0.00    -0.115 N 
ATOM     10  O   UNL     1       2.910  -4.622   9.395  0.00  0.00    -0.162 OA
ATOM     11  C   UNL     1       4.178  -4.589   7.371  0.00  0.00    +0.112 A 
ATOM     12  C   UNL     1       4.148  -5.993   7.330  0.00  0.00    +0.031 A 
ATOM     13  C   UNL     1       4.761  -6.652   6.309  0.00  0.00    +0.002 A 
ATOM     14  C   UNL     1       5.421  -5.955   5.298  0.00  0.00    +0.002 A 
ATOM     15  C   UNL     1       5.470  -4.595   5.304  0.00  0.00    +0.030 A 
ATOM     16  C   UNL     1       4.849  -3.878   6.343  0.00  0.00    +0.092 A 
ATOM     17  N   UNL     1       4.879  -2.543   6.368  0.00  0.00    -0.239 NA
ATOM     18  N   UNL     1       3.005  -1.904   9.413  0.00  0.00    -0.340 N 
ATOM     19  H   UNL     1       2.909  -0.940   9.359  0.00  0.00    +0.144 HD
ATOM     20  H   UNL     1       2.669  -2.381  10.188  0.00  0.00    +0.144 HD
ENDBRANCH   2   7
BRANCH   1  22
ATOM     21  C   UNL     1       4.061   0.330   4.028  0.00  0.00    +0.140 C 
ATOM     22  N   UNL     1       4.140  -0.351   5.142  0.00  0.00    -0.180 NA
BRANCH  21  25
ATOM     23  C   UNL     1       3.733  -0.317   0.347  0.00  0.00    +0.163 A 
ATOM     24  C   UNL     1       3.851   0.351   1.551  0.00  0.00    +0.059 A 
ATOM     25  C   UNL     1       3.935  -0.375   2.745  0.00  0.00    -0.001 A 
ATOM     26  C   UNL     1       3.899  -1.774   2.712  0.00  0.00    +0.028 A 
ATOM     27  C   UNL     1       3.781  -2.432   1.506  0.00  0.00    +0.063 A 
ATOM     28  C   UNL     1       3.692  -1.710   0.323  0.00  0.00    +0.173 A 
ATOM     29 BR   UNL     1       3.733  -4.322   1.464  0.00  0.00    -0.046 Br
BRANCH  23  31
ATOM     30  C   UNL     1       3.699   1.810  -0.716  0.00  0.00    +0.277 C 
ATOM     31  O   UNL     1       3.651   0.385  -0.815  0.00  0.00    -0.491 OA
ENDBRANCH  23  31
BRANCH  28  32
ATOM     32  O   UNL     1       3.570  -2.364  -0.862  0.00  0.00    -0.503 OA
ATOM     33  H   UNL     1       4.414  -2.577  -1.282  0.00  0.00    +0.292 HD
ENDBRANCH  28  32
ENDBRANCH  21  25
ENDBRANCH   1  22
TORSDOF 5
