REMARK  Name = ZINC40620699
REMARK  9 active torsions:
REMARK  status: ('A' for Active; 'I' for Inactive)
REMARK    1  A    between atoms: C_1  and  C_2
REMARK    2  A    between atoms: C_5  and  S_8
REMARK    3  A    between atoms: S_8  and  N_11
REMARK    4  A    between atoms: N_11  and  N_12
REMARK    5  A    between atoms: C_14  and  N_28
REMARK    6  A    between atoms: C_15  and  N_19
REMARK    7  A    between atoms: N_19  and  C_20
REMARK    8  A    between atoms: C_24  and  C_27
REMARK    9  A    between atoms: C_25  and  C_26
REMARK                            x       y       z     vdW  Elec       q    Type
REMARK                         _______ _______ _______ _____ _____    ______ ____
ROOT
ATOM      1  N   UNL     1       2.461  -4.625   1.048  0.00  0.00    -0.244 N 
ATOM      2  C   UNL     1       3.179  -5.588   1.739  0.00  0.00    +0.169 A 
ATOM      3  C   UNL     1       4.026  -5.225   2.783  0.00  0.00    +0.207 A 
ATOM      4  C   UNL     1       4.724  -6.230   3.444  0.00  0.00    +0.159 A 
ATOM      5  N   UNL     1       4.559  -7.494   3.059  0.00  0.00    -0.218 NA
ATOM      6  C   UNL     1       3.748  -7.797   2.066  0.00  0.00    +0.225 A 
ATOM      7  N   UNL     1       3.064  -6.875   1.419  0.00  0.00    -0.217 NA
ATOM      8  H   UNL     1       2.549  -3.689   1.288  0.00  0.00    +0.169 HD
ENDROOT
BRANCH   3   9
ATOM      9  N   UNL     1       4.179  -3.807   3.177  0.00  0.00    +0.063 N 
ATOM     10  O   UNL     1       3.451  -3.330   4.016  0.00  0.00    -0.126 OA
ATOM     11  O   UNL     1       5.033  -3.124   2.660  0.00  0.00    -0.126 OA
ENDBRANCH   3   9
BRANCH   1  12
ATOM     12  N   UNL     1       1.607  -5.002   0.004  0.00  0.00    -0.109 NA
ATOM     13  H   UNL     1       1.948  -5.529  -0.735  0.00  0.00    +0.172 HD
BRANCH  12  14
ATOM     14  S   UNL     1       0.014  -4.549   0.031  0.00  0.00    +0.074 S 
ATOM     15  O   UNL     1      -0.510  -4.984   1.278  0.00  0.00    -0.152 OA
ATOM     16  O   UNL     1      -0.544  -4.951  -1.212  0.00  0.00    -0.152 OA
BRANCH  14  21
ATOM     17  C   UNL     1      -0.126   1.483   0.114  0.00  0.00    +0.044 C 
ATOM     18  C   UNL     1      -0.091  -0.024   0.093  0.00  0.00    -0.050 A 
ATOM     19  C   UNL     1      -0.090  -0.699  -1.113  0.00  0.00    +0.005 A 
ATOM     20  C   UNL     1      -0.058  -2.080  -1.132  0.00  0.00    +0.029 A 
ATOM     21  C   UNL     1      -0.026  -2.788   0.056  0.00  0.00    +0.107 A 
ATOM     22  C   UNL     1      -0.026  -2.112   1.262  0.00  0.00    +0.029 A 
ATOM     23  C   UNL     1      -0.054  -0.731   1.281  0.00  0.00    +0.005 A 
ENDBRANCH  14  21
ENDBRANCH  12  14
ENDBRANCH   1  12
BRANCH   4  24
ATOM     24  N   UNL     1       5.581  -5.919   4.490  0.00  0.00    -0.297 N 
ATOM     25  H   UNL     1       5.764  -4.992   4.709  0.00  0.00    +0.154 HD
BRANCH  24  26
ATOM     26  C   UNL     1       6.181  -6.943   5.229  0.00  0.00    +0.036 A 
ATOM     27  C   UNL     1       5.584  -8.195   5.297  0.00  0.00    +0.023 A 
ATOM     28  C   UNL     1       6.179  -9.204   6.028  0.00  0.00    +0.002 A 
ATOM     29  C   UNL     1       7.370  -8.969   6.692  0.00  0.00    +0.004 A 
ATOM     30  C   UNL     1       7.967  -7.724   6.626  0.00  0.00    -0.046 A 
ATOM     31  C   UNL     1       7.380  -6.712   5.892  0.00  0.00    -0.026 A 
ATOM     32  C   UNL     1       8.035  -5.357   5.816  0.00  0.00    +0.046 C 
ATOM     33  C   UNL     1       9.264  -7.472   7.352  0.00  0.00    +0.044 C 
ENDBRANCH  24  26
ENDBRANCH   4  24
TORSDOF 6
