REMARK  Name = ZINC39272827
REMARK  4 active torsions:
REMARK  status: ('A' for Active; 'I' for Inactive)
REMARK    1  A    between atoms: C_1  and  C_2
REMARK    2  A    between atoms: C_2  and  C_4
REMARK    3  A    between atoms: C_2  and  N_21
REMARK    4  A    between atoms: C_22  and  C_24
REMARK                            x       y       z     vdW  Elec       q    Type
REMARK                         _______ _______ _______ _____ _____    ______ ____
ROOT
ATOM      1  C   UNL     1       0.821  -0.541   1.147  0.00  0.00    +0.236 C 
ATOM      2  O   UNL     1       1.845  -1.154   0.926  0.00  0.00    -0.274 OA
ATOM      3  N   UNL     1       0.420  -0.336   2.417  0.00  0.00    -0.300 N 
ATOM      4  C   UNL     1      -0.869   0.309   2.700  0.00  0.00    +0.106 C 
ATOM      5  C   UNL     1      -0.629   1.502   3.632  0.00  0.00    +0.009 C 
ATOM      6  C   UNL     1       0.126   1.030   4.875  0.00  0.00    -0.037 C 
ATOM      7  C   UNL     1       1.481   0.452   4.469  0.00  0.00    +0.009 C 
ATOM      8  C   UNL     1       1.262  -0.757   3.546  0.00  0.00    +0.106 C 
ATOM      9  C   UNL     1       0.332   2.208   5.829  0.00  0.00    +0.140 C 
ATOM     10  C   UNL     1      -1.066   2.624   6.277  0.00  0.00    +0.042 C 
ATOM     11  N   UNL     1      -1.177   3.861   5.986  0.00  0.00    -0.243 NA
ATOM     12  C   UNL     1      -0.089   4.319   5.319  0.00  0.00    +0.216 C 
ATOM     13  N   UNL     1       0.844   3.404   5.159  0.00  0.00    -0.264 NA
ATOM     14  C   UNL     1      -2.050   1.618   6.818  0.00  0.00    +0.034 C 
ATOM     15  C   UNL     1      -2.037   0.439   5.827  0.00  0.00    -0.076 C 
ATOM     16  N   UNL     1      -0.663   0.002   5.570  0.00  0.00    +0.385 N 
ATOM     17  H   UNL     1      -0.684  -0.833   5.004  0.00  0.00    -0.085 HD
ATOM     18  H   UNL     1      -0.218  -0.212   6.450  0.00  0.00    -0.085 HD
ENDROOT
BRANCH   1  20
ATOM     19  C   UNL     1       0.371   1.449  -0.262  0.00  0.00    +0.038 C 
ATOM     20  C   UNL     1      -0.002  -0.011   0.002  0.00  0.00    +0.156 C 
BRANCH  20  21
ATOM     21  N   UNL     1       0.262  -0.807  -1.199  0.00  0.00    -0.300 N 
ATOM     22  C   UNL     1      -0.664  -0.881  -2.176  0.00  0.00    +0.245 C 
ATOM     23  O   UNL     1      -1.718  -0.288  -2.060  0.00  0.00    -0.270 OA
ATOM     24  H   UNL     1       1.104  -1.280  -1.292  0.00  0.00    +0.150 HD
BRANCH  22  25
ATOM     25  C   UNL     1      -0.397  -1.684  -3.388  0.00  0.00    +0.037 A 
ATOM     26  C   UNL     1       0.811  -2.372  -3.521  0.00  0.00    +0.014 A 
ATOM     27  C   UNL     1       1.054  -3.119  -4.654  0.00  0.00    +0.016 A 
ATOM     28  C   UNL     1       0.103  -3.189  -5.659  0.00  0.00    +0.018 A 
ATOM     29  C   UNL     1      -1.097  -2.509  -5.532  0.00  0.00    +0.016 A 
ATOM     30  C   UNL     1      -1.354  -1.763  -4.401  0.00  0.00    +0.014 A 
ATOM     31 BR   UNL     1       0.445  -4.215  -7.209  0.00  0.00    -0.050 Br
ENDBRANCH  22  25
ENDBRANCH  20  21
ENDBRANCH   1  20
TORSDOF 3
