REMARK  Name = ZINC06752897
REMARK  9 active torsions:
REMARK  status: ('A' for Active; 'I' for Inactive)
REMARK    1  A    between atoms: C_1  and  O_2
REMARK    2  A    between atoms: O_2  and  C_3
REMARK    3  A    between atoms: C_6  and  C_9
REMARK    4  A    between atoms: C_12  and  C_24
REMARK    5  A    between atoms: N_19  and  C_20
REMARK    6  A    between atoms: C_20  and  C_21
REMARK    7  A    between atoms: C_21  and  C_22
REMARK    8  A    between atoms: C_22  and  O_23
REMARK    9  A    between atoms: C_29  and  O_30
REMARK                            x       y       z     vdW  Elec       q    Type
REMARK                         _______ _______ _______ _____ _____    ______ ____
ROOT
ATOM      1  C   UNL     1       2.505  -2.503  -4.381  0.00  0.00    +0.141 C 
ATOM      2  C   UNL     1       1.469  -3.007  -5.349  0.00  0.00    +0.035 A 
ATOM      3  C   UNL     1       0.438  -2.713  -6.183  0.00  0.00    +0.075 A 
ATOM      4  N   UNL     1       0.025  -3.895  -6.728  0.00  0.00    -0.276 N 
ATOM      5  H   UNL     1      -0.701  -3.991  -7.364  0.00  0.00    +0.189 HD
ATOM      6  N   UNL     1       0.740  -4.861  -6.271  0.00  0.00    -0.168 NA
ATOM      7  C   UNL     1       1.643  -4.407  -5.426  0.00  0.00    +0.153 A 
ATOM      8  C   UNL     1       2.757  -4.774  -4.532  0.00  0.00    +0.268 C 
ATOM      9  O   UNL     1       3.167  -5.906  -4.364  0.00  0.00    -0.268 OA
ATOM     10  N   UNL     1       3.256  -3.680  -3.929  0.00  0.00    -0.285 N 
ENDROOT
BRANCH   1  14
ATOM     11  C   UNL     1       0.606  -0.607  -1.056  0.00  0.00    +0.120 A 
ATOM     12  C   UNL     1       1.173   0.161  -2.062  0.00  0.00    +0.046 A 
ATOM     13  C   UNL     1       1.786  -0.455  -3.136  0.00  0.00    +0.009 A 
ATOM     14  C   UNL     1       1.835  -1.835  -3.209  0.00  0.00    -0.022 A 
ATOM     15  C   UNL     1       1.270  -2.602  -2.207  0.00  0.00    +0.009 A 
ATOM     16  C   UNL     1       0.661  -1.992  -1.128  0.00  0.00    +0.046 A 
BRANCH  11  18
ATOM     17  C   UNL     1      -0.017   1.425   0.010  0.00  0.00    +0.277 C 
ATOM     18  O   UNL     1       0.002  -0.004   0.002  0.00  0.00    -0.495 OA
ENDBRANCH  11  18
ENDBRANCH   1  14
BRANCH   3  19
ATOM     19  C   UNL     1      -0.127  -1.372  -6.451  0.00  0.00    +0.042 A 
ATOM     20  C   UNL     1      -1.435  -1.074  -6.069  0.00  0.00    +0.013 A 
ATOM     21  C   UNL     1      -1.956   0.179  -6.321  0.00  0.00    +0.001 A 
ATOM     22  C   UNL     1      -1.186   1.141  -6.950  0.00  0.00    +0.004 A 
ATOM     23  C   UNL     1       0.111   0.857  -7.333  0.00  0.00    +0.046 A 
ATOM     24  C   UNL     1       0.650  -0.394  -7.082  0.00  0.00    +0.126 A 
BRANCH  24  25
ATOM     25  O   UNL     1       1.927  -0.673  -7.452  0.00  0.00    -0.506 OA
ATOM     26  H   UNL     1       2.008  -1.032  -8.346  0.00  0.00    +0.292 HD
ENDBRANCH  24  25
ENDBRANCH   3  19
BRANCH  10  27
ATOM     27  C   UNL     1       4.369  -3.665  -2.976  0.00  0.00    +0.111 C 
BRANCH  27  28
ATOM     28  C   UNL     1       3.826  -3.835  -1.556  0.00  0.00    +0.047 C 
BRANCH  28  29
ATOM     29  C   UNL     1       4.988  -3.819  -0.561  0.00  0.00    +0.157 C 
BRANCH  29  30
ATOM     30  O   UNL     1       4.481  -3.978   0.766  0.00  0.00    -0.395 OA
ATOM     31  H   UNL     1       5.164  -3.977   1.451  0.00  0.00    +0.209 HD
ENDBRANCH  29  30
ENDBRANCH  28  29
ENDBRANCH  27  28
ENDBRANCH  10  27
TORSDOF 8
