REMARK  Name = ZINC36207382
REMARK  18 active torsions:
REMARK  status: ('A' for Active; 'I' for Inactive)
REMARK    1  A    between atoms: C_1  and  C_2
REMARK    2  A    between atoms: C_8  and  C_19
REMARK    3  A    between atoms: C_12  and  C_13
REMARK    4  A    between atoms: C_13  and  O_15
REMARK    5  A    between atoms: O_15  and  C_16
REMARK    6  A    between atoms: C_16  and  C_17
REMARK    7  A    between atoms: C_16  and  C_18
REMARK    8  A    between atoms: C_19  and  N_20
REMARK    9  A    between atoms: N_20  and  C_21
REMARK   10  A    between atoms: N_20  and  C_33
REMARK   11  A    between atoms: C_21  and  C_22
REMARK   12  A    between atoms: C_22  and  C_24
REMARK   13  A    between atoms: C_22  and  O_32
REMARK   14  A    between atoms: C_24  and  O_25
REMARK   15  A    between atoms: O_25  and  C_26
REMARK   16  A    between atoms: C_33  and  C_34
REMARK   17  A    between atoms: C_34  and  C_35
REMARK   18  A    between atoms: C_34  and  C_36
REMARK                            x       y       z     vdW  Elec       q    Type
REMARK                         _______ _______ _______ _____ _____    ______ ____
ROOT
ATOM      1  C   UNL     1       0.256  -3.401  -4.420  0.00  0.00    -0.003 C 
ENDROOT
BRANCH   1   9
ATOM      2  C   UNL     1       0.498   1.614  -0.056  0.00  0.00    +0.046 C 
ATOM      3  C   UNL     1       0.401   0.112   0.004  0.00  0.00    -0.015 A 
ATOM      4  C   UNL     1       0.374  -0.635  -1.175  0.00  0.00    +0.076 A 
ATOM      5  C   UNL     1       0.430  -0.169  -2.580  0.00  0.00    +0.260 A 
ATOM      6  O   UNL     1       0.511   1.018  -2.841  0.00  0.00    -0.267 OA
ATOM      7  N   UNL     1       0.389  -1.091  -3.561  0.00  0.00    -0.312 N 
ATOM      8  H   UNL     1       0.425  -0.802  -4.486  0.00  0.00    +0.170 HD
ATOM      9  C   UNL     1       0.299  -2.415  -3.282  0.00  0.00    +0.094 A 
ATOM     10  N   UNL     1       0.248  -2.859  -2.055  0.00  0.00    -0.229 NA
ATOM     11  C   UNL     1       0.281  -2.037  -1.015  0.00  0.00    +0.116 A 
ATOM     12  S   UNL     1       0.235  -2.243   0.747  0.00  0.00    -0.062 S 
ATOM     13  C   UNL     1       0.344  -0.523   1.211  0.00  0.00    +0.102 A 
BRANCH  13  14
ATOM     14  C   UNL     1       0.364   0.062   2.553  0.00  0.00    +0.346 C 
ATOM     15  O   UNL     1       0.440   1.268   2.690  0.00  0.00    -0.244 OA
BRANCH  14  16
ATOM     16  O   UNL     1       0.298  -0.737   3.639  0.00  0.00    -0.458 OA
BRANCH  16  17
ATOM     17  C   UNL     1       0.322  -0.098   4.917  0.00  0.00    +0.171 C 
ATOM     18  C   UNL     1      -0.468  -0.938   5.922  0.00  0.00    +0.052 C 
ATOM     19  C   UNL     1       1.770   0.037   5.392  0.00  0.00    +0.052 C 
ENDBRANCH  16  17
ENDBRANCH  14  16
ENDBRANCH  13  14
ENDBRANCH   1   9
BRANCH   1  20
ATOM     20  N   UNL     1       0.158  -4.765  -3.883  0.00  0.00    +0.386 N 
ATOM     21  H   UNL     1       0.909  -4.922  -3.227  0.00  0.00    -0.081 HD
BRANCH  20  22
ATOM     22  C   UNL     1       0.259  -5.733  -4.983  0.00  0.00    -0.043 C 
BRANCH  22  23
ATOM     23  C   UNL     1       1.673  -5.697  -5.566  0.00  0.00    +0.135 C 
BRANCH  23  24
ATOM     24  O   UNL     1       1.881  -4.451  -6.234  0.00  0.00    -0.390 OA
ATOM     25  H   UNL     1       1.267  -4.288  -6.964  0.00  0.00    +0.210 HD
ENDBRANCH  23  24
BRANCH  23  26
ATOM     26  C   UNL     1       1.842  -6.845  -6.564  0.00  0.00    +0.258 C 
BRANCH  26  27
ATOM     27  O   UNL     1       3.195  -6.883  -7.021  0.00  0.00    -0.489 OA
BRANCH  27  28
ATOM     28  C   UNL     1       3.516  -7.851  -7.919  0.00  0.00    +0.121 A 
ATOM     29  C   UNL     1       2.547  -8.743  -8.355  0.00  0.00    +0.045 A 
ATOM     30  C   UNL     1       2.876  -9.726  -9.268  0.00  0.00    +0.004 A 
ATOM     31  C   UNL     1       4.170  -9.822  -9.747  0.00  0.00    +0.000 A 
ATOM     32  C   UNL     1       5.137  -8.934  -9.314  0.00  0.00    +0.004 A 
ATOM     33  C   UNL     1       4.812  -7.946  -8.405  0.00  0.00    +0.045 A 
ENDBRANCH  27  28
ENDBRANCH  26  27
ENDBRANCH  23  26
ENDBRANCH  22  23
ENDBRANCH  20  22
BRANCH  20  34
ATOM     34  C   UNL     1      -1.132  -4.931  -3.200  0.00  0.00    -0.075 C 
BRANCH  34  35
ATOM     35  C   UNL     1      -1.171  -6.296  -2.510  0.00  0.00    -0.034 C 
ATOM     36  C   UNL     1      -0.108  -6.342  -1.410  0.00  0.00    +0.005 C 
ATOM     37  C   UNL     1      -2.554  -6.516  -1.892  0.00  0.00    +0.005 C 
ENDBRANCH  34  35
ENDBRANCH  20  34
ENDBRANCH   1  20
TORSDOF 13
