REMARK  Name = ZINC38678463
REMARK  10 active torsions:
REMARK  status: ('A' for Active; 'I' for Inactive)
REMARK    1  A    between atoms: C_1  and  C_2
REMARK    2  A    between atoms: C_2  and  C_3
REMARK    3  A    between atoms: C_2  and  C_4
REMARK    4  A    between atoms: C_2  and  C_5
REMARK    5  A    between atoms: C_8  and  C_11
REMARK    6  A    between atoms: C_11  and  O_13
REMARK    7  A    between atoms: O_13  and  C_14
REMARK    8  A    between atoms: C_21  and  N_34
REMARK    9  A    between atoms: C_22  and  C_32
REMARK   10  A    between atoms: C_23  and  C_25
REMARK                            x       y       z     vdW  Elec       q    Type
REMARK                         _______ _______ _______ _____ _____    ______ ____
ROOT
ATOM      1  C   UNL     1       4.668  -1.960  -6.039  0.00  0.00    +0.135 A 
ATOM      2  C   UNL     1       4.028  -2.724  -7.005  0.00  0.00    +0.047 A 
ATOM      3  C   UNL     1       4.729  -3.171  -8.107  0.00  0.00    +0.012 A 
ATOM      4  C   UNL     1       6.069  -2.860  -8.254  0.00  0.00    +0.008 A 
ATOM      5  C   UNL     1       6.714  -2.098  -7.293  0.00  0.00    +0.138 A 
ATOM      6  C   UNL     1       6.009  -1.642  -6.186  0.00  0.00    +0.093 A 
ATOM      7  O   UNL     1       8.026  -1.783  -7.420  0.00  0.00    -0.441 OA
ATOM      8  C   UNL     1       8.811  -2.498  -8.243  0.00  0.00    +0.199 C 
ATOM      9  C   UNL     1       8.298  -3.266  -9.233  0.00  0.00    +0.098 C 
ATOM     10  C   UNL     1       6.816  -3.357  -9.464  0.00  0.00    +0.099 C 
ENDROOT
BRANCH  10  11
ATOM     11  C   UNL     1       6.444  -2.518 -10.659  0.00  0.00    -0.021 A 
ATOM     12  C   UNL     1       6.692  -1.157 -10.653  0.00  0.00    +0.005 A 
ATOM     13  C   UNL     1       6.351  -0.388 -11.749  0.00  0.00    +0.000 A 
ATOM     14  C   UNL     1       5.763  -0.977 -12.853  0.00  0.00    +0.001 A 
ATOM     15  C   UNL     1       5.516  -2.337 -12.860  0.00  0.00    +0.015 A 
ATOM     16  C   UNL     1       5.861  -3.109 -11.765  0.00  0.00    +0.022 A 
ATOM     17 BR   UNL     1       5.529  -4.970 -11.777  0.00  0.00    -0.050 Br
ENDBRANCH  10  11
BRANCH   8  18
ATOM     18  N   UNL     1      10.172  -2.448  -8.075  0.00  0.00    -0.328 N 
ATOM     19  H   UNL     1      10.555  -1.903  -7.371  0.00  0.00    +0.145 HD
ATOM     20  H   UNL     1      10.752  -2.959  -8.662  0.00  0.00    +0.145 HD
ENDBRANCH   8  18
BRANCH   9  21
ATOM     21  C   UNL     1       9.186  -4.006 -10.079  0.00  0.00    +0.101 C 
ATOM     22  N   UNL     1       9.891  -4.593 -10.749  0.00  0.00    -0.191 NA
ENDBRANCH   9  21
BRANCH   1  23
ATOM     23  O   UNL     1       3.980  -1.519  -4.953  0.00  0.00    -0.422 OA
BRANCH  23  24
ATOM     24  C   UNL     1       3.728  -2.398  -3.964  0.00  0.00    +0.344 C 
ATOM     25  O   UNL     1       4.034  -3.566  -4.097  0.00  0.00    -0.245 OA
BRANCH  24  29
ATOM     26  C   UNL     1       1.865  -1.087  -0.380  0.00  0.00    -0.042 A 
ATOM     27  C   UNL     1       2.212  -2.418  -0.529  0.00  0.00    +0.005 A 
ATOM     28  C   UNL     1       2.817  -2.851  -1.690  0.00  0.00    +0.015 A 
ATOM     29  C   UNL     1       3.080  -1.942  -2.717  0.00  0.00    +0.059 A 
ATOM     30  C   UNL     1       2.727  -0.600  -2.561  0.00  0.00    +0.015 A 
ATOM     31  C   UNL     1       2.118  -0.182  -1.396  0.00  0.00    +0.005 A 
BRANCH  26  33
ATOM     32  C   UNL     1      -0.171  -0.035   0.566  0.00  0.00    +0.015 C 
ATOM     33  C   UNL     1       1.204  -0.622   0.891  0.00  0.00    -0.013 C 
ATOM     34  C   UNL     1       2.072   0.450   1.555  0.00  0.00    +0.015 C 
ATOM     35  C   UNL     1       1.040  -1.807   1.845  0.00  0.00    +0.015 C 
ENDBRANCH  26  33
ENDBRANCH  24  29
ENDBRANCH  23  24
ENDBRANCH   1  23
TORSDOF 7
