REMARK  Name = ZINC07660273
REMARK  12 active torsions:
REMARK  status: ('A' for Active; 'I' for Inactive)
REMARK    1  A    between atoms: C_1  and  C_2
REMARK    2  A    between atoms: C_2  and  C_3
REMARK    3  A    between atoms: C_2  and  C_4
REMARK    4  A    between atoms: C_2  and  N_5
REMARK    5  A    between atoms: C_6  and  C_8
REMARK    6  A    between atoms: C_8  and  N_9
REMARK    7  A    between atoms: N_9  and  C_10
REMARK    8  A    between atoms: N_9  and  C_11
REMARK    9  A    between atoms: C_11  and  C_12
REMARK   10  A    between atoms: C_12  and  C_13
REMARK   11  A    between atoms: N_15  and  C_16
REMARK   12  A    between atoms: C_17  and  C_25
REMARK                            x       y       z     vdW  Elec       q    Type
REMARK                         _______ _______ _______ _____ _____    ______ ____
ROOT
ATOM      1  C   UNL     1       6.988  -0.834  -4.937  0.00  0.00    +0.216 C 
ATOM      2  O   UNL     1       6.401  -1.526  -5.742  0.00  0.00    -0.276 OA
ATOM      3  N   UNL     1       8.304  -0.588  -5.093  0.00  0.00    -0.279 N 
ATOM      4  H   UNL     1       8.773  -0.034  -4.449  0.00  0.00    +0.155 HD
ENDROOT
BRANCH   3   5
ATOM      5  C   UNL     1       8.987  -1.126  -6.174  0.00  0.00    +0.090 A 
ATOM      6  C   UNL     1      10.329  -0.985  -6.489  0.00  0.00    +0.084 A 
ATOM      7  C   UNL     1      10.804  -1.655  -7.686  0.00  0.00    -0.018 A 
ATOM      8  C   UNL     1       9.850  -2.344  -8.350  0.00  0.00    -0.004 A 
ATOM      9  S   UNL     1       8.379  -2.103  -7.397  0.00  0.00    -0.077 S 
ATOM     10  C   UNL     1      10.022  -3.132  -9.611  0.00  0.00    +0.043 C 
ATOM     11  C   UNL     1      11.363  -2.736 -10.248  0.00  0.00    +0.005 C 
ATOM     12  C   UNL     1      12.451  -2.766  -9.171  0.00  0.00    +0.005 C 
ATOM     13  C   UNL     1      12.241  -1.614  -8.186  0.00  0.00    +0.037 C 
BRANCH   6  14
ATOM     14  C   UNL     1      11.210  -0.211  -5.668  0.00  0.00    +0.102 C 
ATOM     15  N   UNL     1      11.909   0.403  -5.017  0.00  0.00    -0.191 NA
ENDBRANCH   6  14
ENDBRANCH   3   5
BRANCH   1  16
ATOM     16  C   UNL     1       6.246  -0.250  -3.763  0.00  0.00    +0.077 C 
BRANCH  16  17
ATOM     17  C   UNL     1       4.779  -0.679  -3.822  0.00  0.00    -0.069 C 
BRANCH  17  18
ATOM     18  N   UNL     1       4.055  -0.110  -2.677  0.00  0.00    +0.384 N 
ATOM     19  C   UNL     1       4.036   1.355  -2.790  0.00  0.00    -0.096 C 
ATOM     20  H   UNL     1       4.518  -0.375  -1.821  0.00  0.00    -0.082 HD
BRANCH  18  21
ATOM     21  C   UNL     1       2.677  -0.618  -2.667  0.00  0.00    +0.018 C 
BRANCH  21  23
ATOM     22  N   UNL     1       0.688  -0.476  -1.203  0.00  0.00    -0.312 N 
ATOM     23  C   UNL     1       1.972  -0.132  -1.427  0.00  0.00    +0.197 C 
ATOM     24  O   UNL     1       2.559   0.569  -0.630  0.00  0.00    -0.278 OA
ATOM     25  H   UNL     1       0.218  -1.037  -1.840  0.00  0.00    +0.149 HD
BRANCH  22  27
ATOM     26  C   UNL     1      -0.019   1.526   0.010  0.00  0.00    +0.031 C 
ATOM     27  C   UNL     1       0.002  -0.004   0.002  0.00  0.00    +0.026 C 
ATOM     28  C   UNL     1       0.742  -0.511   1.242  0.00  0.00    +0.031 C 
ATOM     29  C   UNL     1      -1.433  -0.534   0.013  0.00  0.00    +0.031 C 
ENDBRANCH  22  27
ENDBRANCH  21  23
ENDBRANCH  18  21
ENDBRANCH  17  18
ENDBRANCH  16  17
ENDBRANCH   1  16
TORSDOF 8
