REMARK  Name = ZINC08299006
REMARK  9 active torsions:
REMARK  status: ('A' for Active; 'I' for Inactive)
REMARK    1  A    between atoms: C_1  and  C_2
REMARK    2  A    between atoms: C_2  and  C_4
REMARK    3  A    between atoms: N_6  and  C_9
REMARK    4  A    between atoms: C_9  and  C_10
REMARK    5  A    between atoms: C_18  and  C_20
REMARK    6  A    between atoms: N_22  and  C_23
REMARK    7  A    between atoms: C_23  and  C_24
REMARK    8  A    between atoms: C_29  and  O_30
REMARK    9  A    between atoms: O_30  and  C_31
REMARK                            x       y       z     vdW  Elec       q    Type
REMARK                         _______ _______ _______ _____ _____    ______ ____
ROOT
ATOM      1  C   UNL     1      -2.865   1.571   0.104  0.00  0.00    -0.046 C 
ATOM      2  C   UNL     1      -2.195   1.057  -1.193  0.00  0.00    -0.010 C 
ATOM      3  C   UNL     1      -0.760   1.597  -1.230  0.00  0.00    -0.004 C 
ATOM      4  C   UNL     1      -0.013   1.086   0.008  0.00  0.00    -0.015 C 
ATOM      5  C   UNL     1      -0.735   1.582   1.264  0.00  0.00    -0.078 C 
ATOM      6  C   UNL     1      -1.498   3.569   0.103  0.00  0.00    -0.065 C 
ATOM      7  C   UNL     1      -0.794   3.129  -1.184  0.00  0.00    +0.061 C 
ATOM      8  N   UNL     1      -1.919   2.391   0.890  0.00  0.00    +0.383 N 
ATOM      9  H   UNL     1      -2.387   2.712   1.746  0.00  0.00    -0.081 HD
ENDROOT
BRANCH   7  10
ATOM     10  C   UNL     1      -1.547   3.654  -2.379  0.00  0.00    +0.215 C 
ATOM     11  O   UNL     1      -2.012   2.882  -3.190  0.00  0.00    -0.276 OA
ATOM     12  N   UNL     1      -1.704   4.982  -2.546  0.00  0.00    -0.311 N 
ATOM     13  H   UNL     1      -1.332   5.600  -1.897  0.00  0.00    +0.149 HD
BRANCH  12  14
ATOM     14  C   UNL     1      -2.436   5.493  -3.708  0.00  0.00    +0.143 C 
BRANCH  14  15
ATOM     15  C   UNL     1      -2.468   6.999  -3.660  0.00  0.00    +0.011 A 
ATOM     16  C   UNL     1      -3.595   7.652  -3.200  0.00  0.00    +0.009 A 
ATOM     17  C   UNL     1      -3.625   9.033  -3.155  0.00  0.00    +0.001 A 
ATOM     18  C   UNL     1      -2.527   9.765  -3.570  0.00  0.00    +0.004 A 
ATOM     19  C   UNL     1      -1.398   9.117  -4.029  0.00  0.00    +0.046 A 
ATOM     20  C   UNL     1      -1.363   7.730  -4.071  0.00  0.00    +0.125 A 
BRANCH  20  21
ATOM     21  O   UNL     1      -0.251   7.090  -4.519  0.00  0.00    -0.495 OA
ATOM     22  C   UNL     1       0.848   7.907  -4.926  0.00  0.00    +0.277 C 
ENDBRANCH  20  21
ENDBRANCH  14  15
ENDBRANCH  12  14
ENDBRANCH   7  10
BRANCH   1  23
ATOM     23  C   UNL     1      -4.086   2.423  -0.248  0.00  0.00    +0.130 C 
BRANCH  23  26
ATOM     24  C   UNL     1      -5.752   3.937   2.583  0.00  0.00    +0.147 A 
ATOM     25  C   UNL     1      -5.097   4.053   1.374  0.00  0.00    +0.141 A 
ATOM     26  N   UNL     1      -4.788   2.802   0.980  0.00  0.00    -0.253 N 
ATOM     27  N   UNL     1      -5.272   1.932   1.967  0.00  0.00    -0.065 NA
ATOM     28  N   UNL     1      -5.826   2.630   2.896  0.00  0.00    -0.127 NA
BRANCH  24  30
ATOM     29  C   UNL     1      -6.972   4.766   4.695  0.00  0.00    +0.093 C 
ATOM     30  C   UNL     1      -6.276   5.046   3.388  0.00  0.00    +0.181 C 
ATOM     31  O   UNL     1      -6.149   6.189   3.002  0.00  0.00    -0.291 OA
ENDBRANCH  24  30
ENDBRANCH  23  26
ENDBRANCH   1  23
TORSDOF 7
