REMARK  Name = ZINC39252366
REMARK  6 active torsions:
REMARK  status: ('A' for Active; 'I' for Inactive)
REMARK    1  A    between atoms: C_6  and  C_11
REMARK    2  A    between atoms: C_11  and  C_12
REMARK    3  A    between atoms: C_12  and  N_13
REMARK    4  A    between atoms: C_15  and  C_20
REMARK    5  A    between atoms: N_22  and  C_23
REMARK    6  A    between atoms: C_27  and  C_30
REMARK                            x       y       z     vdW  Elec       q    Type
REMARK                         _______ _______ _______ _____ _____    ______ ____
ROOT
ATOM      1  N   UNL     1      -6.894  -0.309  -1.370  0.00  0.00    -0.300 N 
ATOM      2  C   UNL     1      -7.913  -1.361  -1.466  0.00  0.00    +0.121 C 
ATOM      3  C   UNL     1      -9.226  -0.708  -0.978  0.00  0.00    +0.101 C 
ATOM      4  C   UNL     1      -8.964   0.787  -1.274  0.00  0.00    +0.110 C 
ATOM      5  C   UNL     1      -7.456   0.907  -1.261  0.00  0.00    +0.216 C 
ATOM      6  O   UNL     1      -6.844   1.950  -1.169  0.00  0.00    -0.276 OA
ENDROOT
BRANCH   3   7
ATOM      7  C   UNL     1     -10.406  -1.216  -1.765  0.00  0.00    +0.220 C 
ATOM      8  O   UNL     1     -10.241  -2.031  -2.648  0.00  0.00    -0.275 OA
ATOM      9  N   UNL     1     -11.645  -0.765  -1.488  0.00  0.00    -0.290 N 
ATOM     10  H   UNL     1     -11.778  -0.113  -0.782  0.00  0.00    +0.151 HD
BRANCH   9  11
ATOM     11  C   UNL     1     -12.793  -1.259  -2.254  0.00  0.00    +0.217 C 
ATOM     12  N   UNL     1     -14.069  -0.864  -1.610  0.00  0.00    -0.226 NA
ATOM     13  N   UNL     1     -14.991  -0.127  -2.449  0.00  0.00    -0.233 NA
ATOM     14  C   UNL     1     -14.284   0.741  -3.441  0.00  0.00    +0.234 C 
ATOM     15  S   UNL     1     -12.908  -0.412  -3.888  0.00  0.00    -0.093 S 
ATOM     16  H   UNL     1     -14.522  -1.660  -1.187  0.00  0.00    +0.143 HD
ATOM     17  H   UNL     1     -15.637  -0.750  -2.909  0.00  0.00    +0.142 HD
BRANCH  14  18
ATOM     18  C   UNL     1     -15.172   1.054  -4.647  0.00  0.00    +0.415 C 
ATOM     19  F   UNL     1     -16.325   1.720  -4.218  0.00  0.00    -0.168 F 
ATOM     20  F   UNL     1     -14.470   1.866  -5.545  0.00  0.00    -0.168 F 
ATOM     21  F   UNL     1     -15.533  -0.140  -5.282  0.00  0.00    -0.168 F 
ENDBRANCH  14  18
ENDBRANCH   9  11
ENDBRANCH   3   7
BRANCH   1  22
ATOM     22  C   UNL     1      -5.450  -0.554  -1.385  0.00  0.00    +0.112 C 
BRANCH  22  23
ATOM     23  C   UNL     1      -4.954  -0.771   0.046  0.00  0.00    +0.056 C 
BRANCH  23  29
ATOM     24  C   UNL     1      -0.017   1.373   0.010  0.00  0.00    +0.022 A 
ATOM     25  C   UNL     1       0.002  -0.004   0.002  0.00  0.00    +0.027 A 
ATOM     26  C   UNL     1      -1.196  -0.712   0.010  0.00  0.00    +0.047 A 
ATOM     27  N   UNL     1      -1.504  -2.054   0.005  0.00  0.00    -0.360 N 
ATOM     28  C   UNL     1      -2.862  -2.220   0.018  0.00  0.00    +0.087 A 
ATOM     29  C   UNL     1      -3.469  -1.022   0.030  0.00  0.00    -0.021 A 
ATOM     30  C   UNL     1      -2.413  -0.007   0.026  0.00  0.00    +0.004 A 
ATOM     31  C   UNL     1      -2.410   1.389   0.033  0.00  0.00    +0.030 A 
ATOM     32  C   UNL     1      -1.221   2.065   0.031  0.00  0.00    +0.042 A 
ATOM     33 CL   UNL     1      -1.217   3.801   0.040  0.00  0.00    -0.084 Cl
ATOM     34  H   UNL     1      -0.855  -2.775  -0.005  0.00  0.00    +0.165 HD
ENDBRANCH  23  29
ENDBRANCH  22  23
ENDBRANCH   1  22
TORSDOF 6
