REMARK  Name = ZINC12192268
REMARK  14 active torsions:
REMARK  status: ('A' for Active; 'I' for Inactive)
REMARK    1  A    between atoms: C_1  and  C_2
REMARK    2  A    between atoms: C_5  and  C_7
REMARK    3  A    between atoms: C_7  and  C_9
REMARK    4  A    between atoms: C_7  and  C_10
REMARK    5  A    between atoms: C_10  and  C_11
REMARK    6  A    between atoms: C_11  and  N_75
REMARK    7  A    between atoms: C_14  and  C_17
REMARK    8  A    between atoms: C_17  and  C_19
REMARK    9  A    between atoms: C_17  and  N_26
REMARK   10  A    between atoms: C_19  and  C_20
REMARK   11  A    between atoms: N_26  and  C_27
REMARK   12  A    between atoms: C_28  and  C_30
REMARK   13  A    between atoms: C_32  and  C_36
REMARK   14  A    between atoms: N_34  and  C_35
REMARK                            x       y       z     vdW  Elec       q    Type
REMARK                         _______ _______ _______ _____ _____    ______ ____
ROOT
ATOM      1  C   UNL     1      -9.533  -3.137   4.236  0.00  0.00    +0.083 C 
ENDROOT
BRANCH   1   4
ATOM      2  C   UNL     1      -6.011  -1.583   4.153  0.00  0.00    -0.079 C 
ATOM      3  C   UNL     1      -7.129  -2.578   3.831  0.00  0.00    -0.013 C 
ATOM      4  C   UNL     1      -8.393  -2.182   4.598  0.00  0.00    +0.006 C 
ATOM      5  C   UNL     1      -8.784  -0.751   4.220  0.00  0.00    -0.013 C 
ATOM      6  C   UNL     1      -7.618   0.190   4.530  0.00  0.00    -0.079 C 
ATOM      7  N   UNL     1      -6.440  -0.229   3.742  0.00  0.00    +0.380 N 
ATOM      8  H   UNL     1      -6.694  -0.248   2.748  0.00  0.00    -0.082 HD
BRANCH   7   9
ATOM      9  C   UNL     1      -5.335   0.731   3.937  0.00  0.00    -0.078 C 
BRANCH   9  10
ATOM     10  C   UNL     1      -4.051   0.145   3.346  0.00  0.00    -0.008 C 
BRANCH  10  11
ATOM     11  C   UNL     1      -2.906   1.145   3.519  0.00  0.00    +0.050 C 
ATOM     12  C   UNL     1      -3.196   2.400   2.692  0.00  0.00    +0.015 C 
BRANCH  11  17
ATOM     13  C   UNL     1       0.534  -1.021   0.534  0.00  0.00    +0.086 C 
ATOM     14  C   UNL     1      -0.122  -0.421   1.750  0.00  0.00    +0.102 A 
ATOM     15  C   UNL     1       0.445  -0.284   2.963  0.00  0.00    +0.044 A 
ATOM     16  C   UNL     1      -0.520   0.323   3.800  0.00  0.00    +0.045 A 
ATOM     17  C   UNL     1      -1.618   0.521   3.049  0.00  0.00    +0.108 A 
ATOM     18  O   UNL     1      -1.369   0.074   1.807  0.00  0.00    -0.465 OA
ENDBRANCH  11  17
ENDBRANCH  10  11
ENDBRANCH   9  10
ENDBRANCH   7   9
ENDBRANCH   1   4
BRANCH   1  19
ATOM     19  N   UNL     1     -10.743  -2.752   4.966  0.00  0.00    -0.296 N 
ATOM     20  C   UNL     1     -10.743  -2.743   6.431  0.00  0.00    +0.132 C 
ATOM     21  C   UNL     1     -11.857  -2.407   4.290  0.00  0.00    +0.265 C 
ATOM     22  O   UNL     1     -11.890  -2.511   3.079  0.00  0.00    -0.268 OA
BRANCH  21  23
ATOM     23  C   UNL     1     -13.034  -1.906   5.018  0.00  0.00    +0.123 A 
ATOM     24  C   UNL     1     -13.111  -1.609   6.367  0.00  0.00    +0.057 A 
ATOM     25  C   UNL     1     -14.422  -1.173   6.576  0.00  0.00    +0.061 A 
ATOM     26  N   UNL     1     -15.047  -1.218   5.427  0.00  0.00    -0.176 NA
ATOM     27  N   UNL     1     -14.267  -1.635   4.496  0.00  0.00    -0.262 N 
ATOM     28  C   UNL     1     -14.643  -1.800   3.090  0.00  0.00    +0.173 C 
ATOM     29  C   UNL     1     -15.011  -0.730   7.890  0.00  0.00    +0.067 C 
ENDBRANCH  21  23
ENDBRANCH   1  19
BRANCH   1  30
ATOM     30  C   UNL     1      -9.141  -4.566   4.614  0.00  0.00    +0.058 C 
BRANCH  30  31
ATOM     31  C   UNL     1     -10.209  -5.521   4.146  0.00  0.00    -0.046 A 
ATOM     32  C   UNL     1     -11.264  -5.841   4.981  0.00  0.00    +0.004 A 
ATOM     33  C   UNL     1     -12.246  -6.713   4.550  0.00  0.00    +0.000 A 
ATOM     34  C   UNL     1     -12.168  -7.272   3.288  0.00  0.00    +0.000 A 
ATOM     35  C   UNL     1     -11.111  -6.956   2.456  0.00  0.00    +0.000 A 
ATOM     36  C   UNL     1     -10.131  -6.080   2.885  0.00  0.00    +0.004 A 
ENDBRANCH  30  31
ENDBRANCH   1  30
TORSDOF 9
