REMARK  Name = ZINC38806322
REMARK  10 active torsions:
REMARK  status: ('A' for Active; 'I' for Inactive)
REMARK    1  A    between atoms: C_1  and  C_2
REMARK    2  A    between atoms: C_4  and  C_14
REMARK    3  A    between atoms: N_16  and  C_17
REMARK    4  A    between atoms: C_18  and  C_30
REMARK    5  A    between atoms: C_22  and  C_28
REMARK    6  A    between atoms: C_22  and  C_29
REMARK    7  A    between atoms: C_24  and  C_26
REMARK    8  A    between atoms: C_24  and  C_27
REMARK    9  A    between atoms: C_30  and  O_32
REMARK   10  A    between atoms: O_32  and  C_33
REMARK                            x       y       z     vdW  Elec       q    Type
REMARK                         _______ _______ _______ _____ _____    ______ ____
ROOT
ATOM      1  C   UNL     1      -2.781   1.717   2.825  0.00  0.00    +0.086 A 
ATOM      2  C   UNL     1      -3.145   3.016   3.160  0.00  0.00    +0.091 A 
ATOM      3  C   UNL     1      -3.586   3.242   4.518  0.00  0.00    -0.024 A 
ATOM      4  C   UNL     1      -3.575   2.142   5.306  0.00  0.00    -0.016 A 
ATOM      5  S   UNL     1      -3.004   0.848   4.245  0.00  0.00    -0.079 S 
ATOM      6  C   UNL     1      -3.958   2.081   6.747  0.00  0.00    -0.041 C 
ATOM      7  N   UNL     1      -4.557   3.330   7.214  0.00  0.00    +0.389 N 
ATOM      8  C   UNL     1      -5.096   4.216   6.191  0.00  0.00    -0.069 C 
ATOM      9  C   UNL     1      -4.053   4.559   5.120  0.00  0.00    +0.024 C 
ATOM     10  C   UNL     1      -5.528   5.532   6.866  0.00  0.00    -0.010 C 
ATOM     11  C   UNL     1      -6.330   3.604   5.523  0.00  0.00    -0.010 C 
ATOM     12  C   UNL     1      -4.927   0.911   6.970  0.00  0.00    -0.005 C 
ATOM     13  C   UNL     1      -2.687   1.805   7.573  0.00  0.00    -0.005 C 
ATOM     14  H   UNL     1      -5.301   3.107   7.877  0.00  0.00    -0.084 HD
ATOM     15  H   UNL     1      -3.855   3.845   7.750  0.00  0.00    -0.084 HD
ENDROOT
BRANCH   1  18
ATOM     16  C   UNL     1      -2.019  -0.054   1.450  0.00  0.00    +0.262 C 
ATOM     17  O   UNL     1      -2.214  -0.833   2.359  0.00  0.00    -0.271 OA
ATOM     18  N   UNL     1      -2.334   1.248   1.600  0.00  0.00    -0.276 N 
ATOM     19  H   UNL     1      -2.247   1.857   0.850  0.00  0.00    +0.155 HD
BRANCH  16  22
ATOM     20  C   UNL     1      -0.002   1.517   0.024  0.00  0.00    +0.056 C 
ATOM     21  C   UNL     1       0.008  -0.013   0.011  0.00  0.00    +0.220 C 
ATOM     22  C   UNL     1      -1.425  -0.541   0.154  0.00  0.00    +0.299 C 
ATOM     23  O   UNL     1      -1.378  -1.972   0.152  0.00  0.00    -0.472 OA
ATOM     24  C   UNL     1      -0.434  -2.554   0.942  0.00  0.00    +0.163 A 
ATOM     25  C   UNL     1      -0.556  -3.896   1.272  0.00  0.00    +0.049 A 
ATOM     26  C   UNL     1       0.395  -4.501   2.071  0.00  0.00    +0.004 A 
ATOM     27  C   UNL     1       1.471  -3.772   2.542  0.00  0.00    +0.004 A 
ATOM     28  C   UNL     1       1.598  -2.435   2.218  0.00  0.00    +0.049 A 
ATOM     29  C   UNL     1       0.645  -1.820   1.418  0.00  0.00    +0.163 A 
ATOM     30  O   UNL     1       0.779  -0.500   1.114  0.00  0.00    -0.481 OA
ENDBRANCH  16  22
ENDBRANCH   1  18
BRANCH   2  31
ATOM     31  C   UNL     1      -3.078   4.097   2.174  0.00  0.00    +0.342 C 
ATOM     32  O   UNL     1      -4.042   4.342   1.474  0.00  0.00    -0.245 OA
BRANCH  31  33
ATOM     33  O   UNL     1      -1.947   4.820   2.042  0.00  0.00    -0.464 OA
ATOM     34  C   UNL     1      -1.952   5.859   1.061  0.00  0.00    +0.280 C 
ENDBRANCH  31  33
ENDBRANCH   2  31
TORSDOF 4
