REMARK  Name = ZINC17158306
REMARK  13 active torsions:
REMARK  status: ('A' for Active; 'I' for Inactive)
REMARK    1  A    between atoms: C_1  and  C_2
REMARK    2  A    between atoms: C_2  and  O_4
REMARK    3  A    between atoms: O_4  and  C_5
REMARK    4  A    between atoms: C_7  and  C_28
REMARK    5  A    between atoms: C_10  and  O_24
REMARK    6  A    between atoms: C_12  and  O_20
REMARK    7  A    between atoms: C_14  and  O_16
REMARK    8  A    between atoms: O_16  and  C_17
REMARK    9  A    between atoms: C_17  and  C_19
REMARK   10  A    between atoms: O_20  and  C_21
REMARK   11  A    between atoms: C_21  and  C_23
REMARK   12  A    between atoms: O_24  and  C_25
REMARK   13  A    between atoms: C_25  and  C_27
REMARK                            x       y       z     vdW  Elec       q    Type
REMARK                         _______ _______ _______ _____ _____    ______ ____
ROOT
ATOM      1  C   UNL     1      -0.013   1.086   0.008  0.00  0.00    +0.250 C 
ATOM      2  C   UNL     1      -0.722   1.581   1.271  0.00  0.00    +0.176 C 
ATOM      3  O   UNL     1      -0.689   3.009   1.305  0.00  0.00    -0.331 OA
ATOM      4  C   UNL     1       0.628   3.562   1.344  0.00  0.00    +0.356 C 
ATOM      5  C   UNL     1       1.392   3.146   0.084  0.00  0.00    +0.289 C 
ATOM      6  C   UNL     1       1.424   1.617  -0.003  0.00  0.00    +0.266 C 
ENDROOT
BRANCH   2   7
ATOM      7  C   UNL     1      -2.176   1.104   1.260  0.00  0.00    +0.110 C 
ATOM      8  I   UNL     1      -3.128   1.651   3.122  0.00  0.00    -0.083 I 
ENDBRANCH   2   7
BRANCH   1   9
ATOM      9  O   UNL     1      -0.717   1.568  -1.166  0.00  0.00    -0.455 OA
BRANCH   9  11
ATOM     10  C   UNL     1      -2.466   1.220  -2.874  0.00  0.00    +0.136 C 
ATOM     11  C   UNL     1      -1.691   0.785  -1.657  0.00  0.00    +0.304 C 
ATOM     12  O   UNL     1      -1.945  -0.269  -1.123  0.00  0.00    -0.251 OA
ENDBRANCH   9  11
ENDBRANCH   1   9
BRANCH   6  13
ATOM     13  O   UNL     1       2.081   1.215  -1.233  0.00  0.00    -0.454 OA
BRANCH  13  14
ATOM     14  C   UNL     1       3.409   1.027  -1.181  0.00  0.00    +0.304 C 
ATOM     15  O   UNL     1       4.003   1.193  -0.142  0.00  0.00    -0.251 OA
ATOM     16  C   UNL     1       4.160   0.608  -2.419  0.00  0.00    +0.136 C 
ENDBRANCH  13  14
ENDBRANCH   6  13
BRANCH   5  17
ATOM     17  O   UNL     1       2.749   3.657   0.149  0.00  0.00    -0.451 OA
BRANCH  17  18
ATOM     18  C   UNL     1       2.968   4.874  -0.374  0.00  0.00    +0.305 C 
ATOM     19  O   UNL     1       2.055   5.491  -0.870  0.00  0.00    -0.251 OA
ATOM     20  C   UNL     1       4.352   5.470  -0.344  0.00  0.00    +0.136 C 
ENDBRANCH  17  18
ENDBRANCH   5  17
BRANCH   4  21
ATOM     21  O   UNL     1       0.544   5.010   1.404  0.00  0.00    -0.431 OA
BRANCH  21  22
ATOM     22  C   UNL     1       0.088   5.547   2.547  0.00  0.00    +0.306 C 
ATOM     23  O   UNL     1      -0.231   4.831   3.466  0.00  0.00    -0.251 OA
ATOM     24  C   UNL     1      -0.027   7.044   2.682  0.00  0.00    +0.136 C 
ENDBRANCH  21  22
ENDBRANCH   4  21
TORSDOF 9
