REMARK  Name = ZINC63428441
REMARK  4 active torsions:
REMARK  status: ('A' for Active; 'I' for Inactive)
REMARK    1  A    between atoms: C_3  and  C_8
REMARK    2  A    between atoms: C_8  and  O_9
REMARK    3  A    between atoms: O_9  and  C_10
REMARK    4  A    between atoms: C_13  and  C_16
REMARK                            x       y       z     vdW  Elec       q    Type
REMARK                         _______ _______ _______ _____ _____    ______ ____
ROOT
ATOM      1  C   UNL     1       8.895   5.279   2.031  0.00  0.00    +0.047 C 
ATOM      2  C   UNL     1       9.502   4.938   3.395  0.00  0.00    +0.105 C 
ATOM      3  C   UNL     1       8.706   5.555   4.506  0.00  0.00    +0.219 C 
ATOM      4  O   UNL     1       8.829   5.097   5.622  0.00  0.00    -0.275 OA
ATOM      5  N   UNL     1       7.867   6.586   4.335  0.00  0.00    -0.273 N 
ATOM      6  C   UNL     1       7.626   7.095   3.090  0.00  0.00    +0.117 C 
ATOM      7  N   UNL     1       6.571   7.823   2.861  0.00  0.00    -0.205 NA
ATOM      8  C   UNL     1       6.245   8.241   1.632  0.00  0.00    +0.206 C 
ATOM      9  N   UNL     1       6.951   7.906   0.563  0.00  0.00    -0.147 NA
ATOM     10  C   UNL     1       8.069   7.198   0.660  0.00  0.00    +0.250 C 
ATOM     11  O   UNL     1       8.663   6.880  -0.352  0.00  0.00    -0.273 OA
ATOM     12  C   UNL     1       8.611   6.783   1.992  0.00  0.00    +0.148 C 
ATOM     13  N   UNL     1       5.146   9.039   1.475  0.00  0.00    -0.329 N 
ATOM     14  H   UNL     1       7.424   6.975   5.105  0.00  0.00    +0.156 HD
ATOM     15  H   UNL     1       4.617   9.294   2.247  0.00  0.00    +0.145 HD
ATOM     16  H   UNL     1       4.895   9.351   0.592  0.00  0.00    +0.145 HD
ENDROOT
BRANCH   1  20
ATOM     17  C   UNL     1       5.252   3.110   1.494  0.00  0.00    +0.121 A 
ATOM     18  C   UNL     1       6.214   3.111   0.495  0.00  0.00    +0.046 A 
ATOM     19  C   UNL     1       7.391   3.812   0.671  0.00  0.00    +0.007 A 
ATOM     20  C   UNL     1       7.611   4.514   1.842  0.00  0.00    -0.042 A 
ATOM     21  C   UNL     1       6.654   4.515   2.839  0.00  0.00    +0.007 A 
ATOM     22  C   UNL     1       5.472   3.820   2.666  0.00  0.00    +0.046 A 
BRANCH  17  23
ATOM     23  O   UNL     1       4.094   2.421   1.324  0.00  0.00    -0.487 OA
BRANCH  23  24
ATOM     24  C   UNL     1       3.935   1.713   0.092  0.00  0.00    +0.264 C 
BRANCH  24  27
ATOM     25  C   UNL     1       0.259   1.021  -0.422  0.00  0.00    +0.002 A 
ATOM     26  C   UNL     1       1.484   1.662  -0.413  0.00  0.00    +0.007 A 
ATOM     27  C   UNL     1       2.600   1.014   0.083  0.00  0.00    -0.009 A 
ATOM     28  C   UNL     1       2.492  -0.275   0.570  0.00  0.00    +0.027 A 
ATOM     29  C   UNL     1       1.267  -0.917   0.561  0.00  0.00    +0.041 A 
ATOM     30  C   UNL     1       0.150  -0.268   0.065  0.00  0.00    +0.020 A 
ATOM     31 CL   UNL     1       1.130  -2.536   1.172  0.00  0.00    -0.084 Cl
ENDBRANCH  24  27
ENDBRANCH  23  24
ENDBRANCH  17  23
ENDBRANCH   1  20
TORSDOF 4
