REMARK  Name = ZINC63806978
REMARK  5 active torsions:
REMARK  status: ('A' for Active; 'I' for Inactive)
REMARK    1  A    between atoms: C_4  and  C_7
REMARK    2  A    between atoms: C_9  and  C_14
REMARK    3  A    between atoms: N_16  and  C_17
REMARK    4  A    between atoms: C_17  and  C_18
REMARK    5  A    between atoms: C_18  and  C_19
REMARK                            x       y       z     vdW  Elec       q    Type
REMARK                         _______ _______ _______ _____ _____    ______ ____
ROOT
ATOM      1  C   UNL     1       5.278  -0.423  -1.987  0.00  0.00    +0.229 C 
ATOM      2  O   UNL     1       6.194  -0.203  -1.223  0.00  0.00    -0.274 OA
ATOM      3  N   UNL     1       5.371  -0.047  -3.278  0.00  0.00    -0.314 N 
ATOM      4  H   UNL     1       4.638  -0.224  -3.889  0.00  0.00    +0.149 HD
ENDROOT
BRANCH   1   6
ATOM      5  C   UNL     1       3.711  -0.707  -0.038  0.00  0.00    +0.123 C 
ATOM      6  C   UNL     1       4.035  -1.118  -1.493  0.00  0.00    +0.171 C 
ATOM      7  S   UNL     1       4.319  -2.930  -1.306  0.00  0.00    -0.051 S 
ATOM      8  N   UNL     1       4.533  -2.953   0.479  0.00  0.00    -0.199 NA
ATOM      9  N   UNL     1       3.622  -1.860   0.863  0.00  0.00    -0.238 NA
ATOM     10  H   UNL     1       4.228  -3.832   0.868  0.00  0.00    +0.154 HD
ATOM     11  H   UNL     1       2.671  -2.190   0.935  0.00  0.00    +0.142 HD
BRANCH   5  15
ATOM     12  C   UNL     1      -0.017   1.378   0.010  0.00  0.00    +0.000 A 
ATOM     13  C   UNL     1       1.171   2.086   0.002  0.00  0.00    +0.000 A 
ATOM     14  C   UNL     1       2.377   1.411  -0.013  0.00  0.00    +0.005 A 
ATOM     15  C   UNL     1       2.396   0.029  -0.020  0.00  0.00    -0.028 A 
ATOM     16  C   UNL     1       1.208  -0.679  -0.012  0.00  0.00    +0.005 A 
ATOM     17  C   UNL     1       0.002  -0.004   0.002  0.00  0.00    +0.000 A 
ENDBRANCH   5  15
ENDBRANCH   1   6
BRANCH   3  18
ATOM     18  C   UNL     1       6.579   0.628  -3.758  0.00  0.00    +0.108 C 
BRANCH  18  19
ATOM     19  C   UNL     1       6.428   0.944  -5.248  0.00  0.00    +0.052 C 
BRANCH  19  20
ATOM     20  C   UNL     1       7.671   1.639  -5.742  0.00  0.00    -0.040 C 
ATOM     21  C   UNL     1       8.737   1.067  -6.347  0.00  0.00    -0.001 A 
ATOM     22  C   UNL     1       9.047  -0.321  -6.710  0.00  0.00    +0.010 A 
ATOM     23  C   UNL     1      10.223  -0.593  -7.320  0.00  0.00    +0.001 A 
ATOM     24  C   UNL     1      11.151   0.416  -7.614  0.00  0.00    +0.002 A 
ATOM     25  C   UNL     1      10.937   1.714  -7.311  0.00  0.00    +0.026 A 
ATOM     26  C   UNL     1       9.733   2.113  -6.668  0.00  0.00    +0.043 A 
ATOM     27  N   UNL     1       9.300   3.287  -6.277  0.00  0.00    -0.380 N 
ATOM     28  C   UNL     1       7.975   3.119  -5.669  0.00  0.00    +0.144 C 
ATOM     29  H   UNL     1       9.773   4.128  -6.378  0.00  0.00    +0.160 HD
ENDBRANCH  19  20
ENDBRANCH  18  19
ENDBRANCH   3  18
TORSDOF 5
