REMARK  Name = ZINC35137896
REMARK  15 active torsions:
REMARK  status: ('A' for Active; 'I' for Inactive)
REMARK    1  A    between atoms: C_1  and  C_2
REMARK    2  A    between atoms: C_2  and  C_3
REMARK    3  A    between atoms: C_2  and  N_4
REMARK    4  A    between atoms: N_4  and  C_5
REMARK    5  A    between atoms: C_5  and  C_6
REMARK    6  A    between atoms: N_8  and  C_9
REMARK    7  A    between atoms: C_11  and  C_18
REMARK    8  A    between atoms: N_13  and  C_14
REMARK    9  A    between atoms: C_14  and  C_15
REMARK   10  A    between atoms: C_14  and  C_16
REMARK   11  A    between atoms: C_14  and  C_17
REMARK   12  A    between atoms: C_18  and  C_19
REMARK   13  A    between atoms: C_18  and  C_20
REMARK   14  A    between atoms: C_18  and  C_21
REMARK   15  A    between atoms: N_24  and  C_25
REMARK                            x       y       z     vdW  Elec       q    Type
REMARK                         _______ _______ _______ _____ _____    ______ ____
ROOT
ATOM      1  C   UNL     1      -1.552  -2.803  -0.893  0.00  0.00    +0.236 C 
ATOM      2  O   UNL     1      -1.145  -3.086   0.214  0.00  0.00    -0.274 OA
ATOM      3  N   UNL     1      -1.826  -3.779  -1.780  0.00  0.00    -0.269 N 
ATOM      4  H   UNL     1      -2.152  -3.553  -2.666  0.00  0.00    +0.156 HD
ENDROOT
BRANCH   3   5
ATOM      5  C   UNL     1      -1.640  -5.115  -1.427  0.00  0.00    +0.124 A 
ATOM      6  C   UNL     1      -1.197  -5.575  -0.225  0.00  0.00    +0.069 A 
ATOM      7  C   UNL     1      -1.156  -6.971  -0.289  0.00  0.00    +0.070 A 
ATOM      8  N   UNL     1      -1.557  -7.340  -1.478  0.00  0.00    -0.174 NA
ATOM      9  N   UNL     1      -1.873  -6.190  -2.214  0.00  0.00    -0.245 N 
BRANCH   9  10
ATOM     10  C   UNL     1      -2.366  -6.158  -3.593  0.00  0.00    +0.057 C 
ATOM     11  C   UNL     1      -1.385  -5.375  -4.467  0.00  0.00    +0.036 C 
ATOM     12  C   UNL     1      -2.492  -7.588  -4.123  0.00  0.00    +0.036 C 
ATOM     13  C   UNL     1      -3.737  -5.478  -3.629  0.00  0.00    +0.036 C 
ENDBRANCH   9  10
BRANCH   7  14
ATOM     14  C   UNL     1      -0.723  -7.893   0.822  0.00  0.00    +0.006 C 
ATOM     15  C   UNL     1      -1.826  -7.969   1.880  0.00  0.00    +0.017 C 
ATOM     16  C   UNL     1      -0.464  -9.289   0.253  0.00  0.00    +0.017 C 
ATOM     17  C   UNL     1       0.559  -7.355   1.460  0.00  0.00    +0.017 C 
ENDBRANCH   7  14
ENDBRANCH   3   5
BRANCH   1  18
ATOM     18  C   UNL     1      -1.753  -1.359  -1.275  0.00  0.00    +0.205 C 
BRANCH  18  19
ATOM     19  N   UNL     1      -1.388  -0.500  -0.146  0.00  0.00    -0.274 N 
ATOM     20  C   UNL     1      -2.319  -0.153   0.766  0.00  0.00    +0.303 C 
ATOM     21  O   UNL     1      -3.480  -0.475   0.602  0.00  0.00    -0.253 OA
ATOM     22  N   UNL     1      -1.962   0.550   1.859  0.00  0.00    -0.296 N 
ATOM     23  H   UNL     1      -1.052   0.871   1.953  0.00  0.00    +0.151 HD
BRANCH  22  24
ATOM     24  C   UNL     1      -2.950   0.829   2.904  0.00  0.00    +0.074 C 
ATOM     25  C   UNL     1      -3.742   2.085   2.535  0.00  0.00    +0.022 C 
ATOM     26  C   UNL     1      -4.774   2.376   3.627  0.00  0.00    +0.002 C 
ATOM     27  C   UNL     1      -4.056   2.600   4.960  0.00  0.00    +0.000 C 
ATOM     28  C   UNL     1      -3.263   1.344   5.329  0.00  0.00    +0.002 C 
ATOM     29  C   UNL     1      -2.232   1.053   4.237  0.00  0.00    +0.022 C 
ENDBRANCH  22  24
BRANCH  19  31
ATOM     30  C   UNL     1       0.950  -1.207  -0.019  0.00  0.00    +0.028 C 
ATOM     31  C   UNL     1      -0.012  -0.017  -0.007  0.00  0.00    +0.072 C 
ATOM     32  C   UNL     1       0.320   0.918  -1.172  0.00  0.00    +0.028 C 
ENDBRANCH  19  31
ENDBRANCH  18  19
ENDBRANCH   1  18
TORSDOF 7
