REMARK  Name = ZINC13322553
REMARK  12 active torsions:
REMARK  status: ('A' for Active; 'I' for Inactive)
REMARK    1  A    between atoms: C_1  and  C_2
REMARK    2  A    between atoms: C_2  and  C_3
REMARK    3  A    between atoms: C_3  and  C_4
REMARK    4  A    between atoms: C_11  and  N_16
REMARK    5  A    between atoms: C_12  and  C_13
REMARK    6  A    between atoms: C_17  and  C_19
REMARK    7  A    between atoms: C_21  and  O_29
REMARK    8  A    between atoms: C_22  and  O_27
REMARK    9  A    between atoms: C_23  and  O_25
REMARK   10  A    between atoms: O_25  and  C_26
REMARK   11  A    between atoms: O_27  and  C_28
REMARK   12  A    between atoms: O_29  and  C_30
REMARK                            x       y       z     vdW  Elec       q    Type
REMARK                         _______ _______ _______ _____ _____    ______ ____
ROOT
ATOM      1  C   UNL     1      10.445  -3.074   0.267  0.00  0.00    -0.006 C 
ATOM      2  C   UNL     1      10.773  -1.831  -0.567  0.00  0.00    +0.008 C 
ATOM      3  C   UNL     1       9.922  -0.650  -0.096  0.00  0.00    +0.037 C 
ATOM      4  C   UNL     1       8.459  -1.074  -0.083  0.00  0.00    -0.023 A 
ATOM      5  C   UNL     1       8.112  -2.379  -0.086  0.00  0.00    -0.004 A 
ATOM      6  S   UNL     1       6.342  -2.378  -0.062  0.00  0.00    -0.077 S 
ATOM      7  C   UNL     1       6.064  -0.668  -0.059  0.00  0.00    +0.085 A 
ATOM      8  C   UNL     1       7.347  -0.139  -0.068  0.00  0.00    +0.068 A 
ATOM      9  C   UNL     1       9.036  -3.559  -0.100  0.00  0.00    +0.046 C 
ENDROOT
BRANCH   8  10
ATOM     10  C   UNL     1       7.571   1.310  -0.063  0.00  0.00    +0.244 C 
ATOM     11  O   UNL     1       7.675   1.906   0.993  0.00  0.00    -0.270 OA
ATOM     12  N   UNL     1       7.663   1.981  -1.228  0.00  0.00    -0.325 N 
ATOM     13  H   UNL     1       7.581   1.506  -2.070  0.00  0.00    +0.145 HD
ATOM     14  H   UNL     1       7.812   2.940  -1.225  0.00  0.00    +0.145 HD
ENDBRANCH   8  10
BRANCH   7  15
ATOM     15  N   UNL     1       4.854   0.007  -0.044  0.00  0.00    -0.275 N 
ATOM     16  C   UNL     1       3.696  -0.684  -0.037  0.00  0.00    +0.249 C 
ATOM     17  O   UNL     1       3.714  -1.900  -0.043  0.00  0.00    -0.270 OA
ATOM     18  H   UNL     1       4.840   0.977  -0.039  0.00  0.00    +0.156 HD
BRANCH  16  19
ATOM     19  C   UNL     1       2.408   0.035  -0.021  0.00  0.00    +0.044 A 
ATOM     20  C   UNL     1       1.208  -0.680  -0.013  0.00  0.00    +0.062 A 
ATOM     21  C   UNL     1       0.002  -0.004   0.002  0.00  0.00    +0.166 A 
ATOM     22  C   UNL     1      -0.017   1.388   0.010  0.00  0.00    +0.204 A 
ATOM     23  C   UNL     1       1.178   2.103   0.002  0.00  0.00    +0.166 A 
ATOM     24  C   UNL     1       2.386   1.432  -0.013  0.00  0.00    +0.062 A 
BRANCH  23  25
ATOM     25  O   UNL     1       1.156   3.463   0.010  0.00  0.00    -0.491 OA
ATOM     26  C   UNL     1       2.419   4.132   0.001  0.00  0.00    +0.277 C 
ENDBRANCH  23  25
BRANCH  22  27
ATOM     27  O   UNL     1      -1.204   2.050   0.019  0.00  0.00    -0.488 OA
ATOM     28  C   UNL     1      -1.764   2.360   1.296  0.00  0.00    +0.277 C 
ENDBRANCH  22  27
BRANCH  21  29
ATOM     29  O   UNL     1      -1.167  -0.699   0.010  0.00  0.00    -0.491 OA
ATOM     30  C   UNL     1      -1.073  -2.125   0.001  0.00  0.00    +0.277 C 
ENDBRANCH  21  29
ENDBRANCH  16  19
ENDBRANCH   7  15
BRANCH   1  31
ATOM     31  C   UNL     1      11.462  -4.176  -0.035  0.00  0.00    +0.003 C 
BRANCH  31  33
ATOM     32  C   UNL     1      12.226  -6.473   0.586  0.00  0.00    +0.004 C 
ATOM     33  C   UNL     1      11.209  -5.370   0.888  0.00  0.00    -0.003 C 
ENDBRANCH  31  33
ENDBRANCH   1  31
TORSDOF 8
