REMARK  Name = ZINC63486479
REMARK  6 active torsions:
REMARK  status: ('A' for Active; 'I' for Inactive)
REMARK    1  A    between atoms: C_1  and  C_2
REMARK    2  A    between atoms: C_5  and  N_8
REMARK    3  A    between atoms: C_11  and  C_13
REMARK    4  A    between atoms: N_15  and  C_16
REMARK    5  A    between atoms: C_16  and  C_17
REMARK    6  A    between atoms: C_19  and  C_22
REMARK                            x       y       z     vdW  Elec       q    Type
REMARK                         _______ _______ _______ _____ _____    ______ ____
ROOT
ATOM      1  C   UNL     1      -0.838  -7.340  -1.380  0.00  0.00    +0.265 C 
ATOM      2  O   UNL     1      -0.569  -8.471  -1.024  0.00  0.00    -0.268 OA
ATOM      3  N   UNL     1      -1.605  -7.142  -2.470  0.00  0.00    -0.303 N 
ATOM      4  H   UNL     1      -1.821  -6.240  -2.754  0.00  0.00    +0.150 HD
ENDROOT
BRANCH   1   8
ATOM      5  N   UNL     1       0.058  -4.172  -0.021  0.00  0.00    -0.236 N 
ATOM      6  C   UNL     1       0.708  -4.948   0.888  0.00  0.00    +0.049 A 
ATOM      7  C   UNL     1       0.486  -6.233   0.540  0.00  0.00    +0.006 A 
ATOM      8  C   UNL     1      -0.325  -6.185  -0.618  0.00  0.00    +0.151 A 
ATOM      9  N   UNL     1      -0.541  -4.911  -0.884  0.00  0.00    -0.161 NA
ATOM     10  C   UNL     1       1.177  -7.169   1.502  0.00  0.00    +0.040 C 
ATOM     11  C   UNL     1       2.208  -6.289   2.244  0.00  0.00    +0.011 C 
ATOM     12  C   UNL     1       1.573  -4.885   2.127  0.00  0.00    +0.056 C 
BRANCH   5  17
ATOM     13  C   UNL     1      -0.018   1.503   0.010  0.00  0.00    +0.044 C 
ATOM     14  C   UNL     1       0.002  -0.004   0.002  0.00  0.00    -0.050 A 
ATOM     15  C   UNL     1       0.006  -0.687  -1.200  0.00  0.00    +0.005 A 
ATOM     16  C   UNL     1       0.024  -2.068  -1.211  0.00  0.00    +0.028 A 
ATOM     17  C   UNL     1       0.040  -2.771  -0.013  0.00  0.00    +0.066 A 
ATOM     18  C   UNL     1       0.036  -2.082   1.192  0.00  0.00    +0.028 A 
ATOM     19  C   UNL     1       0.023  -0.700   1.196  0.00  0.00    +0.005 A 
ENDBRANCH   5  17
ENDBRANCH   1   8
BRANCH   3  20
ATOM     20  C   UNL     1      -2.115  -8.289  -3.226  0.00  0.00    +0.184 C 
BRANCH  20  21
ATOM     21  C   UNL     1      -2.938  -7.798  -4.389  0.00  0.00    +0.189 A 
ATOM     22  N   UNL     1      -4.251  -7.557  -4.361  0.00  0.00    -0.190 NA
ATOM     23  C   UNL     1      -4.656  -7.141  -5.540  0.00  0.00    +0.259 A 
ATOM     24  O   UNL     1      -3.590  -7.107  -6.358  0.00  0.00    -0.333 OA
ATOM     25  N   UNL     1      -2.482  -7.536  -5.581  0.00  0.00    -0.059 NA
BRANCH  23  26
ATOM     26  C   UNL     1      -6.041  -6.774  -5.902  0.00  0.00    +0.039 A 
ATOM     27  C   UNL     1      -7.059  -6.850  -4.950  0.00  0.00    +0.013 A 
ATOM     28  C   UNL     1      -8.350  -6.506  -5.294  0.00  0.00    +0.001 A 
ATOM     29  C   UNL     1      -8.637  -6.087  -6.581  0.00  0.00    +0.000 A 
ATOM     30  C   UNL     1      -7.633  -6.010  -7.530  0.00  0.00    +0.001 A 
ATOM     31  C   UNL     1      -6.337  -6.345  -7.197  0.00  0.00    +0.013 A 
ENDBRANCH  23  26
ENDBRANCH  20  21
ENDBRANCH   3  20
TORSDOF 5
