REMARK  Name = ZINC04728841
REMARK  7 active torsions:
REMARK  status: ('A' for Active; 'I' for Inactive)
REMARK    1  A    between atoms: C_1  and  C_2
REMARK    2  A    between atoms: C_2  and  O_3
REMARK    3  A    between atoms: O_3  and  C_4
REMARK    4  A    between atoms: C_7  and  C_11
REMARK    5  A    between atoms: C_8  and  O_10
REMARK    6  A    between atoms: N_12  and  N_13
REMARK    7  A    between atoms: C_15  and  C_24
REMARK                            x       y       z     vdW  Elec       q    Type
REMARK                         _______ _______ _______ _____ _____    ______ ____
ROOT
ATOM      1  C   UNL     1       1.101  -6.016  -1.834  0.00  0.00    +0.141 C 
ATOM      2  N   UNL     1       1.701  -6.502  -2.878  0.00  0.00    -0.189 NA
ENDROOT
BRANCH   2   3
ATOM      3  N   UNL     1       1.808  -7.889  -3.042  0.00  0.00    -0.220 N 
ATOM      4  C   UNL     1       2.449  -8.408  -4.156  0.00  0.00    +0.160 A 
ATOM      5  C   UNL     1       2.549  -9.802  -4.318  0.00  0.00    +0.080 A 
ATOM      6  N   UNL     1       3.151 -10.310  -5.365  0.00  0.00    -0.247 NA
ATOM      7  C   UNL     1       3.677  -9.498  -6.292  0.00  0.00    +0.090 A 
ATOM      8  C   UNL     1       4.327 -10.018  -7.423  0.00  0.00    +0.030 A 
ATOM      9  C   UNL     1       4.853  -9.171  -8.350  0.00  0.00    +0.002 A 
ATOM     10  C   UNL     1       4.757  -7.790  -8.193  0.00  0.00    +0.002 A 
ATOM     11  C   UNL     1       4.135  -7.250  -7.109  0.00  0.00    +0.030 A 
ATOM     12  C   UNL     1       3.579  -8.094  -6.133  0.00  0.00    +0.091 A 
ATOM     13  N   UNL     1       2.957  -7.590  -5.060  0.00  0.00    -0.227 NA
ATOM     14  C   UNL     1       1.958 -10.719  -3.278  0.00  0.00    +0.069 C 
ATOM     15  H   UNL     1       1.434  -8.487  -2.376  0.00  0.00    +0.176 HD
ENDBRANCH   2   3
BRANCH   1  19
ATOM     16  C   UNL     1       0.777  -1.810  -1.336  0.00  0.00    +0.124 A 
ATOM     17  C   UNL     1       0.240  -2.666  -0.382  0.00  0.00    +0.046 A 
ATOM     18  C   UNL     1       0.343  -4.031  -0.540  0.00  0.00    +0.016 A 
ATOM     19  C   UNL     1       0.988  -4.557  -1.662  0.00  0.00    +0.036 A 
ATOM     20  C   UNL     1       1.529  -3.691  -2.623  0.00  0.00    +0.129 A 
ATOM     21  C   UNL     1       1.415  -2.322  -2.456  0.00  0.00    +0.091 A 
BRANCH  20  22
ATOM     22  O   UNL     1       2.158  -4.194  -3.716  0.00  0.00    -0.506 OA
ATOM     23  H   UNL     1       1.573  -4.347  -4.471  0.00  0.00    +0.292 HD
ENDBRANCH  20  22
BRANCH  16  24
ATOM     24  O   UNL     1       0.671  -0.465  -1.174  0.00  0.00    -0.492 OA
BRANCH  24  26
ATOM     25  C   UNL     1      -0.019   1.526   0.010  0.00  0.00    +0.048 C 
ATOM     26  C   UNL     1       0.002  -0.004   0.002  0.00  0.00    +0.225 C 
ENDBRANCH  24  26
ENDBRANCH  16  24
ENDBRANCH   1  19
TORSDOF 5
