REMARK  Name = ZINC32620502
REMARK  10 active torsions:
REMARK  status: ('A' for Active; 'I' for Inactive)
REMARK    1  A    between atoms: C_1  and  C_2
REMARK    2  A    between atoms: C_2  and  C_38
REMARK    3  A    between atoms: C_3  and  N_27
REMARK    4  A    between atoms: N_5  and  C_21
REMARK    5  A    between atoms: N_8  and  C_9
REMARK    6  A    between atoms: C_9  and  C_10
REMARK    7  A    between atoms: N_12  and  N_13
REMARK    8  A    between atoms: C_14  and  C_15
REMARK    9  A    between atoms: N_27  and  O_37
REMARK   10  A    between atoms: N_30  and  C_31
REMARK                            x       y       z     vdW  Elec       q    Type
REMARK                         _______ _______ _______ _____ _____    ______ ____
ROOT
ATOM      1  C   UNL     1       0.493   2.650  -2.079  0.00  0.00    +0.035 C 
ATOM      2  C   UNL     1      -0.046   3.414  -0.869  0.00  0.00    +0.071 C 
ATOM      3  C   UNL     1       1.008   4.407  -0.343  0.00  0.00    +0.224 C 
ATOM      4  N   UNL     1       1.272   3.948   1.029  0.00  0.00    -0.232 N 
ATOM      5  C   UNL     1       0.511   2.876   1.288  0.00  0.00    +0.312 C 
ATOM      6  O   UNL     1       0.526   2.295   2.356  0.00  0.00    -0.252 OA
ATOM      7  N   UNL     1      -0.264   2.500   0.263  0.00  0.00    -0.268 N 
ATOM      8  C   UNL     1      -1.342   4.145  -1.226  0.00  0.00    +0.035 C 
ENDROOT
BRANCH   4   9
ATOM      9  C   UNL     1       2.170   4.540   1.924  0.00  0.00    +0.040 A 
ATOM     10  C   UNL     1       1.935   5.823   2.400  0.00  0.00    +0.023 A 
ATOM     11  C   UNL     1       2.821   6.403   3.286  0.00  0.00    +0.002 A 
ATOM     12  C   UNL     1       3.947   5.711   3.692  0.00  0.00    +0.000 A 
ATOM     13  C   UNL     1       4.187   4.435   3.217  0.00  0.00    +0.002 A 
ATOM     14  C   UNL     1       3.302   3.847   2.334  0.00  0.00    +0.023 A 
ENDBRANCH   4   9
BRANCH   3  15
ATOM     15  N   UNL     1       2.228   4.339  -1.151  0.00  0.00    -0.144 N 
ATOM     16  C   UNL     1       2.821   5.473  -1.573  0.00  0.00    +0.331 C 
ATOM     17  O   UNL     1       2.399   6.553  -1.206  0.00  0.00    -0.250 OA
ATOM     18  N   UNL     1       3.883   5.410  -2.400  0.00  0.00    -0.268 N 
ATOM     19  H   UNL     1       4.214   4.440  -2.798  0.00  0.00    +0.156 HD
BRANCH  18  20
ATOM     20  C   UNL     1       4.564   6.581  -2.754  0.00  0.00    +0.035 A 
ATOM     21  C   UNL     1       4.651   7.635  -1.855  0.00  0.00    +0.023 A 
ATOM     22  C   UNL     1       5.328   8.786  -2.205  0.00  0.00    +0.002 A 
ATOM     23  C   UNL     1       5.910   8.894  -3.455  0.00  0.00    +0.000 A 
ATOM     24  C   UNL     1       5.822   7.848  -4.355  0.00  0.00    +0.002 A 
ATOM     25  C   UNL     1       5.151   6.692  -4.008  0.00  0.00    +0.023 A 
ENDBRANCH  18  20
BRANCH  15  26
ATOM     26  O   UNL     1       2.783   3.081  -1.490  0.00  0.00    -0.289 OA
ATOM     27  H   UNL     1       3.699   3.030  -2.097  0.00  0.00    +0.242 HD
ENDBRANCH  15  26
ENDBRANCH   3  15
BRANCH   7  28
ATOM     28  C   UNL     1      -1.188   1.363   0.270  0.00  0.00    +0.207 C 
BRANCH  28  29
ATOM     29  C   UNL     1      -0.469   0.129  -0.210  0.00  0.00    +0.250 C 
ATOM     30  O   UNL     1       0.701   0.193  -0.526  0.00  0.00    -0.272 OA
ATOM     31  N   UNL     1      -1.124  -1.046  -0.288  0.00  0.00    -0.206 N 
ATOM     32  H   UNL     1      -2.185  -1.104  -0.001  0.00  0.00    +0.177 HD
BRANCH  31  33
ATOM     33  N   UNL     1      -0.455  -2.194  -0.734  0.00  0.00    -0.188 NA
ATOM     34  C   UNL     1      -1.110  -3.300  -0.907  0.00  0.00    +0.138 C 
BRANCH  34  35
ATOM     35  C   UNL     1      -2.561  -3.265  -1.168  0.00  0.00    -0.005 A 
ATOM     36  C   UNL     1      -3.309  -4.444  -1.135  0.00  0.00    +0.009 A 
ATOM     37  C   UNL     1      -4.667  -4.403  -1.376  0.00  0.00    +0.001 A 
ATOM     38  C   UNL     1      -5.286  -3.199  -1.661  0.00  0.00    +0.000 A 
ATOM     39  C   UNL     1      -4.551  -2.028  -1.701  0.00  0.00    +0.001 A 
ATOM     40  C   UNL     1      -3.193  -2.053  -1.457  0.00  0.00    +0.009 A 
ENDBRANCH  34  35
ENDBRANCH  31  33
ENDBRANCH  28  29
ENDBRANCH   7  28
TORSDOF 8
