REMARK  Name = ZINC30834520
REMARK  11 active torsions:
REMARK  status: ('A' for Active; 'I' for Inactive)
REMARK    1  A    between atoms: C_1  and  C_2
REMARK    2  A    between atoms: C_2  and  O_3
REMARK    3  A    between atoms: O_3  and  C_4
REMARK    4  A    between atoms: C_7  and  C_10
REMARK    5  A    between atoms: C_11  and  C_12
REMARK    6  A    between atoms: N_14  and  C_15
REMARK    7  A    between atoms: C_15  and  N_17
REMARK    8  A    between atoms: N_17  and  C_18
REMARK    9  A    between atoms: C_21  and  C_30
REMARK   10  A    between atoms: C_22  and  N_24
REMARK   11  A    between atoms: C_25  and  C_27
REMARK                            x       y       z     vdW  Elec       q    Type
REMARK                         _______ _______ _______ _____ _____    ______ ____
ROOT
ATOM      1  C   UNL     1       1.225  -1.993   0.244  0.00  0.00    +0.141 C 
ATOM      2  S   UNL     1      -0.192  -2.859   0.661  0.00  0.00    -0.018 S 
ENDROOT
BRANCH   1   5
ATOM      3  C   UNL     1       0.084   0.021   0.554  0.00  0.00    +0.242 C 
ATOM      4  O   UNL     1      -0.923  -0.595   0.850  0.00  0.00    -0.270 OA
ATOM      5  N   UNL     1       1.212  -0.645   0.235  0.00  0.00    -0.264 N 
ATOM      6  H   UNL     1       2.122  -0.088  -0.033  0.00  0.00    +0.157 HD
BRANCH   3   8
ATOM      7  C   UNL     1      -1.061   2.149   0.857  0.00  0.00    +0.013 C 
ATOM      8  C   UNL     1       0.071   1.482   0.543  0.00  0.00    +0.068 C 
BRANCH   7  12
ATOM      9  C   UNL     1      -1.101   6.390   0.829  0.00  0.00    +0.121 A 
ATOM     10  C   UNL     1      -2.254   5.688   1.161  0.00  0.00    +0.046 A 
ATOM     11  C   UNL     1      -2.247   4.312   1.172  0.00  0.00    +0.011 A 
ATOM     12  C   UNL     1      -1.075   3.618   0.847  0.00  0.00    -0.025 A 
ATOM     13  C   UNL     1       0.085   4.329   0.518  0.00  0.00    +0.011 A 
ATOM     14  C   UNL     1       0.066   5.706   0.506  0.00  0.00    +0.046 A 
BRANCH   9  15
ATOM     15  O   UNL     1      -1.114   7.747   0.820  0.00  0.00    -0.492 OA
BRANCH  15  17
ATOM     16  C   UNL     1      -0.102   9.920   0.513  0.00  0.00    +0.048 C 
ATOM     17  C   UNL     1       0.105   8.405   0.469  0.00  0.00    +0.225 C 
ENDBRANCH  15  17
ENDBRANCH   9  15
ENDBRANCH   7  12
ENDBRANCH   3   8
ENDBRANCH   1   5
BRANCH   1  18
ATOM     18  N   UNL     1       2.353  -2.658  -0.074  0.00  0.00    -0.297 N 
ATOM     19  H   UNL     1       3.235  -2.106  -0.430  0.00  0.00    +0.154 HD
BRANCH  18  20
ATOM     20  C   UNL     1       2.402  -4.051   0.049  0.00  0.00    +0.034 A 
ATOM     21  C   UNL     1       1.823  -4.673   1.148  0.00  0.00    +0.023 A 
ATOM     22  C   UNL     1       1.866  -6.048   1.267  0.00  0.00    +0.007 A 
ATOM     23  C   UNL     1       2.494  -6.809   0.300  0.00  0.00    -0.029 A 
ATOM     24  C   UNL     1       3.079  -6.193  -0.799  0.00  0.00    +0.038 A 
ATOM     25  C   UNL     1       3.033  -4.812  -0.925  0.00  0.00    +0.046 A 
ATOM     26  C   UNL     1       2.544  -8.309   0.437  0.00  0.00    +0.045 C 
BRANCH  24  27
ATOM     27  N   UNL     1       3.715  -6.964  -1.778  0.00  0.00    -0.285 N 
ATOM     28  C   UNL     1       3.877  -6.473  -3.023  0.00  0.00    +0.220 C 
ATOM     29  O   UNL     1       3.380  -5.408  -3.324  0.00  0.00    -0.275 OA
ATOM     30  H   UNL     1       4.081  -7.972  -1.533  0.00  0.00    +0.155 HD
BRANCH  28  31
ATOM     31  C   UNL     1       4.676  -7.246  -4.040  0.00  0.00    +0.075 C 
ATOM     32  C   UNL     1       6.019  -6.658  -4.479  0.00  0.00    +0.013 C 
ATOM     33  C   UNL     1       4.825  -6.634  -5.435  0.00  0.00    +0.013 C 
ENDBRANCH  28  31
ENDBRANCH  24  27
ENDBRANCH  18  20
ENDBRANCH   1  18
TORSDOF 9
