REMARK  Name = ZINC44657900
REMARK  5 active torsions:
REMARK  status: ('A' for Active; 'I' for Inactive)
REMARK    1  A    between atoms: C_1  and  C_2
REMARK    2  A    between atoms: C_2  and  C_4
REMARK    3  A    between atoms: C_2  and  S_10
REMARK    4  A    between atoms: S_10  and  C_11
REMARK    5  A    between atoms: C_15  and  C_17
REMARK                            x       y       z     vdW  Elec       q    Type
REMARK                         _______ _______ _______ _____ _____    ______ ____
ROOT
ATOM      1  C   UNL     1      -0.166  -0.072   2.855  0.00  0.00    +0.340 C 
ATOM      2  N   UNL     1      -0.333   1.391   2.839  0.00  0.00    -0.219 N 
ATOM      3  N   UNL     1      -1.710   1.610   2.685  0.00  0.00    -0.145 NA
ATOM      4  C   UNL     1      -2.341   0.468   2.613  0.00  0.00    +0.238 C 
ATOM      5  O   UNL     1      -1.495  -0.590   2.707  0.00  0.00    -0.443 OA
ATOM      6  H   UNL     1       0.362   2.063   2.918  0.00  0.00    +0.173 HD
ENDROOT
BRANCH   4   7
ATOM      7  C   UNL     1      -3.729   0.349   2.458  0.00  0.00    +0.043 C 
ATOM      8  C   UNL     1      -4.659   1.385   2.349  0.00  0.00    +0.008 A 
ATOM      9  C   UNL     1      -4.526   2.789   2.359  0.00  0.00    +0.010 A 
ATOM     10  C   UNL     1      -5.628   3.571   2.232  0.00  0.00    +0.001 A 
ATOM     11  C   UNL     1      -6.904   3.020   2.090  0.00  0.00    +0.002 A 
ATOM     12  C   UNL     1      -7.105   1.679   2.072  0.00  0.00    +0.026 A 
ATOM     13  C   UNL     1      -6.000   0.798   2.200  0.00  0.00    +0.043 A 
ATOM     14  N   UNL     1      -5.932  -0.519   2.212  0.00  0.00    -0.380 N 
ATOM     15  C   UNL     1      -4.533  -0.930   2.366  0.00  0.00    +0.154 C 
ATOM     16  H   UNL     1      -6.688  -1.121   2.130  0.00  0.00    +0.160 HD
ENDBRANCH   4   7
BRANCH   1  17
ATOM     17  S   UNL     1       0.879  -0.605   1.472  0.00  0.00    -0.089 S 
BRANCH  17  19
ATOM     18  C   UNL     1      -0.019   1.526   0.010  0.00  0.00    +0.024 C 
ATOM     19  C   UNL     1       0.002  -0.004   0.002  0.00  0.00    +0.078 C 
BRANCH  19  20
ATOM     20  C   UNL     1       0.707  -0.490  -1.238  0.00  0.00    -0.035 A 
ATOM     21  C   UNL     1       2.026  -0.142  -1.464  0.00  0.00    +0.005 A 
ATOM     22  C   UNL     1       2.673  -0.587  -2.602  0.00  0.00    +0.000 A 
ATOM     23  C   UNL     1       2.002  -1.382  -3.512  0.00  0.00    +0.000 A 
ATOM     24  C   UNL     1       0.684  -1.731  -3.285  0.00  0.00    +0.000 A 
ATOM     25  C   UNL     1       0.038  -1.289  -2.146  0.00  0.00    +0.005 A 
ENDBRANCH  19  20
ENDBRANCH  17  19
ENDBRANCH   1  17
TORSDOF 4
