REMARK  Name = ZINC10049949
REMARK  9 active torsions:
REMARK  status: ('A' for Active; 'I' for Inactive)
REMARK    1  A    between atoms: C_1  and  C_2
REMARK    2  A    between atoms: C_7  and  N_8
REMARK    3  A    between atoms: C_9  and  C_37
REMARK    4  A    between atoms: N_18  and  C_23
REMARK    5  A    between atoms: N_21  and  C_22
REMARK    6  A    between atoms: C_23  and  C_24
REMARK    7  A    between atoms: C_24  and  C_26
REMARK    8  A    between atoms: C_24  and  C_27
REMARK    9  A    between atoms: C_27  and  N_69
REMARK                            x       y       z     vdW  Elec       q    Type
REMARK                         _______ _______ _______ _____ _____    ______ ____
ROOT
ATOM      1  N   UNL     1      -4.828  -1.230   8.631  0.00  0.00    -0.282 N 
ATOM      2  C   UNL     1      -4.166  -2.441   8.543  0.00  0.00    +0.040 A 
ATOM      3  C   UNL     1      -3.768  -2.606   7.285  0.00  0.00    +0.116 A 
ATOM      4  N   UNL     1      -4.171  -1.503   6.552  0.00  0.00    -0.277 N 
ATOM      5  C   UNL     1      -4.824  -0.658   7.384  0.00  0.00    +0.223 A 
ATOM      6  N   UNL     1      -5.219   0.407   6.703  0.00  0.00    -0.193 NA
ATOM      7  C   UNL     1      -4.847   0.296   5.430  0.00  0.00    +0.170 A 
ATOM      8  C   UNL     1      -4.172  -0.916   5.295  0.00  0.00    +0.157 A 
ATOM      9  C   UNL     1      -3.673  -1.286   4.036  0.00  0.00    +0.283 A 
ATOM     10  O   UNL     1      -3.084  -2.344   3.893  0.00  0.00    -0.265 OA
ATOM     11  N   UNL     1      -3.847  -0.456   2.986  0.00  0.00    -0.259 N 
ATOM     12  C   UNL     1      -4.498   0.711   3.126  0.00  0.00    +0.333 A 
ATOM     13  O   UNL     1      -4.640   1.430   2.156  0.00  0.00    -0.246 OA
ATOM     14  N   UNL     1      -4.998   1.103   4.313  0.00  0.00    -0.279 N 
ATOM     15  C   UNL     1      -5.703   2.383   4.424  0.00  0.00    +0.155 C 
ATOM     16  C   UNL     1      -3.934  -3.406   9.677  0.00  0.00    +0.065 C 
ENDROOT
BRANCH   1  23
ATOM     17  C   UNL     1      -7.549  -1.842   9.199  0.00  0.00    +0.046 C 
ATOM     18  C   UNL     1      -6.726  -0.959  10.101  0.00  0.00    -0.027 A 
ATOM     19  C   UNL     1      -7.288  -0.424  11.244  0.00  0.00    +0.005 A 
ATOM     20  C   UNL     1      -6.535   0.392  12.069  0.00  0.00    +0.000 A 
ATOM     21  C   UNL     1      -5.217   0.670  11.756  0.00  0.00    +0.002 A 
ATOM     22  C   UNL     1      -4.649   0.135  10.617  0.00  0.00    +0.026 A 
ATOM     23  C   UNL     1      -5.402  -0.685   9.787  0.00  0.00    +0.053 A 
ENDBRANCH   1  23
BRANCH  11  24
ATOM     24  C   UNL     1      -3.322  -0.837   1.673  0.00  0.00    +0.131 C 
BRANCH  24  25
ATOM     25  C   UNL     1      -1.894  -0.310   1.522  0.00  0.00    -0.011 C 
ATOM     26  C   UNL     1      -0.984  -1.005   2.537  0.00  0.00    +0.007 C 
BRANCH  25  27
ATOM     27  C   UNL     1      -1.391  -0.598   0.106  0.00  0.00    -0.073 C 
BRANCH  27  37
ATOM     28  C   UNL     1       0.763   0.277   0.790  0.00  0.00    -0.074 C 
ATOM     29  C   UNL     1       2.008   0.961   0.225  0.00  0.00    +0.017 C 
ATOM     30  C   UNL     1       1.644   2.315  -0.329  0.00  0.00    -0.048 A 
ATOM     31  C   UNL     1       2.661   3.229  -0.562  0.00  0.00    +0.004 A 
ATOM     32  C   UNL     1       2.371   4.478  -1.073  0.00  0.00    +0.000 A 
ATOM     33  C   UNL     1       1.061   4.820  -1.353  0.00  0.00    +0.000 A 
ATOM     34  C   UNL     1       0.049   3.912  -1.119  0.00  0.00    +0.002 A 
ATOM     35  C   UNL     1       0.338   2.656  -0.605  0.00  0.00    -0.061 A 
ATOM     36  C   UNL     1      -0.802   1.701  -0.364  0.00  0.00    -0.043 C 
ATOM     37  N   UNL     1      -0.288   0.326  -0.245  0.00  0.00    +0.383 N 
ATOM     38  H   UNL     1       0.114   0.039  -1.145  0.00  0.00    -0.081 HD
ENDBRANCH  27  37
ENDBRANCH  25  27
ENDBRANCH  24  25
ENDBRANCH  11  24
TORSDOF 5
