REMARK  Name = ZINC27229052
REMARK  5 active torsions:
REMARK  status: ('A' for Active; 'I' for Inactive)
REMARK    1  A    between atoms: C_3  and  C_15
REMARK    2  A    between atoms: C_5  and  S_7
REMARK    3  A    between atoms: S_7  and  N_10
REMARK    4  A    between atoms: N_17  and  N_18
REMARK    5  A    between atoms: C_19  and  C_21
REMARK                            x       y       z     vdW  Elec       q    Type
REMARK                         _______ _______ _______ _____ _____    ______ ____
ROOT
ATOM      1  C   UNL     1       4.022  -5.805   5.046  0.00  0.00    +0.260 C 
ATOM      2  O   UNL     1       3.105  -6.423   4.540  0.00  0.00    -0.269 OA
ATOM      3  N   UNL     1       4.199  -4.502   4.751  0.00  0.00    -0.230 N 
ATOM      4  H   UNL     1       5.029  -3.943   5.208  0.00  0.00    +0.173 HD
ENDROOT
BRANCH   1   7
ATOM      5  C   UNL     1       6.851  -6.415   7.439  0.00  0.00    +0.003 A 
ATOM      6  C   UNL     1       5.999  -5.778   6.561  0.00  0.00    +0.013 A 
ATOM      7  C   UNL     1       4.942  -6.483   5.984  0.00  0.00    +0.040 A 
ATOM      8  C   UNL     1       4.761  -7.833   6.291  0.00  0.00    +0.041 A 
ATOM      9  C   UNL     1       5.624  -8.459   7.167  0.00  0.00    +0.106 A 
ATOM     10  C   UNL     1       6.666  -7.753   7.740  0.00  0.00    +0.028 A 
BRANCH   9  11
ATOM     11  S   UNL     1       5.397 -10.163   7.555  0.00  0.00    +0.061 S 
ATOM     12  O   UNL     1       6.009 -10.375   8.820  0.00  0.00    -0.153 OA
ATOM     13  O   UNL     1       4.029 -10.457   7.312  0.00  0.00    -0.153 OA
BRANCH  11  14
ATOM     14  N   UNL     1       6.272 -11.037   6.454  0.00  0.00    -0.177 NA
ATOM     15  C   UNL     1       5.773 -11.533   5.163  0.00  0.00    +0.109 C 
ATOM     16  C   UNL     1       6.927 -12.309   4.493  0.00  0.00    +0.018 C 
ATOM     17  C   UNL     1       7.828 -12.695   5.696  0.00  0.00    +0.018 C 
ATOM     18  C   UNL     1       7.679 -11.451   6.608  0.00  0.00    +0.109 C 
ENDBRANCH  11  14
ENDBRANCH   9  11
ENDBRANCH   1   7
BRANCH   3  19
ATOM     19  N   UNL     1       3.327  -3.860   3.862  0.00  0.00    -0.230 N 
ATOM     20  C   UNL     1       3.505  -2.557   3.568  0.00  0.00    +0.260 C 
ATOM     21  O   UNL     1       4.421  -1.938   4.073  0.00  0.00    -0.269 OA
ATOM     22  H   UNL     1       2.498  -4.419   3.405  0.00  0.00    +0.173 HD
BRANCH  20  23
ATOM     23  C   UNL     1       2.586  -1.880   2.632  0.00  0.00    +0.043 A 
ATOM     24  C   UNL     1       2.767  -0.529   2.325  0.00  0.00    +0.062 A 
ATOM     25  C   UNL     1       1.905   0.102   1.448  0.00  0.00    +0.164 A 
ATOM     26  C   UNL     1       0.857  -0.609   0.869  0.00  0.00    +0.180 A 
ATOM     27  C   UNL     1       0.676  -1.954   1.175  0.00  0.00    +0.087 A 
ATOM     28  C   UNL     1       1.532  -2.588   2.050  0.00  0.00    +0.037 A 
ATOM     29 CL   UNL     1      -0.634  -2.836   0.454  0.00  0.00    -0.080 Cl
ATOM     30  O   UNL     1       0.002  -0.004   0.002  0.00  0.00    -0.483 OA
ATOM     31  C   UNL     1      -0.017   1.427   0.010  0.00  0.00    +0.270 C 
ATOM     32  C   UNL     1       1.433   1.928  -0.001  0.00  0.00    +0.270 C 
ATOM     33  O   UNL     1       2.091   1.421   1.165  0.00  0.00    -0.485 OA
ENDBRANCH  20  23
ENDBRANCH   3  19
TORSDOF 5
