REMARK  Name = ZINC58914165
REMARK  16 active torsions:
REMARK  status: ('A' for Active; 'I' for Inactive)
REMARK    1  A    between atoms: C_1  and  C_2
REMARK    2  A    between atoms: C_5  and  C_36
REMARK    3  A    between atoms: C_6  and  N_8
REMARK    4  A    between atoms: C_9  and  C_35
REMARK    5  A    between atoms: C_11  and  C_14
REMARK    6  A    between atoms: C_12  and  C_13
REMARK    7  A    between atoms: N_15  and  N_16
REMARK    8  A    between atoms: C_17  and  C_19
REMARK    9  A    between atoms: C_19  and  C_20
REMARK   10  A    between atoms: N_22  and  C_23
REMARK   11  A    between atoms: C_23  and  C_24
REMARK   12  A    between atoms: C_24  and  C_25
REMARK   13  A    between atoms: C_28  and  O_33
REMARK   14  A    between atoms: C_29  and  O_31
REMARK   15  A    between atoms: O_31  and  C_32
REMARK   16  A    between atoms: O_33  and  C_34
REMARK                            x       y       z     vdW  Elec       q    Type
REMARK                         _______ _______ _______ _____ _____    ______ ____
ROOT
ATOM      1  N   UNL     1      -3.360  -3.710   3.990  0.00  0.00    -0.207 N 
ATOM      2  C   UNL     1      -4.699  -3.660   3.852  0.00  0.00    +0.241 C 
ATOM      3  O   UNL     1      -5.415  -4.166   4.692  0.00  0.00    -0.274 OA
ATOM      4  H   UNL     1      -2.788  -3.305   3.319  0.00  0.00    +0.177 HD
ENDROOT
BRANCH   1   6
ATOM      5  C   UNL     1      -1.506  -4.497   5.178  0.00  0.00    +0.140 C 
ATOM      6  N   UNL     1      -2.793  -4.344   5.103  0.00  0.00    -0.188 NA
BRANCH   5  10
ATOM      7  N   UNL     1       1.074  -3.676   2.741  0.00  0.00    -0.317 N 
ATOM      8  C   UNL     1       0.015  -3.816   1.891  0.00  0.00    +0.022 A 
ATOM      9  C   UNL     1      -1.080  -4.131   2.609  0.00  0.00    +0.032 A 
ATOM     10  C   UNL     1      -0.658  -4.188   4.012  0.00  0.00    +0.016 A 
ATOM     11  C   UNL     1       0.677  -3.905   4.022  0.00  0.00    +0.030 A 
ATOM     12  C   UNL     1       1.559  -3.850   5.243  0.00  0.00    +0.064 C 
ATOM     13  C   UNL     1       0.062  -3.647   0.395  0.00  0.00    +0.064 C 
BRANCH   7  19
ATOM     14  C   UNL     1       5.546  -5.122   1.292  0.00  0.00    +0.044 C 
ATOM     15  C   UNL     1       4.567  -4.031   1.643  0.00  0.00    -0.048 A 
ATOM     16  C   UNL     1       4.958  -2.706   1.580  0.00  0.00    +0.004 A 
ATOM     17  C   UNL     1       4.064  -1.702   1.902  0.00  0.00    +0.005 A 
ATOM     18  C   UNL     1       2.776  -2.021   2.287  0.00  0.00    -0.027 A 
ATOM     19  C   UNL     1       2.380  -3.350   2.350  0.00  0.00    +0.050 A 
ATOM     20  C   UNL     1       3.280  -4.355   2.022  0.00  0.00    +0.029 A 
ATOM     21  C   UNL     1       1.801  -0.926   2.638  0.00  0.00    +0.046 C 
ENDBRANCH   7  19
ENDBRANCH   5  10
ENDBRANCH   1   6
BRANCH   2  22
ATOM     22  C   UNL     1      -5.309  -2.978   2.655  0.00  0.00    +0.193 C 
BRANCH  22  23
ATOM     23  C   UNL     1      -6.811  -3.062   2.739  0.00  0.00    +0.222 C 
ATOM     24  O   UNL     1      -7.335  -3.622   3.679  0.00  0.00    -0.275 OA
ATOM     25  N   UNL     1      -7.572  -2.516   1.771  0.00  0.00    -0.315 N 
ATOM     26  H   UNL     1      -7.153  -2.068   1.019  0.00  0.00    +0.149 HD
BRANCH  25  27
ATOM     27  C   UNL     1      -9.033  -2.598   1.853  0.00  0.00    +0.109 C 
BRANCH  27  28
ATOM     28  C   UNL     1      -9.652  -1.905   0.637  0.00  0.00    +0.054 C 
BRANCH  28  29
ATOM     29  C   UNL     1     -11.154  -1.989   0.722  0.00  0.00    -0.042 A 
ATOM     30  C   UNL     1     -11.817  -3.066   0.163  0.00  0.00    +0.007 A 
ATOM     31  C   UNL     1     -13.195  -3.148   0.238  0.00  0.00    +0.049 A 
ATOM     32  C   UNL     1     -13.915  -2.149   0.875  0.00  0.00    +0.161 A 
ATOM     33  C   UNL     1     -13.248  -1.066   1.438  0.00  0.00    +0.162 A 
ATOM     34  C   UNL     1     -11.866  -0.992   1.363  0.00  0.00    +0.053 A 
BRANCH  33  35
ATOM     35  O   UNL     1     -13.950  -0.084   2.064  0.00  0.00    -0.491 OA
ATOM     36  C   UNL     1     -13.198   0.998   2.618  0.00  0.00    +0.277 C 
ENDBRANCH  33  35
BRANCH  32  37
ATOM     37  O   UNL     1     -15.270  -2.228   0.949  0.00  0.00    -0.491 OA
ATOM     38  C   UNL     1     -15.888  -3.369   0.348  0.00  0.00    +0.277 C 
ENDBRANCH  32  37
ENDBRANCH  28  29
ENDBRANCH  27  28
ENDBRANCH  25  27
ENDBRANCH  22  23
ENDBRANCH   2  22
TORSDOF 10
