REMARK  Name = ZINC40986289
REMARK  8 active torsions:
REMARK  status: ('A' for Active; 'I' for Inactive)
REMARK    1  A    between atoms: C_4  and  C_7
REMARK    2  A    between atoms: C_7  and  S_8
REMARK    3  A    between atoms: S_8  and  C_11
REMARK    4  A    between atoms: C_14  and  C_18
REMARK    5  A    between atoms: N_20  and  C_21
REMARK    6  A    between atoms: C_21  and  C_22
REMARK    7  A    between atoms: C_22  and  C_24
REMARK    8  A    between atoms: C_22  and  N_29
REMARK                            x       y       z     vdW  Elec       q    Type
REMARK                         _______ _______ _______ _____ _____    ______ ____
ROOT
ATOM      1  C   UNL     1       5.697  -1.929   1.308  0.00  0.00    +0.272 A 
ATOM      2  N   UNL     1       5.710  -3.241   1.169  0.00  0.00    -0.219 NA
ATOM      3  C   UNL     1       6.849  -3.911   1.139  0.00  0.00    +0.130 A 
ATOM      4  C   UNL     1       8.052  -3.207   1.258  0.00  0.00    +0.092 A 
ATOM      5  C   UNL     1       7.991  -1.814   1.403  0.00  0.00    +0.146 A 
ATOM      6  N   UNL     1       6.806  -1.225   1.418  0.00  0.00    -0.199 NA
ATOM      7 CL   UNL     1       9.445  -0.878   1.556  0.00  0.00    -0.061 Cl
ENDROOT
BRANCH   4   8
ATOM      8  C   UNL     1       9.351  -3.912   1.230  0.00  0.00    +0.248 C 
ATOM      9  O   UNL     1      10.386  -3.283   1.334  0.00  0.00    -0.270 OA
ATOM     10  N   UNL     1       9.388  -5.251   1.089  0.00  0.00    -0.312 N 
ATOM     11  H   UNL     1       8.562  -5.753   1.006  0.00  0.00    +0.149 HD
BRANCH  10  12
ATOM     12  C   UNL     1      10.675  -5.950   1.062  0.00  0.00    +0.097 C 
BRANCH  12  13
ATOM     13  C   UNL     1      10.435  -7.460   0.998  0.00  0.00    +0.016 C 
BRANCH  13  14
ATOM     14  N   UNL     1      11.719  -8.165   1.105  0.00  0.00    +0.387 N 
ATOM     15  C   UNL     1      12.345  -7.891   2.423  0.00  0.00    -0.078 C 
ATOM     16  C   UNL     1      13.321  -9.081   2.606  0.00  0.00    -0.020 C 
ATOM     17  C   UNL     1      12.537 -10.268   2.001  0.00  0.00    -0.020 C 
ATOM     18  C   UNL     1      11.503  -9.627   1.056  0.00  0.00    -0.078 C 
ATOM     19  H   UNL     1      12.336  -7.879   0.359  0.00  0.00    -0.081 HD
ENDBRANCH  13  14
BRANCH  13  20
ATOM     20  C   UNL     1       9.778  -7.809  -0.313  0.00  0.00    +0.093 A 
ATOM     21  C   UNL     1       8.464  -8.033  -0.499  0.00  0.00    +0.043 A 
ATOM     22  C   UNL     1       8.290  -8.325  -1.871  0.00  0.00    +0.041 A 
ATOM     23  C   UNL     1       9.506  -8.261  -2.442  0.00  0.00    +0.195 A 
ATOM     24  O   UNL     1      10.403  -7.942  -1.494  0.00  0.00    -0.469 OA
ENDBRANCH  13  20
ENDBRANCH  12  13
ENDBRANCH  10  12
ENDBRANCH   4   8
BRANCH   1  25
ATOM     25  S   UNL     1       4.148  -1.091   1.341  0.00  0.00    +0.036 S 
ATOM     26  O   UNL     1       4.395   0.099   2.077  0.00  0.00    -0.166 OA
ATOM     27  O   UNL     1       3.222  -2.058   1.817  0.00  0.00    -0.166 OA
BRANCH  25  28
ATOM     28  C   UNL     1       3.798  -0.690  -0.393  0.00  0.00    +0.210 C 
BRANCH  28  32
ATOM     29  C   UNL     1       0.066   1.371  -0.656  0.00  0.00    +0.000 A 
ATOM     30  C   UNL     1       1.239   2.083  -0.486  0.00  0.00    +0.000 A 
ATOM     31  C   UNL     1       2.446   1.416  -0.401  0.00  0.00    +0.005 A 
ATOM     32  C   UNL     1       2.481   0.037  -0.485  0.00  0.00    -0.026 A 
ATOM     33  C   UNL     1       1.309  -0.675  -0.654  0.00  0.00    +0.005 A 
ATOM     34  C   UNL     1       0.101  -0.008  -0.741  0.00  0.00    +0.000 A 
ENDBRANCH  28  32
ENDBRANCH  25  28
ENDBRANCH   1  25
TORSDOF 8
