REMARK  Name = ZINC40728519
REMARK  5 active torsions:
REMARK  status: ('A' for Active; 'I' for Inactive)
REMARK    1  A    between atoms: C_1  and  C_2
REMARK    2  A    between atoms: C_3  and  C_16
REMARK    3  A    between atoms: N_5  and  C_8
REMARK    4  A    between atoms: C_6  and  C_7
REMARK    5  A    between atoms: C_13  and  N_14
REMARK                            x       y       z     vdW  Elec       q    Type
REMARK                         _______ _______ _______ _____ _____    ______ ____
ROOT
ATOM      1  C   UNL     1       0.036  -3.248   1.457  0.00  0.00    +0.086 A 
ATOM      2  C   UNL     1      -0.735  -3.299   2.608  0.00  0.00    +0.031 A 
ATOM      3  C   UNL     1      -0.692  -4.417   3.420  0.00  0.00    +0.017 A 
ATOM      4  C   UNL     1       0.119  -5.488   3.088  0.00  0.00    +0.020 A 
ATOM      5  C   UNL     1       0.890  -5.446   1.941  0.00  0.00    +0.040 A 
ATOM      6  C   UNL     1       0.849  -4.330   1.118  0.00  0.00    +0.051 A 
ATOM      7 BR   UNL     1       0.172  -7.013   4.205  0.00  0.00    -0.050 Br
ENDROOT
BRANCH   1  12
ATOM      8  C   UNL     1       0.091   1.464  -0.077  0.00  0.00    +0.047 C 
ATOM      9  C   UNL     1       0.016  -0.041  -0.059  0.00  0.00    -0.007 A 
ATOM     10  C   UNL     1      -0.162  -0.870  -1.171  0.00  0.00    +0.064 A 
ATOM     11  N   UNL     1      -0.175  -2.112  -0.759  0.00  0.00    -0.171 NA
ATOM     12  N   UNL     1      -0.006  -2.114   0.631  0.00  0.00    -0.235 N 
ATOM     13  C   UNL     1       0.114  -0.830   1.037  0.00  0.00    +0.045 A 
ATOM     14  C   UNL     1       0.317  -0.361   2.455  0.00  0.00    +0.066 C 
ATOM     15  C   UNL     1      -0.313  -0.411  -2.599  0.00  0.00    +0.068 C 
ENDBRANCH   1  12
BRANCH   6  16
ATOM     16  N   UNL     1       1.623  -4.287  -0.045  0.00  0.00    -0.356 N 
ATOM     17  H   UNL     1       1.668  -3.471  -0.568  0.00  0.00    +0.142 HD
ATOM     18  H   UNL     1       2.117  -5.072  -0.328  0.00  0.00    +0.142 HD
ENDBRANCH   6  16
TORSDOF 2
