REMARK  Name = ZINC46882357
REMARK  7 active torsions:
REMARK  status: ('A' for Active; 'I' for Inactive)
REMARK    1  A    between atoms: C_1  and  C_2
REMARK    2  A    between atoms: C_8  and  C_12
REMARK    3  A    between atoms: C_12  and  S_13
REMARK    4  A    between atoms: S_13  and  C_14
REMARK    5  A    between atoms: C_17  and  C_25
REMARK    6  A    between atoms: N_18  and  C_19
REMARK    7  A    between atoms: C_19  and  C_20
REMARK                            x       y       z     vdW  Elec       q    Type
REMARK                         _______ _______ _______ _____ _____    ______ ____
ROOT
ATOM      1  C   UNL     1       1.403  -8.460  -1.543  0.00  0.00    +0.192 A 
ATOM      2  N   UNL     1       1.312  -9.198  -0.461  0.00  0.00    -0.122 NA
ATOM      3  N   UNL     1       1.727 -10.389  -0.710  0.00  0.00    -0.133 NA
ATOM      4  C   UNL     1       2.105 -10.481  -1.953  0.00  0.00    +0.138 A 
ATOM      5  N   UNL     1       1.906  -9.257  -2.530  0.00  0.00    -0.298 N 
ENDROOT
BRANCH   4   6
ATOM      6  C   UNL     1       2.653 -11.710  -2.632  0.00  0.00    +0.057 C 
ATOM      7  C   UNL     1       2.597 -13.028  -1.858  0.00  0.00    +0.012 C 
ATOM      8  C   UNL     1       3.936 -12.318  -2.063  0.00  0.00    +0.012 C 
ENDBRANCH   4   6
BRANCH   1   9
ATOM      9  S   UNL     1       0.953  -6.763  -1.694  0.00  0.00    -0.080 S 
BRANCH   9  10
ATOM     10  C   UNL     1       0.366  -6.315  -0.036  0.00  0.00    +0.133 C 
BRANCH  10  18
ATOM     11  C   UNL     1      -0.018   1.503   0.010  0.00  0.00    +0.075 C 
ATOM     12  C   UNL     1       0.002  -0.004   0.002  0.00  0.00    +0.099 A 
ATOM     13  N   UNL     1      -0.997  -0.834   0.002  0.00  0.00    -0.159 NA
ATOM     14  N   UNL     1      -0.801  -2.212  -0.007  0.00  0.00    -0.171 N 
ATOM     15  C   UNL     1      -1.762  -3.182  -0.009  0.00  0.00    +0.275 A 
ATOM     16  O   UNL     1      -2.943  -2.873  -0.002  0.00  0.00    -0.266 OA
ATOM     17  C   UNL     1      -1.391  -4.527  -0.018  0.00  0.00    +0.096 A 
ATOM     18  C   UNL     1      -0.055  -4.869  -0.026  0.00  0.00    +0.060 A 
ATOM     19  N   UNL     1       0.855  -3.898  -0.024  0.00  0.00    -0.225 NA
ATOM     20  C   UNL     1       0.499  -2.639  -0.015  0.00  0.00    +0.199 A 
ATOM     21  S   UNL     1       1.406  -1.108  -0.018  0.00  0.00    -0.033 S 
ENDBRANCH  10  18
ENDBRANCH   9  10
ENDBRANCH   1   9
BRANCH   5  22
ATOM     22  C   UNL     1       2.180  -8.879  -3.919  0.00  0.00    +0.199 C 
BRANCH  22  23
ATOM     23  C   UNL     1       3.593  -8.368  -4.031  0.00  0.00    +0.125 A 
ATOM     24  C   UNL     1       4.680  -9.113  -4.302  0.00  0.00    +0.046 A 
ATOM     25  C   UNL     1       5.787  -8.234  -4.312  0.00  0.00    +0.041 A 
ATOM     26  C   UNL     1       5.311  -7.004  -4.047  0.00  0.00    +0.195 A 
ATOM     27  O   UNL     1       3.981  -7.090  -3.884  0.00  0.00    -0.466 OA
ENDBRANCH  22  23
ENDBRANCH   5  22
TORSDOF 6
