REMARK  Name = ZINC12835283
REMARK  9 active torsions:
REMARK  status: ('A' for Active; 'I' for Inactive)
REMARK    1  A    between atoms: C_1  and  C_2
REMARK    2  A    between atoms: C_2  and  C_3
REMARK    3  A    between atoms: C_2  and  C_4
REMARK    4  A    between atoms: C_2  and  O_34
REMARK    5  A    between atoms: C_5  and  C_6
REMARK    6  A    between atoms: C_9  and  C_12
REMARK    7  A    between atoms: C_12  and  N_61
REMARK    8  A    between atoms: C_25  and  C_27
REMARK    9  A    between atoms: C_31  and  O_33
REMARK                            x       y       z     vdW  Elec       q    Type
REMARK                         _______ _______ _______ _____ _____    ______ ____
ROOT
ATOM      1  C   UNL     1      -1.347   7.275   0.795  0.00  0.00    -0.072 C 
ATOM      2  C   UNL     1      -1.988   7.594  -0.562  0.00  0.00    +0.019 C 
ATOM      3  C   UNL     1      -1.207   6.869  -1.629  0.00  0.00    -0.022 A 
ATOM      4  C   UNL     1      -1.202   7.073  -3.060  0.00  0.00    +0.003 A 
ATOM      5  C   UNL     1      -1.885   7.962  -3.897  0.00  0.00    +0.010 A 
ATOM      6  C   UNL     1      -1.628   7.870  -5.242  0.00  0.00    +0.001 A 
ATOM      7  C   UNL     1      -0.735   6.946  -5.760  0.00  0.00    +0.002 A 
ATOM      8  C   UNL     1      -0.045   6.056  -4.956  0.00  0.00    +0.026 A 
ATOM      9  C   UNL     1      -0.287   6.124  -3.586  0.00  0.00    +0.047 A 
ATOM     10  N   UNL     1       0.211   5.411  -2.533  0.00  0.00    -0.359 N 
ATOM     11  H   UNL     1       0.860   4.694  -2.602  0.00  0.00    +0.166 HD
ATOM     12  C   UNL     1      -0.344   5.861  -1.366  0.00  0.00    +0.011 A 
ATOM     13  C   UNL     1      -0.076   5.351   0.030  0.00  0.00    +0.011 C 
ATOM     14  N   UNL     1      -1.180   5.808   0.907  0.00  0.00    +0.391 N 
ATOM     15  H   UNL     1      -2.050   5.351   0.612  0.00  0.00    -0.080 HD
ENDROOT
BRANCH  13  16
ATOM     16  C   UNL     1      -0.051   3.844   0.022  0.00  0.00    -0.052 A 
ATOM     17  C   UNL     1      -1.237   3.133   0.030  0.00  0.00    +0.002 A 
ATOM     18  C   UNL     1      -1.218   1.751   0.017  0.00  0.00    +0.004 A 
ATOM     19  C   UNL     1      -0.013   1.076   0.008  0.00  0.00    +0.045 A 
ATOM     20  C   UNL     1       1.179   1.786   0.000  0.00  0.00    +0.117 A 
ATOM     21  C   UNL     1       1.157   3.174   0.008  0.00  0.00    +0.047 A 
BRANCH  20  22
ATOM     22  O   UNL     1       2.366   1.125  -0.014  0.00  0.00    -0.507 OA
ATOM     23  H   UNL     1       2.701   0.937  -0.901  0.00  0.00    +0.292 HD
ENDBRANCH  20  22
ENDBRANCH  13  16
BRANCH  14  24
ATOM     24  C   UNL     1      -0.895   5.439   2.309  0.00  0.00    -0.042 C 
BRANCH  24  28
ATOM     25  C   UNL     1      -3.679   7.430   4.873  0.00  0.00    +0.025 A 
ATOM     26  C   UNL     1      -3.989   6.178   4.340  0.00  0.00    +0.017 A 
ATOM     27  C   UNL     1      -3.087   5.541   3.513  0.00  0.00    +0.003 A 
ATOM     28  C   UNL     1      -1.877   6.141   3.213  0.00  0.00    -0.064 A 
ATOM     29  C   UNL     1      -1.561   7.379   3.743  0.00  0.00    +0.003 A 
ATOM     30  C   UNL     1      -2.457   8.029   4.566  0.00  0.00    +0.017 A 
BRANCH  25  32
ATOM     31  C   UNL     1      -5.376   8.643   6.434  0.00  0.00    -0.063 C 
ATOM     32  C   UNL     1      -4.612   8.097   5.731  0.00  0.00    -0.063 C 
BRANCH  31  34
ATOM     33  C   UNL     1      -5.751  10.672   7.758  0.00  0.00    +0.055 C 
ATOM     34  C   UNL     1      -6.335   9.329   7.317  0.00  0.00    +0.121 C 
ATOM     35  C   UNL     1      -7.644   9.565   6.561  0.00  0.00    +0.055 C 
BRANCH  34  36
ATOM     36  O   UNL     1      -6.588   8.519   8.466  0.00  0.00    -0.377 OA
ATOM     37  H   UNL     1      -7.212   8.909   9.093  0.00  0.00    +0.211 HD
ENDBRANCH  34  36
ENDBRANCH  31  34
ENDBRANCH  25  32
ENDBRANCH  24  28
ENDBRANCH  14  24
TORSDOF 7
