REMARK  Name = ZINC08690182
REMARK  6 active torsions:
REMARK  status: ('A' for Active; 'I' for Inactive)
REMARK    1  A    between atoms: C_1  and  C_2
REMARK    2  A    between atoms: C_5  and  C_8
REMARK    3  A    between atoms: C_8  and  N_9
REMARK    4  A    between atoms: N_9  and  C_10
REMARK    5  A    between atoms: C_18  and  C_20
REMARK    6  A    between atoms: C_27  and  C_31
REMARK                            x       y       z     vdW  Elec       q    Type
REMARK                         _______ _______ _______ _____ _____    ______ ____
ROOT
ATOM      1  N   UNL     1       1.505  -4.753  -0.193  0.00  0.00    -0.286 N 
ATOM      2  C   UNL     1       2.111  -4.871  -1.391  0.00  0.00    +0.283 C 
ATOM      3  O   UNL     1       3.290  -5.157  -1.450  0.00  0.00    -0.267 OA
ENDROOT
BRANCH   2   4
ATOM      4  C   UNL     1       1.338  -4.652  -2.637  0.00  0.00    +0.194 A 
ATOM      5  C   UNL     1       1.950  -4.865  -3.827  0.00  0.00    +0.103 A 
ATOM      6  C   UNL     1       1.180  -4.629  -5.059  0.00  0.00    +0.193 A 
ATOM      7  O   UNL     1       1.573  -5.006  -6.149  0.00  0.00    -0.287 OA
ATOM      8  C   UNL     1      -0.098  -3.907  -4.895  0.00  0.00    +0.065 A 
ATOM      9  C   UNL     1      -0.793  -3.398  -5.991  0.00  0.00    +0.035 A 
ATOM     10  C   UNL     1      -1.980  -2.726  -5.789  0.00  0.00    +0.045 A 
ATOM     11  C   UNL     1      -2.478  -2.557  -4.503  0.00  0.00    -0.029 A 
ATOM     12  C   UNL     1      -1.800  -3.059  -3.413  0.00  0.00    +0.051 A 
ATOM     13  C   UNL     1      -0.603  -3.744  -3.593  0.00  0.00    +0.140 A 
ATOM     14  O   UNL     1       0.061  -4.257  -2.538  0.00  0.00    -0.450 OA
ATOM     15  C   UNL     1      -3.774  -1.817  -4.298  0.00  0.00    +0.045 C 
ATOM     16 CL   UNL     1      -2.854  -2.087  -7.146  0.00  0.00    -0.083 Cl
ENDBRANCH   2   4
BRANCH   1  17
ATOM     17  C   UNL     1       2.233  -5.094   1.032  0.00  0.00    +0.099 C 
ATOM     18  C   UNL     1       2.742  -6.542   0.938  0.00  0.00    +0.047 C 
ATOM     19  C   UNL     1       3.762  -6.772   2.089  0.00  0.00    +0.168 C 
ATOM     20  S   UNL     1       4.679  -5.174   2.053  0.00  0.00    -0.029 S 
ATOM     21  O   UNL     1       5.814  -5.311   1.209  0.00  0.00    -0.174 OA
ATOM     22  O   UNL     1       4.849  -4.708   3.384  0.00  0.00    -0.174 OA
ATOM     23  C   UNL     1       3.429  -4.126   1.205  0.00  0.00    +0.188 C 
ENDBRANCH   1  17
BRANCH   1  24
ATOM     24  C   UNL     1       0.119  -4.285  -0.115  0.00  0.00    +0.143 C 
BRANCH  24  29
ATOM     25  C   UNL     1       0.051   1.478   0.302  0.00  0.00    +0.044 C 
ATOM     26  C   UNL     1       0.069  -0.025   0.193  0.00  0.00    -0.050 A 
ATOM     27  C   UNL     1       0.203  -0.627  -1.044  0.00  0.00    +0.003 A 
ATOM     28  C   UNL     1       0.220  -2.005  -1.144  0.00  0.00    +0.005 A 
ATOM     29  C   UNL     1       0.102  -2.782  -0.006  0.00  0.00    -0.030 A 
ATOM     30  C   UNL     1      -0.031  -2.180   1.231  0.00  0.00    +0.005 A 
ATOM     31  C   UNL     1      -0.043  -0.801   1.331  0.00  0.00    +0.003 A 
ENDBRANCH  24  29
ENDBRANCH   1  24
TORSDOF 4
