REMARK  Name = ZINC20688446
REMARK  4 active torsions:
REMARK  status: ('A' for Active; 'I' for Inactive)
REMARK    1  A    between atoms: C_8  and  C_10
REMARK    2  A    between atoms: N_13  and  C_16
REMARK    3  A    between atoms: C_16  and  C_17
REMARK    4  A    between atoms: C_23  and  C_28
REMARK                            x       y       z     vdW  Elec       q    Type
REMARK                         _______ _______ _______ _____ _____    ______ ____
ROOT
ATOM      1  C   UNL     1      -0.401   3.224   3.659  0.00  0.00    +0.094 A 
ATOM      2  N   UNL     1      -0.725   3.606   4.921  0.00  0.00    -0.312 N 
ATOM      3  H   UNL     1      -1.658   4.158   5.105  0.00  0.00    +0.170 HD
ATOM      4  C   UNL     1       0.076   3.324   5.965  0.00  0.00    +0.260 A 
ATOM      5  O   UNL     1      -0.229   3.674   7.091  0.00  0.00    -0.267 OA
ATOM      6  C   UNL     1       1.292   2.605   5.731  0.00  0.00    +0.080 A 
ATOM      7  C   UNL     1       2.313   2.185   6.684  0.00  0.00    +0.004 A 
ATOM      8  C   UNL     1       3.392   1.507   6.225  0.00  0.00    +0.056 A 
ATOM      9  S   UNL     1       3.095   1.395   4.471  0.00  0.00    -0.076 S 
ATOM     10  C   UNL     1       1.543   2.252   4.395  0.00  0.00    +0.116 A 
ATOM     11  N   UNL     1       0.699   2.563   3.415  0.00  0.00    -0.229 NA
ENDROOT
BRANCH   7  12
ATOM     12  C   UNL     1       2.172   2.494   8.127  0.00  0.00    -0.016 A 
ATOM     13  C   UNL     1       1.885   3.795   8.539  0.00  0.00    +0.011 A 
ATOM     14  C   UNL     1       1.749   4.077   9.882  0.00  0.00    +0.039 A 
ATOM     15  C   UNL     1       1.910   3.072  10.823  0.00  0.00    +0.123 A 
ATOM     16  C   UNL     1       2.201   1.779  10.419  0.00  0.00    +0.039 A 
ATOM     17  C   UNL     1       2.333   1.486   9.077  0.00  0.00    +0.011 A 
ATOM     18  F   UNL     1       1.782   3.354  12.138  0.00  0.00    -0.205 F 
ENDBRANCH   7  12
BRANCH   1  19
ATOM     19  C   UNL     1      -1.329   3.562   2.521  0.00  0.00    -0.003 C 
BRANCH  19  23
ATOM     20  C   UNL     1      -0.755   1.594  -1.231  0.00  0.00    +0.041 C 
ATOM     21  C   UNL     1      -0.013   1.086   0.008  0.00  0.00    -0.009 C 
ATOM     22  C   UNL     1      -0.731   1.580   1.266  0.00  0.00    -0.078 C 
ATOM     23  N   UNL     1      -0.770   3.048   1.264  0.00  0.00    +0.384 N 
ATOM     24  C   UNL     1      -1.519   3.558   0.108  0.00  0.00    -0.078 C 
ATOM     25  C   UNL     1      -0.823   3.123  -1.184  0.00  0.00    -0.009 C 
ATOM     26  H   UNL     1       0.265   3.411   1.179  0.00  0.00    -0.081 HD
BRANCH  20  34
ATOM     27  C   UNL     1       0.907  -0.907  -6.623  0.00  0.00    +0.002 A 
ATOM     28  C   UNL     1       2.182  -0.360  -6.564  0.00  0.00    +0.001 A 
ATOM     29  C   UNL     1       2.536   0.419  -5.479  0.00  0.00    +0.017 A 
ATOM     30  C   UNL     1       1.619   0.638  -4.479  0.00  0.00    +0.039 A 
ATOM     31  C   UNL     1       0.315   0.095  -4.513  0.00  0.00    +0.078 A 
ATOM     32  C   UNL     1      -0.007  -0.696  -5.638  0.00  0.00    +0.029 A 
ATOM     33  N   UNL     1      -0.451   0.412  -3.449  0.00  0.00    -0.244 NA
ATOM     34  C   UNL     1      -0.019   1.159  -2.472  0.00  0.00    +0.082 A 
ATOM     35  S   UNL     1       1.607   1.540  -2.949  0.00  0.00    -0.072 S 
ENDBRANCH  20  34
ENDBRANCH  19  23
ENDBRANCH   1  19
TORSDOF 4
