REMARK  Name = ZINC33271659
REMARK  6 active torsions:
REMARK  status: ('A' for Active; 'I' for Inactive)
REMARK    1  A    between atoms: C_1  and  C_2
REMARK    2  A    between atoms: C_12  and  O_16
REMARK    3  A    between atoms: O_16  and  C_17
REMARK    4  A    between atoms: C_22  and  C_24
REMARK    5  A    between atoms: C_28  and  O_30
REMARK    6  A    between atoms: O_30  and  C_31
REMARK                            x       y       z     vdW  Elec       q    Type
REMARK                         _______ _______ _______ _____ _____    ______ ____
ROOT
ATOM      1  C   UNL     1      -4.584  -1.252   0.763  0.00  0.00    +0.068 C 
ATOM      2  C   UNL     1      -3.082  -1.258   0.634  0.00  0.00    +0.066 A 
ATOM      3  C   UNL     1      -2.292  -2.371   0.383  0.00  0.00    +0.023 A 
ATOM      4  C   UNL     1      -0.987  -1.960   0.329  0.00  0.00    +0.135 A 
ATOM      5  N   UNL     1      -0.969  -0.629   0.558  0.00  0.00    -0.193 N 
ATOM      6  N   UNL     1      -2.298  -0.211   0.739  0.00  0.00    -0.168 NA
ATOM      7  C   UNL     1       0.160   0.181   0.600  0.00  0.00    +0.196 A 
ATOM      8  N   UNL     1       1.418  -0.151   0.439  0.00  0.00    -0.221 NA
ATOM      9  C   UNL     1       2.422   0.749   0.506  0.00  0.00    +0.081 A 
ATOM     10  C   UNL     1       3.810   0.523   0.351  0.00  0.00    +0.032 A 
ATOM     11  C   UNL     1       4.700   1.546   0.449  0.00  0.00    +0.048 A 
ATOM     12  C   UNL     1       4.286   2.851   0.703  0.00  0.00    +0.121 A 
ATOM     13  C   UNL     1       2.934   3.113   0.861  0.00  0.00    +0.063 A 
ATOM     14  C   UNL     1       2.031   2.083   0.764  0.00  0.00    +0.044 A 
ATOM     15  S   UNL     1       0.265   1.942   0.888  0.00  0.00    -0.048 S 
ATOM     16  N   UNL     1       0.057  -2.856   0.104  0.00  0.00    -0.270 N 
ATOM     17  C   UNL     1      -0.255  -4.104  -0.305  0.00  0.00    +0.219 C 
ATOM     18  O   UNL     1       0.618  -4.945  -0.345  0.00  0.00    -0.275 OA
ATOM     19  C   UNL     1      -1.651  -4.484  -0.711  0.00  0.00    +0.109 C 
ATOM     20  C   UNL     1      -2.693  -3.812   0.190  0.00  0.00    +0.063 C 
ATOM     21  H   UNL     1       1.098  -2.537   0.259  0.00  0.00    +0.156 HD
ENDROOT
BRANCH  20  22
ATOM     22  C   UNL     1      -2.736  -4.510   1.525  0.00  0.00    -0.036 A 
ATOM     23  C   UNL     1      -1.596  -4.585   2.303  0.00  0.00    +0.004 A 
ATOM     24  C   UNL     1      -1.633  -5.225   3.528  0.00  0.00    +0.004 A 
ATOM     25  C   UNL     1      -2.810  -5.791   3.978  0.00  0.00    +0.045 A 
ATOM     26  C   UNL     1      -3.955  -5.717   3.199  0.00  0.00    +0.121 A 
ATOM     27  C   UNL     1      -3.917  -5.070   1.972  0.00  0.00    +0.050 A 
BRANCH  26  28
ATOM     28  O   UNL     1      -5.115  -6.273   3.640  0.00  0.00    -0.489 OA
BRANCH  28  29
ATOM     29  C   UNL     1      -5.115  -6.809   4.964  0.00  0.00    +0.173 C 
ATOM     30  C   UNL     1      -4.617  -8.268   4.944  0.00  0.00    +0.044 C 
ATOM     31  C   UNL     1      -5.488  -8.981   6.010  0.00  0.00    +0.004 C 
ATOM     32  C   UNL     1      -6.875  -8.319   5.817  0.00  0.00    +0.004 C 
ATOM     33  C   UNL     1      -6.550  -6.840   5.520  0.00  0.00    +0.044 C 
ENDBRANCH  28  29
ENDBRANCH  26  28
ENDBRANCH  20  22
BRANCH  12  34
ATOM     34  O   UNL     1       5.198   3.856   0.795  0.00  0.00    -0.495 OA
ATOM     35  C   UNL     1       6.572   3.504   0.620  0.00  0.00    +0.277 C 
ENDBRANCH  12  34
TORSDOF 4
