REMARK  Name = ZINC39520694
REMARK  4 active torsions:
REMARK  status: ('A' for Active; 'I' for Inactive)
REMARK    1  A    between atoms: C_4  and  C_7
REMARK    2  A    between atoms: C_7  and  N_8
REMARK    3  A    between atoms: C_9  and  C_22
REMARK    4  A    between atoms: C_27  and  O_28
REMARK                            x       y       z     vdW  Elec       q    Type
REMARK                         _______ _______ _______ _____ _____    ______ ____
ROOT
ATOM      1  N   UNL     1       3.997  -1.382   0.877  0.00  0.00    +0.391 N 
ATOM      2  C   UNL     1       3.359  -1.800   2.131  0.00  0.00    -0.033 C 
ATOM      3  C   UNL     1       3.296  -3.327   2.192  0.00  0.00    -0.011 C 
ATOM      4  C   UNL     1       4.718  -3.894   2.127  0.00  0.00    -0.003 C 
ATOM      5  C   UNL     1       5.399  -3.391   0.851  0.00  0.00    -0.012 C 
ATOM      6  C   UNL     1       5.384  -1.861   0.839  0.00  0.00    -0.063 C 
ATOM      7  C   UNL     1       6.064  -1.357  -0.435  0.00  0.00    -0.012 C 
ATOM      8  C   UNL     1       6.054   0.173  -0.448  0.00  0.00    +0.000 C 
ATOM      9  C   UNL     1       6.810   0.698   0.774  0.00  0.00    +0.019 C 
ATOM     10  C   UNL     1       6.130   0.194   2.049  0.00  0.00    +0.079 C 
ATOM     11  C   UNL     1       6.140  -1.335   2.062  0.00  0.00    +0.007 C 
ATOM     12 CL   UNL     1       7.020   0.813   3.490  0.00  0.00    -0.122 Cl
ATOM     13  H   UNL     1       3.988  -0.375   0.817  0.00  0.00    -0.080 HD
ENDROOT
BRANCH   2  14
ATOM     14  C   UNL     1       1.962  -1.238   2.195  0.00  0.00    -0.019 A 
ATOM     15  C   UNL     1       0.873  -2.075   2.045  0.00  0.00    +0.005 A 
ATOM     16  C   UNL     1      -0.409  -1.560   2.103  0.00  0.00    +0.000 A 
ATOM     17  C   UNL     1      -0.604  -0.207   2.312  0.00  0.00    +0.004 A 
ATOM     18  C   UNL     1       0.481   0.634   2.462  0.00  0.00    +0.045 A 
ATOM     19  C   UNL     1       1.769   0.119   2.410  0.00  0.00    +0.118 A 
BRANCH  19  20
ATOM     20  O   UNL     1       2.838   0.943   2.564  0.00  0.00    -0.507 OA
ATOM     21  H   UNL     1       3.199   1.278   1.732  0.00  0.00    +0.292 HD
ENDBRANCH  19  20
ENDBRANCH   2  14
BRANCH   1  22
ATOM     22  C   UNL     1       3.255  -1.945  -0.259  0.00  0.00    -0.041 C 
BRANCH  22  26
ATOM     23  C   UNL     1      -0.330   0.295  -0.872  0.00  0.00    +0.000 A 
ATOM     24  C   UNL     1       0.879   0.951  -0.732  0.00  0.00    +0.000 A 
ATOM     25  C   UNL     1       2.039   0.225  -0.533  0.00  0.00    +0.002 A 
ATOM     26  C   UNL     1       1.990  -1.155  -0.474  0.00  0.00    -0.064 A 
ATOM     27  C   UNL     1       0.781  -1.810  -0.613  0.00  0.00    +0.002 A 
ATOM     28  C   UNL     1      -0.379  -1.085  -0.813  0.00  0.00    +0.000 A 
ENDBRANCH  22  26
ENDBRANCH   1  22
TORSDOF 4
