REMARK  Name = ZINC42613368
REMARK  6 active torsions:
REMARK  status: ('A' for Active; 'I' for Inactive)
REMARK    1  A    between atoms: C_1  and  C_2
REMARK    2  A    between atoms: C_8  and  N_10
REMARK    3  A    between atoms: N_10  and  C_11
REMARK    4  A    between atoms: N_10  and  C_12
REMARK    5  A    between atoms: C_15  and  N_21
REMARK    6  A    between atoms: C_17  and  C_18
REMARK                            x       y       z     vdW  Elec       q    Type
REMARK                         _______ _______ _______ _____ _____    ______ ____
ROOT
ATOM      1  C   UNL     1       2.384   0.720   2.679  0.00  0.00    +0.042 A 
ATOM      2  C   UNL     1       2.853  -0.021   3.756  0.00  0.00    +0.025 A 
ATOM      3  C   UNL     1       3.488   0.609   4.806  0.00  0.00    +0.024 A 
ATOM      4  C   UNL     1       3.665   1.990   4.795  0.00  0.00    +0.025 A 
ATOM      5  C   UNL     1       3.204   2.742   3.729  0.00  0.00    +0.037 A 
ATOM      6  C   UNL     1       2.564   2.111   2.658  0.00  0.00    +0.059 A 
ENDROOT
BRANCH   6   7
ATOM      7  C   UNL     1       2.076   2.905   1.515  0.00  0.00    +0.243 C 
ATOM      8  O   UNL     1       1.627   2.344   0.533  0.00  0.00    -0.270 OA
ATOM      9  N   UNL     1       2.127   4.251   1.558  0.00  0.00    -0.325 N 
ATOM     10  H   UNL     1       2.486   4.697   2.341  0.00  0.00    +0.145 HD
ATOM     11  H   UNL     1       1.806   4.773   0.806  0.00  0.00    +0.145 HD
ENDBRANCH   6   7
BRANCH   4  12
ATOM     12  N   UNL     1       4.311   2.620   5.865  0.00  0.00    -0.358 N 
ATOM     13  H   UNL     1       4.634   2.094   6.614  0.00  0.00    +0.142 HD
ATOM     14  H   UNL     1       4.434   3.582   5.859  0.00  0.00    +0.142 HD
ENDBRANCH   4  12
BRANCH   1  15
ATOM     15  N   UNL     1       1.743   0.084   1.620  0.00  0.00    -0.329 N 
ATOM     16  C   UNL     1       2.507  -0.321   0.438  0.00  0.00    +0.129 C 
BRANCH  15  23
ATOM     17  C   UNL     1       0.722  -2.028   3.320  0.00  0.00    +0.009 C 
ATOM     18  C   UNL     1      -0.048  -0.729   3.074  0.00  0.00    +0.006 C 
ATOM     19  C   UNL     1       0.332   0.300   4.140  0.00  0.00    +0.005 C 
ATOM     20  C   UNL     1      -0.439   1.598   3.894  0.00  0.00    +0.000 C 
ATOM     21  C   UNL     1      -0.086   2.146   2.509  0.00  0.00    +0.002 C 
ATOM     22  C   UNL     1      -0.466   1.117   1.442  0.00  0.00    +0.023 C 
ATOM     23  C   UNL     1       0.304  -0.182   1.689  0.00  0.00    +0.076 C 
ENDBRANCH  15  23
ENDBRANCH   1  15
TORSDOF 4
