REMARK  Name = ZINC09307070
REMARK  12 active torsions:
REMARK  status: ('A' for Active; 'I' for Inactive)
REMARK    1  A    between atoms: C_1  and  C_2
REMARK    2  A    between atoms: C_2  and  N_3
REMARK    3  A    between atoms: N_3  and  C_4
REMARK    4  A    between atoms: N_3  and  C_6
REMARK    5  A    between atoms: C_4  and  C_5
REMARK    6  A    between atoms: C_9  and  C_12
REMARK    7  A    between atoms: N_13  and  N_14
REMARK    8  A    between atoms: C_15  and  C_17
REMARK    9  A    between atoms: C_18  and  C_28
REMARK   10  A    between atoms: C_28  and  N_29
REMARK   11  A    between atoms: N_29  and  C_30
REMARK   12  A    between atoms: N_29  and  C_31
REMARK                            x       y       z     vdW  Elec       q    Type
REMARK                         _______ _______ _______ _____ _____    ______ ____
ROOT
ATOM      1  C   UNL     1       3.084  -3.566  -0.047  0.00  0.00    +0.170 A 
ATOM      2  C   UNL     1       3.121  -2.200  -0.045  0.00  0.00    +0.063 A 
ATOM      3  N   UNL     1       1.838  -1.775  -0.025  0.00  0.00    -0.194 N 
ATOM      4  N   UNL     1       1.032  -2.922  -0.025  0.00  0.00    -0.058 NA
ATOM      5  N   UNL     1       1.798  -3.957  -0.038  0.00  0.00    -0.124 NA
ATOM      6  C   UNL     1       1.399  -0.446  -0.014  0.00  0.00    +0.240 A 
ATOM      7  C   UNL     1       0.002  -0.004   0.002  0.00  0.00    +0.206 A 
ATOM      8  N   UNL     1      -0.016   1.300   0.009  0.00  0.00    -0.032 NA
ATOM      9  O   UNL     1       1.327   1.753  -0.001  0.00  0.00    -0.239 OA
ATOM     10  N   UNL     1       2.164   0.609  -0.015  0.00  0.00    -0.027 NA
ATOM     11  N   UNL     1      -1.114  -0.833   0.009  0.00  0.00    -0.337 N 
ATOM     12  H   UNL     1      -2.123  -0.397   0.021  0.00  0.00    +0.144 HD
ATOM     13  H   UNL     1      -0.987  -1.926   0.002  0.00  0.00    +0.144 HD
ENDROOT
BRANCH   1  15
ATOM     14  N   UNL     1       4.085  -5.797  -0.070  0.00  0.00    -0.202 N 
ATOM     15  C   UNL     1       4.257  -4.460  -0.063  0.00  0.00    +0.285 C 
ATOM     16  O   UNL     1       5.379  -3.991  -0.071  0.00  0.00    -0.267 OA
ATOM     17  H   UNL     1       3.070  -6.221  -0.063  0.00  0.00    +0.178 HD
BRANCH  14  19
ATOM     18  C   UNL     1       5.033  -7.934  -0.091  0.00  0.00    +0.138 C 
ATOM     19  N   UNL     1       5.199  -6.646  -0.085  0.00  0.00    -0.187 NA
BRANCH  18  23
ATOM     20  C   UNL     1       8.409 -10.508  -0.139  0.00  0.00    +0.030 A 
ATOM     21  C   UNL     1       7.126 -11.046  -0.130  0.00  0.00    +0.024 A 
ATOM     22  C   UNL     1       6.029 -10.214  -0.114  0.00  0.00    +0.011 A 
ATOM     23  C   UNL     1       6.205  -8.827  -0.107  0.00  0.00    -0.005 A 
ATOM     24  C   UNL     1       7.495  -8.290  -0.122  0.00  0.00    +0.011 A 
ATOM     25  C   UNL     1       8.588  -9.129  -0.133  0.00  0.00    +0.024 A 
BRANCH  20  26
ATOM     26  N   UNL     1       9.518 -11.354  -0.155  0.00  0.00    -0.330 N 
BRANCH  26  28
ATOM     27  C   UNL     1      11.355 -10.601   1.274  0.00  0.00    +0.024 C 
ATOM     28  C   UNL     1      10.870 -10.789  -0.165  0.00  0.00    +0.102 C 
ENDBRANCH  26  28
BRANCH  26  29
ATOM     29  C   UNL     1       9.331 -12.806  -0.163  0.00  0.00    +0.102 C 
ATOM     30  C   UNL     1       9.252 -13.303  -1.607  0.00  0.00    +0.024 C 
ENDBRANCH  26  29
ENDBRANCH  20  26
ENDBRANCH  18  23
ENDBRANCH  14  19
ENDBRANCH   1  15
BRANCH   2  31
ATOM     31  C   UNL     1       4.355  -1.335  -0.060  0.00  0.00    -0.020 C 
BRANCH  31  32
ATOM     32  N   UNL     1       4.776  -1.058   1.320  0.00  0.00    +0.383 N 
ATOM     33  C   UNL     1       5.219  -2.287   1.991  0.00  0.00    -0.095 C 
ATOM     34  H   UNL     1       3.904  -0.670   1.868  0.00  0.00    -0.081 HD
BRANCH  32  35
ATOM     35  C   UNL     1       5.825  -0.031   1.355  0.00  0.00    -0.068 C 
ATOM     36  C   UNL     1       7.083  -0.565   0.667  0.00  0.00    -0.015 C 
ATOM     37  C   UNL     1       8.177   0.504   0.703  0.00  0.00    -0.002 C 
ATOM     38  C   UNL     1       8.500   0.855   2.157  0.00  0.00    -0.000 C 
ATOM     39  C   UNL     1       7.242   1.388   2.845  0.00  0.00    -0.002 C 
ATOM     40  C   UNL     1       6.149   0.319   2.809  0.00  0.00    -0.015 C 
ENDBRANCH  32  35
ENDBRANCH  31  32
ENDBRANCH   2  31
TORSDOF 9
