REMARK  Name = ZINC28810622
REMARK  8 active torsions:
REMARK  status: ('A' for Active; 'I' for Inactive)
REMARK    1  A    between atoms: C_3  and  N_14
REMARK    2  A    between atoms: C_4  and  C_10
REMARK    3  A    between atoms: C_6  and  N_7
REMARK    4  A    between atoms: C_15  and  C_17
REMARK    5  A    between atoms: C_17  and  O_18
REMARK    6  A    between atoms: O_18  and  C_19
REMARK    7  A    between atoms: C_19  and  C_21
REMARK    8  A    between atoms: C_26  and  O_27
REMARK                            x       y       z     vdW  Elec       q    Type
REMARK                         _______ _______ _______ _____ _____    ______ ____
ROOT
ATOM      1  N   UNL     1       4.490   8.316   0.005  0.00  0.00    -0.282 N 
ATOM      2  C   UNL     1       3.439   7.472   0.007  0.00  0.00    +0.255 C 
ATOM      3  O   UNL     1       2.308   7.912   0.026  0.00  0.00    -0.272 OA
ATOM      4  H   UNL     1       5.513   7.919   0.080  0.00  0.00    +0.155 HD
ENDROOT
BRANCH   1   7
ATOM      5  C   UNL     1       2.918  11.546  -0.777  0.00  0.00    +0.034 A 
ATOM      6  C   UNL     1       3.123  10.184  -0.684  0.00  0.00    +0.026 A 
ATOM      7  C   UNL     1       4.280   9.696  -0.091  0.00  0.00    +0.045 A 
ATOM      8  C   UNL     1       5.225  10.581   0.411  0.00  0.00    +0.078 A 
ATOM      9  C   UNL     1       5.017  11.942   0.310  0.00  0.00    +0.047 A 
ATOM     10  C   UNL     1       3.864  12.425  -0.282  0.00  0.00    +0.127 A 
BRANCH   8  11
ATOM     11  C   UNL     1       6.479  10.056   1.061  0.00  0.00    +0.419 C 
ATOM     12  F   UNL     1       7.270  11.130   1.484  0.00  0.00    -0.166 F 
ATOM     13  F   UNL     1       6.138   9.265   2.163  0.00  0.00    -0.166 F 
ATOM     14  F   UNL     1       7.195   9.285   0.138  0.00  0.00    -0.166 F 
ENDBRANCH   8  11
BRANCH  10  15
ATOM     15  N   UNL     1       3.641  13.884  -0.383  0.00  0.00    +0.056 N 
ATOM     16  O   UNL     1       2.626  14.311  -0.904  0.00  0.00    -0.126 OA
ATOM     17  O   UNL     1       4.473  14.659   0.053  0.00  0.00    -0.126 OA
ENDBRANCH  10  15
ENDBRANCH   1   7
BRANCH   2  18
ATOM     18  C   UNL     1       3.668   5.983  -0.015  0.00  0.00    +0.328 C 
BRANCH  18  19
ATOM     19  O   UNL     1       2.388   5.297  -0.009  0.00  0.00    -0.452 OA
BRANCH  19  20
ATOM     20  C   UNL     1       2.417   3.950  -0.026  0.00  0.00    +0.343 C 
ATOM     21  O   UNL     1       3.481   3.364  -0.047  0.00  0.00    -0.245 OA
BRANCH  20  22
ATOM     22  C   UNL     1       1.156   3.186  -0.021  0.00  0.00    +0.102 A 
ATOM     23  C   UNL     1      -0.071   3.854   0.003  0.00  0.00    +0.038 A 
ATOM     24  C   UNL     1      -1.246   3.134   0.008  0.00  0.00    +0.042 A 
ATOM     25  C   UNL     1      -1.217   1.748  -0.016  0.00  0.00    +0.023 A 
ATOM     26  C   UNL     1      -0.011   1.075  -0.034  0.00  0.00    +0.047 A 
ATOM     27  C   UNL     1       1.181   1.784  -0.040  0.00  0.00    +0.131 A 
ATOM     28 CL   UNL     1      -2.770   3.965   0.038  0.00  0.00    -0.084 Cl
BRANCH  27  29
ATOM     29  O   UNL     1       2.366   1.124  -0.063  0.00  0.00    -0.506 OA
ATOM     30  H   UNL     1       2.382   0.024  -0.078  0.00  0.00    +0.292 HD
ENDBRANCH  27  29
ENDBRANCH  20  22
ENDBRANCH  19  20
ENDBRANCH  18  19
ENDBRANCH   2  18
TORSDOF 8
