REMARK  Name = ZINC19345597
REMARK  6 active torsions:
REMARK  status: ('A' for Active; 'I' for Inactive)
REMARK    1  A    between atoms: C_6  and  C_7
REMARK    2  A    between atoms: C_7  and  C_9
REMARK    3  A    between atoms: C_7  and  O_28
REMARK    4  A    between atoms: C_9  and  N_10
REMARK    5  A    between atoms: C_17  and  O_27
REMARK    6  A    between atoms: C_21  and  O_26
REMARK                            x       y       z     vdW  Elec       q    Type
REMARK                         _______ _______ _______ _____ _____    ______ ____
ROOT
ATOM      1  N   UNL     1      -0.037   1.201   2.506  0.00  0.00    +0.382 N 
ATOM      2  C   UNL     1       1.397   1.508   2.423  0.00  0.00    -0.075 C 
ATOM      3  C   UNL     1       2.108   0.969   3.667  0.00  0.00    +0.029 C 
ATOM      4  C   UNL     1       1.498   1.608   4.916  0.00  0.00    +0.110 C 
ATOM      5  C   UNL     1      -0.004   1.321   4.953  0.00  0.00    +0.029 C 
ATOM      6  C   UNL     1      -0.652   1.850   3.671  0.00  0.00    -0.075 C 
ATOM      7  C   UNL     1       2.162   1.022   6.166  0.00  0.00    +0.084 C 
ATOM      8  C   UNL     1       3.675   1.225   6.048  0.00  0.00    +0.152 C 
ATOM      9  C   UNL     1       3.966   2.653   5.658  0.00  0.00    +0.026 A 
ATOM     10  C   UNL     1       5.243   3.149   5.857  0.00  0.00    +0.055 A 
ATOM     11  C   UNL     1       5.549   4.453   5.502  0.00  0.00    +0.117 A 
ATOM     12  C   UNL     1       4.572   5.264   4.944  0.00  0.00    +0.049 A 
ATOM     13  C   UNL     1       3.299   4.771   4.747  0.00  0.00    +0.049 A 
ATOM     14  C   UNL     1       2.990   3.462   5.105  0.00  0.00    +0.127 A 
ATOM     15  O   UNL     1       1.722   3.017   4.898  0.00  0.00    -0.485 OA
ATOM     16  H   UNL     1      -0.140   0.114   2.635  0.00  0.00    -0.082 HD
ENDROOT
BRANCH  11  17
ATOM     17  O   UNL     1       6.805   4.936   5.699  0.00  0.00    -0.507 OA
ATOM     18  H   UNL     1       7.046   5.971   5.417  0.00  0.00    +0.292 HD
ENDBRANCH  11  17
BRANCH   8  19
ATOM     19  O   UNL     1       4.292   0.941   7.305  0.00  0.00    -0.387 OA
ATOM     20  H   UNL     1       5.383   1.033   7.416  0.00  0.00    +0.210 HD
ENDBRANCH   8  19
BRANCH   1  21
ATOM     21  C   UNL     1      -0.729   1.579   1.267  0.00  0.00    -0.042 C 
BRANCH  21  22
ATOM     22  C   UNL     1      -2.152   1.017   1.285  0.00  0.00    +0.128 C 
BRANCH  22  28
ATOM     23  C   UNL     1      -2.697   0.610  -1.122  0.00  0.00    +0.010 A 
ATOM     24  C   UNL     1      -3.345   0.944  -2.298  0.00  0.00    +0.050 A 
ATOM     25  C   UNL     1      -4.146   2.073  -2.343  0.00  0.00    +0.162 A 
ATOM     26  C   UNL     1      -4.301   2.861  -1.211  0.00  0.00    +0.162 A 
ATOM     27  C   UNL     1      -3.656   2.520  -0.035  0.00  0.00    +0.055 A 
ATOM     28  C   UNL     1      -2.856   1.391   0.007  0.00  0.00    -0.017 A 
ATOM     29  O   UNL     1      -5.094   3.970  -1.266  0.00  0.00    -0.488 OA
ATOM     30  C   UNL     1      -4.610   5.044  -2.075  0.00  0.00    +0.232 C 
ATOM     31  C   UNL     1      -4.992   4.836  -3.532  0.00  0.00    +0.082 C 
ATOM     32  C   UNL     1      -4.326   3.610  -4.136  0.00  0.00    +0.232 C 
ATOM     33  O   UNL     1      -4.786   2.417  -3.498  0.00  0.00    -0.488 OA
ENDBRANCH  22  28
BRANCH  22  34
ATOM     34  O   UNL     1      -2.100  -0.406   1.401  0.00  0.00    -0.389 OA
ATOM     35  H   UNL     1      -1.620  -0.870   2.275  0.00  0.00    +0.210 HD
ENDBRANCH  22  34
ENDBRANCH  21  22
ENDBRANCH   1  21
TORSDOF 6
