REMARK  Name = ZINC06195841
REMARK  12 active torsions:
REMARK  status: ('A' for Active; 'I' for Inactive)
REMARK    1  A    between atoms: C_1  and  C_2
REMARK    2  A    between atoms: C_5  and  C_38
REMARK    3  A    between atoms: C_6  and  N_8
REMARK    4  A    between atoms: C_13  and  C_15
REMARK    5  A    between atoms: C_13  and  C_29
REMARK    6  A    between atoms: C_13  and  N_74
REMARK    7  A    between atoms: C_19  and  C_28
REMARK    8  A    between atoms: C_21  and  C_27
REMARK    9  A    between atoms: N_33  and  C_34
REMARK   10  A    between atoms: C_34  and  C_35
REMARK   11  A    between atoms: C_34  and  C_36
REMARK   12  A    between atoms: C_34  and  C_37
REMARK                            x       y       z     vdW  Elec       q    Type
REMARK                         _______ _______ _______ _____ _____    ______ ____
ROOT
ATOM      1  C   UNL     1       5.184   6.937  -0.034  0.00  0.00    +0.039 C 
ENDROOT
BRANCH   1   2
ATOM      2  C   UNL     1       5.149   7.480   1.372  0.00  0.00    +0.011 A 
ATOM      3  C   UNL     1       6.224   7.325   2.183  0.00  0.00    +0.017 A 
ATOM      4  C   UNL     1       6.157   7.864   3.543  0.00  0.00    -0.001 A 
ATOM      5  C   UNL     1       7.235   7.735   4.425  0.00  0.00    +0.013 A 
ATOM      6  C   UNL     1       7.142   8.249   5.687  0.00  0.00    -0.050 A 
ATOM      7  C   UNL     1       5.987   8.899   6.102  0.00  0.00    +0.008 A 
ATOM      8  C   UNL     1       4.913   9.038   5.249  0.00  0.00    -0.026 A 
ATOM      9  C   UNL     1       4.985   8.522   3.959  0.00  0.00    +0.052 A 
ATOM     10  N   UNL     1       3.926   8.647   3.085  0.00  0.00    -0.322 N 
ATOM     11  H   UNL     1       3.119   9.101   3.374  0.00  0.00    +0.169 HD
ATOM     12  C   UNL     1       3.999   8.153   1.837  0.00  0.00    +0.251 A 
ATOM     13  O   UNL     1       3.045   8.287   1.089  0.00  0.00    -0.268 OA
ATOM     14  C   UNL     1       3.666   9.746   5.712  0.00  0.00    +0.046 C 
ATOM     15  C   UNL     1       8.303   8.110   6.638  0.00  0.00    +0.044 C 
ENDBRANCH   1   2
BRANCH   1  21
ATOM     16  N   UNL     1       2.757   3.526  -0.602  0.00  0.00    -0.333 N 
ATOM     17  C   UNL     1       2.631   4.257   0.667  0.00  0.00    +0.086 C 
ATOM     18  C   UNL     1       3.881   5.114   0.885  0.00  0.00    -0.058 C 
ATOM     19  C   UNL     1       4.162   5.313  -1.511  0.00  0.00    -0.058 C 
ATOM     20  C   UNL     1       2.912   4.456  -1.729  0.00  0.00    +0.086 C 
ATOM     21  N   UNL     1       4.013   6.059  -0.244  0.00  0.00    +0.391 N 
ATOM     22  H   UNL     1       3.167   6.638  -0.295  0.00  0.00    -0.080 HD
BRANCH  16  28
ATOM     23  C   UNL     1      -2.072   2.937  -1.300  0.00  0.00    +0.044 C 
ATOM     24  C   UNL     1      -0.687   2.364  -1.142  0.00  0.00    -0.049 A 
ATOM     25  C   UNL     1      -0.495   0.996  -1.199  0.00  0.00    +0.004 A 
ATOM     26  C   UNL     1       0.773   0.466  -1.048  0.00  0.00    +0.005 A 
ATOM     27  C   UNL     1       1.854   1.302  -0.852  0.00  0.00    -0.029 A 
ATOM     28  C   UNL     1       1.665   2.677  -0.800  0.00  0.00    +0.033 A 
ATOM     29  C   UNL     1       0.389   3.206  -0.946  0.00  0.00    +0.026 A 
ATOM     30  C   UNL     1       3.237   0.724  -0.695  0.00  0.00    +0.045 C 
ENDBRANCH  16  28
ENDBRANCH   1  21
BRANCH   1  31
ATOM     31  C   UNL     1       5.117   8.079  -1.015  0.00  0.00    +0.143 A 
ATOM     32  N   UNL     1       4.082   8.847  -1.253  0.00  0.00    -0.115 NA
ATOM     33  N   UNL     1       4.421   9.704  -2.153  0.00  0.00    -0.023 NA
ATOM     34  N   UNL     1       5.643   9.498  -2.502  0.00  0.00    -0.043 NA
ATOM     35  N   UNL     1       6.107   8.503  -1.823  0.00  0.00    -0.225 N 
BRANCH  35  36
ATOM     36  C   UNL     1       7.457   7.942  -1.913  0.00  0.00    +0.059 C 
ATOM     37  C   UNL     1       7.376   6.493  -2.397  0.00  0.00    +0.036 C 
ATOM     38  C   UNL     1       8.286   8.765  -2.901  0.00  0.00    +0.036 C 
ATOM     39  C   UNL     1       8.120   7.983  -0.534  0.00  0.00    +0.036 C 
ENDBRANCH  35  36
ENDBRANCH   1  31
TORSDOF 5
