REMARK  Name = ZINC67392969
REMARK  10 active torsions:
REMARK  status: ('A' for Active; 'I' for Inactive)
REMARK    1  A    between atoms: C_1  and  C_2
REMARK    2  A    between atoms: N_7  and  C_9
REMARK    3  A    between atoms: C_9  and  C_10
REMARK    4  A    between atoms: C_9  and  C_11
REMARK    5  A    between atoms: C_9  and  C_12
REMARK    6  A    between atoms: C_12  and  N_13
REMARK    7  A    between atoms: C_14  and  C_16
REMARK    8  A    between atoms: N_18  and  C_19
REMARK    9  A    between atoms: C_22  and  N_25
REMARK   10  A    between atoms: C_26  and  C_28
REMARK                            x       y       z     vdW  Elec       q    Type
REMARK                         _______ _______ _______ _____ _____    ______ ____
ROOT
ATOM      1  N   UNL     1       2.262  -4.402   1.211  0.00  0.00    -0.309 N 
ATOM      2  C   UNL     1       2.322  -5.694   0.831  0.00  0.00    +0.299 C 
ATOM      3  O   UNL     1       1.712  -6.539   1.453  0.00  0.00    -0.265 OA
ATOM      4  H   UNL     1       2.749  -3.727   0.714  0.00  0.00    +0.149 HD
ENDROOT
BRANCH   2   5
ATOM      5  C   UNL     1       3.141  -6.086  -0.355  0.00  0.00    +0.303 C 
ATOM      6  O   UNL     1       3.752  -5.241  -0.977  0.00  0.00    -0.265 OA
ATOM      7  N   UNL     1       3.202  -7.378  -0.734  0.00  0.00    -0.278 N 
ATOM      8  H   UNL     1       2.769  -8.061  -0.199  0.00  0.00    +0.155 HD
BRANCH   7   9
ATOM      9  C   UNL     1       3.889  -7.732  -1.899  0.00  0.00    +0.034 A 
ATOM     10  C   UNL     1       3.416  -8.767  -2.697  0.00  0.00    +0.025 A 
ATOM     11  C   UNL     1       4.094  -9.116  -3.848  0.00  0.00    +0.025 A 
ATOM     12  C   UNL     1       5.249  -8.434  -4.207  0.00  0.00    +0.033 A 
ATOM     13  C   UNL     1       5.723  -7.401  -3.409  0.00  0.00    +0.025 A 
ATOM     14  C   UNL     1       5.042  -7.047  -2.262  0.00  0.00    +0.025 A 
BRANCH  12  15
ATOM     15  N   UNL     1       5.937  -8.790  -5.374  0.00  0.00    -0.286 N 
ATOM     16  C   UNL     1       7.281  -8.700  -5.418  0.00  0.00    +0.214 C 
ATOM     17  O   UNL     1       7.902  -8.395  -4.421  0.00  0.00    -0.276 OA
ATOM     18  C   UNL     1       8.014  -8.978  -6.705  0.00  0.00    +0.109 C 
ATOM     19  H   UNL     1       5.447  -9.101  -6.151  0.00  0.00    +0.155 HD
ENDBRANCH  12  15
ENDBRANCH   7   9
ENDBRANCH   2   5
BRANCH   1  20
ATOM     20  C   UNL     1       1.458  -4.018   2.374  0.00  0.00    +0.092 C 
BRANCH  20  21
ATOM     21  C   UNL     1       1.463  -2.494   2.516  0.00  0.00    -0.055 C 
ATOM     22  C   UNL     1       0.687  -2.097   3.773  0.00  0.00    -0.008 C 
ATOM     23  C   UNL     1       0.801  -1.866   1.288  0.00  0.00    -0.008 C 
BRANCH  21  29
ATOM     24  C   UNL     1       4.307   1.484   2.741  0.00  0.00    +0.005 C 
ATOM     25  C   UNL     1       4.301  -0.045   2.696  0.00  0.00    -0.031 C 
ATOM     26  C   UNL     1       5.002  -0.596   3.941  0.00  0.00    -0.001 C 
ATOM     27  C   UNL     1       4.922  -2.125   3.926  0.00  0.00    -0.018 C 
ATOM     28  C   UNL     1       3.454  -2.553   3.849  0.00  0.00    -0.078 C 
ATOM     29  N   UNL     1       2.848  -2.017   2.624  0.00  0.00    +0.384 N 
ATOM     30  C   UNL     1       2.857  -0.550   2.664  0.00  0.00    -0.075 C 
ATOM     31  H   UNL     1       3.374  -2.333   1.824  0.00  0.00    -0.081 HD
ENDBRANCH  21  29
ENDBRANCH  20  21
ENDBRANCH   1  20
TORSDOF 6
