REMARK  Name = ZINC67627212
REMARK  8 active torsions:
REMARK  status: ('A' for Active; 'I' for Inactive)
REMARK    1  A    between atoms: C_1  and  C_2
REMARK    2  A    between atoms: C_2  and  C_3
REMARK    3  A    between atoms: C_2  and  C_4
REMARK    4  A    between atoms: C_4  and  C_5
REMARK    5  A    between atoms: C_5  and  N_6
REMARK    6  A    between atoms: N_14  and  C_15
REMARK    7  A    between atoms: N_20  and  S_22
REMARK    8  A    between atoms: S_22  and  C_25
REMARK                            x       y       z     vdW  Elec       q    Type
REMARK                         _______ _______ _______ _____ _____    ______ ____
ROOT
ATOM      1  N   UNL     1      -2.792  -2.570  -0.110  0.00  0.00    +0.382 N 
ATOM      2  C   UNL     1      -3.500  -2.075  -1.298  0.00  0.00    -0.059 C 
ATOM      3  C   UNL     1      -4.969  -2.505  -1.231  0.00  0.00    +0.091 C 
ATOM      4  N   UNL     1      -5.020  -3.965  -1.059  0.00  0.00    -0.289 N 
ATOM      5  C   UNL     1      -4.207  -4.566   0.010  0.00  0.00    +0.091 C 
ATOM      6  C   UNL     1      -2.774  -4.038  -0.115  0.00  0.00    -0.059 C 
ATOM      7  C   UNL     1      -5.789  -4.731  -1.857  0.00  0.00    +0.302 C 
ATOM      8  O   UNL     1      -5.747  -5.942  -1.763  0.00  0.00    -0.253 OA
ATOM      9  N   UNL     1      -6.607  -4.154  -2.760  0.00  0.00    -0.295 N 
ATOM     10  H   UNL     1      -6.588  -3.192  -2.886  0.00  0.00    +0.151 HD
ATOM     11  H   UNL     1      -3.263  -2.243   0.720  0.00  0.00    -0.082 HD
ENDROOT
BRANCH   9  12
ATOM     12  C   UNL     1      -7.522  -4.979  -3.552  0.00  0.00    +0.090 C 
ATOM     13  C   UNL     1      -6.789  -5.520  -4.782  0.00  0.00    +0.025 C 
ATOM     14  C   UNL     1      -7.736  -6.408  -5.592  0.00  0.00    +0.019 C 
ATOM     15  C   UNL     1      -8.930  -5.575  -6.069  0.00  0.00    +0.109 C 
ATOM     16  N   UNL     1      -9.554  -4.934  -4.903  0.00  0.00    -0.180 NA
ATOM     17  C   UNL     1      -8.714  -4.130  -4.005  0.00  0.00    +0.131 C 
BRANCH  16  18
ATOM     18  S   UNL     1     -11.173  -5.113  -4.608  0.00  0.00    +0.029 S 
ATOM     19  O   UNL     1     -11.537  -3.957  -3.867  0.00  0.00    -0.158 OA
ATOM     20  O   UNL     1     -11.748  -5.368  -5.882  0.00  0.00    -0.158 OA
ATOM     21  C   UNL     1     -11.295  -6.590  -3.561  0.00  0.00    +0.215 C 
ENDBRANCH  16  18
ENDBRANCH   9  12
BRANCH   1  22
ATOM     22  C   UNL     1      -1.412  -2.065  -0.119  0.00  0.00    -0.078 C 
BRANCH  22  23
ATOM     23  C   UNL     1      -1.426  -0.540   0.011  0.00  0.00    -0.016 C 
BRANCH  23  25
ATOM     24  C   UNL     1      -0.006   1.515   0.006  0.00  0.00    +0.007 C 
ATOM     25  C   UNL     1       0.011  -0.015   0.001  0.00  0.00    -0.019 C 
ATOM     26  C   UNL     1       0.747  -0.520   1.244  0.00  0.00    +0.007 C 
ENDBRANCH  23  25
ENDBRANCH  22  23
ENDBRANCH   1  22
TORSDOF 5
