REMARK  Name = ZINC17077996
REMARK  11 active torsions:
REMARK  status: ('A' for Active; 'I' for Inactive)
REMARK    1  A    between atoms: C_1  and  C_2
REMARK    2  A    between atoms: C_3  and  C_21
REMARK    3  A    between atoms: C_4  and  N_10
REMARK    4  A    between atoms: C_6  and  C_7
REMARK    5  A    between atoms: C_11  and  C_13
REMARK    6  A    between atoms: C_13  and  N_53
REMARK    7  A    between atoms: C_18  and  C_20
REMARK    8  A    between atoms: C_21  and  O_23
REMARK    9  A    between atoms: O_23  and  C_24
REMARK   10  A    between atoms: C_24  and  C_25
REMARK   11  A    between atoms: C_24  and  C_26
REMARK                            x       y       z     vdW  Elec       q    Type
REMARK                         _______ _______ _______ _____ _____    ______ ____
ROOT
ATOM      1  C   UNL     1       7.160  -1.526   6.271  0.00  0.00    +0.046 C 
ATOM      2  C   UNL     1       5.719  -1.380   5.857  0.00  0.00    -0.015 A 
ATOM      3  C   UNL     1       5.340  -0.465   4.887  0.00  0.00    +0.091 A 
ATOM      4  C   UNL     1       3.981  -0.385   4.563  0.00  0.00    +0.087 A 
ATOM      5  S   UNL     1       3.267  -1.583   5.592  0.00  0.00    -0.068 S 
ATOM      6  C   UNL     1       4.739  -2.151   6.422  0.00  0.00    +0.079 A 
ENDROOT
BRANCH   6   7
ATOM      7  C   UNL     1       4.867  -3.184   7.451  0.00  0.00    +0.248 C 
ATOM      8  O   UNL     1       5.961  -3.449   7.915  0.00  0.00    -0.270 OA
ATOM      9  N   UNL     1       3.774  -3.843   7.885  0.00  0.00    -0.325 N 
ATOM     10  H   UNL     1       2.903  -3.633   7.515  0.00  0.00    +0.145 HD
ATOM     11  H   UNL     1       3.860  -4.528   8.566  0.00  0.00    +0.145 HD
ENDBRANCH   6   7
BRANCH   4  12
ATOM     12  N   UNL     1       3.362   0.440   3.644  0.00  0.00    -0.281 N 
ATOM     13  C   UNL     1       2.029   0.367   3.464  0.00  0.00    +0.201 C 
ATOM     14  O   UNL     1       1.372  -0.423   4.108  0.00  0.00    -0.278 OA
ATOM     15  H   UNL     1       3.888   1.071   3.128  0.00  0.00    +0.155 HD
BRANCH  13  16
ATOM     16  C   UNL     1       1.354   1.267   2.461  0.00  0.00    +0.019 C 
BRANCH  16  23
ATOM     17  C   UNL     1      -0.727   1.501   3.677  0.00  0.00    -0.078 C 
ATOM     18  C   UNL     1      -2.196   1.074   3.702  0.00  0.00    -0.019 C 
ATOM     19  C   UNL     1      -2.906   1.634   2.466  0.00  0.00    -0.003 C 
ATOM     20  C   UNL     1      -2.194   1.133   1.207  0.00  0.00    -0.016 C 
ATOM     21  C   UNL     1      -0.725   1.558   1.254  0.00  0.00    -0.071 C 
ATOM     22  C   UNL     1      -0.004   1.041   0.007  0.00  0.00    -0.013 C 
ATOM     23  N   UNL     1      -0.093   0.966   2.453  0.00  0.00    +0.387 N 
ATOM     24  H   UNL     1      -0.221  -0.052   2.429  0.00  0.00    -0.081 HD
ENDBRANCH  16  23
ENDBRANCH  13  16
ENDBRANCH   4  12
BRANCH   3  25
ATOM     25  C   UNL     1       6.329   0.395   4.227  0.00  0.00    +0.342 C 
ATOM     26  O   UNL     1       6.603   1.480   4.701  0.00  0.00    -0.245 OA
BRANCH  25  27
ATOM     27  O   UNL     1       6.934  -0.019   3.095  0.00  0.00    -0.458 OA
BRANCH  27  28
ATOM     28  C   UNL     1       7.901   0.883   2.497  0.00  0.00    +0.171 C 
ATOM     29  C   UNL     1       9.290   0.593   3.070  0.00  0.00    +0.052 C 
ATOM     30  C   UNL     1       7.921   0.677   0.981  0.00  0.00    +0.052 C 
ENDBRANCH  27  28
ENDBRANCH  25  27
ENDBRANCH   3  25
TORSDOF 7
