REMARK  Name = ZINC07307311
REMARK  3 active torsions:
REMARK  status: ('A' for Active; 'I' for Inactive)
REMARK    1  A    between atoms: N_7  and  S_15
REMARK    2  A    between atoms: C_9  and  C_12
REMARK    3  A    between atoms: S_15  and  C_18
REMARK                            x       y       z     vdW  Elec       q    Type
REMARK                         _______ _______ _______ _____ _____    ______ ____
ROOT
ATOM      1  C   UNL     1      -1.246   3.132   0.029  0.00  0.00    +0.002 A 
ATOM      2  C   UNL     1      -1.219   1.750   0.017  0.00  0.00    +0.004 A 
ATOM      3  C   UNL     1      -0.013   1.076   0.008  0.00  0.00    +0.047 A 
ATOM      4  C   UNL     1       1.179   1.785   0.000  0.00  0.00    +0.144 A 
ATOM      5  C   UNL     1       1.150   3.177   0.009  0.00  0.00    +0.093 A 
ATOM      6  C   UNL     1      -0.063   3.848   0.022  0.00  0.00    +0.028 A 
ATOM      7  N   UNL     1       2.354   3.899   0.006  0.00  0.00    -0.195 N 
ATOM      8  C   UNL     1       3.591   3.167  -0.316  0.00  0.00    +0.186 C 
ATOM      9  C   UNL     1       3.531   1.815   0.409  0.00  0.00    +0.277 C 
ATOM     10  O   UNL     1       2.361   1.114  -0.018  0.00  0.00    -0.476 OA
ENDROOT
BRANCH   9  11
ATOM     11  C   UNL     1       4.757   1.004   0.073  0.00  0.00    +0.253 C 
ATOM     12  O   UNL     1       4.648  -0.026  -0.559  0.00  0.00    -0.272 OA
ATOM     13  N   UNL     1       5.973   1.423   0.474  0.00  0.00    -0.326 N 
ATOM     14  H   UNL     1       6.060   2.246   0.980  0.00  0.00    +0.145 HD
ATOM     15  H   UNL     1       6.761   0.901   0.258  0.00  0.00    +0.145 HD
ENDBRANCH   9  11
BRANCH   7  16
ATOM     16  S   UNL     1       2.382   5.518   0.354  0.00  0.00    +0.081 S 
ATOM     17  O   UNL     1       1.225   5.786   1.133  0.00  0.00    -0.149 OA
ATOM     18  O   UNL     1       3.695   5.811   0.813  0.00  0.00    -0.149 OA
BRANCH  16  19
ATOM     19  C   UNL     1       2.176   6.381  -1.168  0.00  0.00    +0.147 A 
ATOM     20  C   UNL     1       1.032   6.789  -1.770  0.00  0.00    +0.038 A 
ATOM     21  C   UNL     1       1.111   7.458  -2.977  0.00  0.00    +0.025 A 
ATOM     22  C   UNL     1       2.332   7.688  -3.522  0.00  0.00    +0.057 A 
ATOM     23  S   UNL     1       3.421   6.953  -2.313  0.00  0.00    -0.061 S 
ATOM     24 BR   UNL     1       2.767   8.565  -5.140  0.00  0.00    -0.043 Br
ENDBRANCH  16  19
ENDBRANCH   7  16
TORSDOF 3
