REMARK  Name = ZINC44396596
REMARK  9 active torsions:
REMARK  status: ('A' for Active; 'I' for Inactive)
REMARK    1  A    between atoms: C_1  and  C_2
REMARK    2  A    between atoms: C_4  and  O_27
REMARK    3  A    between atoms: C_5  and  C_24
REMARK    4  A    between atoms: C_12  and  C_23
REMARK    5  A    between atoms: C_13  and  O_21
REMARK    6  A    between atoms: C_15  and  C_18
REMARK    7  A    between atoms: O_21  and  C_22
REMARK    8  A    between atoms: C_24  and  C_25
REMARK    9  A    between atoms: C_25  and  N_26
REMARK                            x       y       z     vdW  Elec       q    Type
REMARK                         _______ _______ _______ _____ _____    ______ ____
ROOT
ATOM      1  C   UNL     1       1.037   1.167  -0.575  0.00  0.00    +0.045 C 
ATOM      2  C   UNL     1       0.951  -0.333  -0.453  0.00  0.00    -0.029 A 
ATOM      3  C   UNL     1       1.108  -1.130  -1.567  0.00  0.00    +0.050 A 
ATOM      4  C   UNL     1       1.027  -2.515  -1.456  0.00  0.00    +0.124 A 
ATOM      5  C   UNL     1       0.750  -3.108  -0.231  0.00  0.00    +0.035 A 
ATOM      6  C   UNL     1       0.562  -2.318   0.885  0.00  0.00    +0.149 A 
ATOM      7  C   UNL     1       0.718  -0.925   0.787  0.00  0.00    +0.105 A 
ATOM      8  C   UNL     1       0.687  -0.131   2.026  0.00  0.00    +0.348 C 
ATOM      9  O   UNL     1      -0.137   0.749   2.180  0.00  0.00    -0.244 OA
ATOM     10  O   UNL     1       1.587  -0.403   2.982  0.00  0.00    -0.418 OA
ATOM     11  C   UNL     1       1.633  -1.603   3.616  0.00  0.00    +0.181 A 
ATOM     12  C   UNL     1       2.384  -1.636   4.791  0.00  0.00    +0.037 A 
ATOM     13  C   UNL     1       2.523  -2.804   5.522  0.00  0.00    +0.127 A 
ATOM     14  C   UNL     1       1.912  -3.964   5.088  0.00  0.00    +0.065 A 
ATOM     15  C   UNL     1       1.153  -3.946   3.918  0.00  0.00    +0.112 A 
ATOM     16  C   UNL     1       1.004  -2.753   3.177  0.00  0.00    +0.185 A 
ATOM     17  O   UNL     1       0.207  -2.834   2.078  0.00  0.00    -0.450 OA
ATOM     18  C   UNL     1       3.057  -0.377   5.274  0.00  0.00    +0.051 C 
ENDROOT
BRANCH  15  19
ATOM     19  C   UNL     1       0.501  -5.181   3.452  0.00  0.00    +0.390 C 
ATOM     20  O   UNL     1      -0.693  -5.178   3.183  0.00  0.00    -0.240 OA
ATOM     21  O   UNL     1       1.153  -6.209   3.332  0.00  0.00    -0.240 OA
ENDBRANCH  15  19
BRANCH  13  22
ATOM     22  O   UNL     1       3.260  -2.808   6.665  0.00  0.00    -0.495 OA
ATOM     23  C   UNL     1       3.360  -4.048   7.368  0.00  0.00    +0.277 C 
ENDBRANCH  13  22
BRANCH   4  24
ATOM     24  O   UNL     1       1.218  -3.291  -2.553  0.00  0.00    -0.506 OA
ATOM     25  H   UNL     1       2.139  -3.552  -2.693  0.00  0.00    +0.292 HD
ENDBRANCH   4  24
BRANCH   5  26
ATOM     26  C   UNL     1       0.655  -4.608  -0.120  0.00  0.00    +0.023 C 
BRANCH  26  27
ATOM     27  C   UNL     1       2.055  -5.195   0.073  0.00  0.00    -0.082 C 
BRANCH  27  28
ATOM     28  N   UNL     1       1.963  -6.657   0.181  0.00  0.00    +0.378 N 
ATOM     29  H   UNL     1       1.384  -6.900   0.971  0.00  0.00    -0.090 HD
ATOM     30  H   UNL     1       1.555  -7.031  -0.663  0.00  0.00    -0.090 HD
ATOM     31  H   UNL     1       2.886  -7.044   0.308  0.00  0.00    -0.090 HD
ENDBRANCH  27  28
ENDBRANCH  26  27
ENDBRANCH   5  26
TORSDOF 6
