REMARK  Name = ZINC36316198
REMARK  16 active torsions:
REMARK  status: ('A' for Active; 'I' for Inactive)
REMARK    1  A    between atoms: C_1  and  C_2
REMARK    2  A    between atoms: C_2  and  C_3
REMARK    3  A    between atoms: C_2  and  O_4
REMARK    4  A    between atoms: O_4  and  C_5
REMARK    5  A    between atoms: C_5  and  C_6
REMARK    6  A    between atoms: C_6  and  C_8
REMARK    7  A    between atoms: C_6  and  O_37
REMARK    8  A    between atoms: C_8  and  N_9
REMARK    9  A    between atoms: N_9  and  C_10
REMARK   10  A    between atoms: N_9  and  C_17
REMARK   11  A    between atoms: C_10  and  C_11
REMARK   12  A    between atoms: C_17  and  C_18
REMARK   13  A    between atoms: C_19  and  C_31
REMARK   14  A    between atoms: N_21  and  C_30
REMARK   15  A    between atoms: C_22  and  O_23
REMARK   16  A    between atoms: O_23  and  C_24
REMARK                            x       y       z     vdW  Elec       q    Type
REMARK                         _______ _______ _______ _____ _____    ______ ____
ROOT
ATOM      1  C   UNL     1       6.174  -2.153  -3.033  0.00  0.00    -0.035 C 
ENDROOT
BRANCH   1   2
ATOM      2  C   UNL     1       6.343  -3.562  -2.524  0.00  0.00    +0.025 A 
ATOM      3  C   UNL     1       6.727  -3.932  -1.222  0.00  0.00    +0.098 A 
ATOM      4  N   UNL     1       6.765  -5.247  -1.164  0.00  0.00    -0.168 NA
ATOM      5  N   UNL     1       6.408  -5.752  -2.421  0.00  0.00    -0.235 N 
ATOM      6  C   UNL     1       6.148  -4.699  -3.239  0.00  0.00    +0.221 A 
ATOM      7  C   UNL     1       6.324  -7.168  -2.787  0.00  0.00    +0.176 C 
BRANCH   3   8
ATOM      8  C   UNL     1       7.037  -3.002  -0.107  0.00  0.00    +0.002 A 
ATOM      9  C   UNL     1       7.814  -1.870  -0.337  0.00  0.00    +0.010 A 
ATOM     10  C   UNL     1       8.099  -1.008   0.704  0.00  0.00    +0.001 A 
ATOM     11  C   UNL     1       7.613  -1.268   1.972  0.00  0.00    +0.000 A 
ATOM     12  C   UNL     1       6.840  -2.391   2.206  0.00  0.00    +0.001 A 
ATOM     13  C   UNL     1       6.545  -3.256   1.172  0.00  0.00    +0.010 A 
ENDBRANCH   3   8
BRANCH   6  14
ATOM     14  O   UNL     1       5.764  -4.772  -4.539  0.00  0.00    -0.438 OA
BRANCH  14  15
ATOM     15  C   UNL     1       6.734  -4.844  -5.487  0.00  0.00    +0.130 A 
ATOM     16  C   UNL     1       8.066  -4.956  -5.112  0.00  0.00    +0.046 A 
ATOM     17  C   UNL     1       9.050  -5.030  -6.079  0.00  0.00    +0.004 A 
ATOM     18  C   UNL     1       8.710  -4.991  -7.418  0.00  0.00    +0.000 A 
ATOM     19  C   UNL     1       7.384  -4.878  -7.795  0.00  0.00    +0.004 A 
ATOM     20  C   UNL     1       6.395  -4.810  -6.832  0.00  0.00    +0.046 A 
ENDBRANCH  14  15
ENDBRANCH   6  14
ENDBRANCH   1   2
BRANCH   1  21
ATOM     21  N   UNL     1       4.758  -1.771  -2.952  0.00  0.00    +0.387 N 
ATOM     22  H   UNL     1       4.196  -2.454  -3.438  0.00  0.00    -0.081 HD
BRANCH  21  23
ATOM     23  C   UNL     1       4.346  -1.713  -1.543  0.00  0.00    -0.044 C 
BRANCH  23  24
ATOM     24  C   UNL     1       2.843  -1.437  -1.462  0.00  0.00    +0.124 C 
BRANCH  24  25
ATOM     25  O   UNL     1       2.126  -2.540  -2.020  0.00  0.00    -0.391 OA
ATOM     26  H   UNL     1       2.286  -3.381  -1.571  0.00  0.00    +0.210 HD
ENDBRANCH  24  25
BRANCH  24  27
ATOM     27  C   UNL     1       2.437  -1.253   0.002  0.00  0.00    +0.189 C 
BRANCH  27  28
ATOM     28  O   UNL     1       1.059  -0.881   0.071  0.00  0.00    -0.375 OA
BRANCH  28  30
ATOM     29  C   UNL     1       0.776   0.779   1.804  0.00  0.00    +0.037 C 
ATOM     30  C   UNL     1       0.576  -0.684   1.401  0.00  0.00    +0.112 C 
ATOM     31  C   UNL     1      -0.913  -1.030   1.460  0.00  0.00    +0.037 C 
ENDBRANCH  28  30
ENDBRANCH  27  28
ENDBRANCH  24  27
ENDBRANCH  23  24
ENDBRANCH  21  23
BRANCH  21  32
ATOM     32  C   UNL     1       4.570  -0.452  -3.571  0.00  0.00    -0.042 C 
BRANCH  32  33
ATOM     33  C   UNL     1       4.904  -0.534  -5.038  0.00  0.00    -0.064 A 
ATOM     34  C   UNL     1       6.166  -0.182  -5.481  0.00  0.00    +0.002 A 
ATOM     35  C   UNL     1       6.472  -0.257  -6.827  0.00  0.00    +0.000 A 
ATOM     36  C   UNL     1       5.517  -0.685  -7.730  0.00  0.00    +0.000 A 
ATOM     37  C   UNL     1       4.256  -1.038  -7.287  0.00  0.00    +0.000 A 
ATOM     38  C   UNL     1       3.951  -0.967  -5.941  0.00  0.00    +0.002 A 
ENDBRANCH  32  33
ENDBRANCH  21  32
ENDBRANCH   1  21
TORSDOF 13
