REMARK  Name = ZINC65254699
REMARK  7 active torsions:
REMARK  status: ('A' for Active; 'I' for Inactive)
REMARK    1  A    between atoms: C_1  and  C_2
REMARK    2  A    between atoms: C_2  and  N_3
REMARK    3  A    between atoms: C_8  and  S_13
REMARK    4  A    between atoms: S_13  and  N_16
REMARK    5  A    between atoms: N_16  and  C_17
REMARK    6  A    between atoms: C_21  and  C_24
REMARK    7  A    between atoms: C_22  and  C_23
REMARK                            x       y       z     vdW  Elec       q    Type
REMARK                         _______ _______ _______ _____ _____    ______ ____
ROOT
ATOM      1  N   UNL     1       0.711  -0.489   1.189  0.00  0.00    -0.295 N 
ATOM      2  C   UNL     1       2.151  -0.699   1.115  0.00  0.00    +0.129 C 
ATOM      3  C   UNL     1       2.875  -0.283   2.395  0.00  0.00    +0.141 C 
ATOM      4  N   UNL     1       2.164  -0.835   3.551  0.00  0.00    -0.340 N 
ATOM      5  C   UNL     1       2.625  -1.210   4.757  0.00  0.00    +0.115 A 
ATOM      6  C   UNL     1       1.585  -1.664   5.503  0.00  0.00    +0.128 A 
ATOM      7  C   UNL     1       0.421  -1.567   4.726  0.00  0.00    +0.061 A 
ATOM      8  C   UNL     1       0.792  -1.051   3.520  0.00  0.00    +0.107 A 
ATOM      9  C   UNL     1       0.008  -0.724   2.323  0.00  0.00    +0.263 C 
ATOM     10  O   UNL     1      -1.208  -0.670   2.348  0.00  0.00    -0.268 OA
ENDROOT
BRANCH   6  11
ATOM     11  S   UNL     1       1.680  -2.269   7.154  0.00  0.00    +0.093 S 
ATOM     12  O   UNL     1       0.559  -3.122   7.340  0.00  0.00    -0.148 OA
ATOM     13  O   UNL     1       3.016  -2.715   7.347  0.00  0.00    -0.148 OA
BRANCH  11  14
ATOM     14  N   UNL     1       1.463  -0.975   8.164  0.00  0.00    -0.098 NA
BRANCH  14  15
ATOM     15  C   UNL     1       1.489  -1.157   9.549  0.00  0.00    +0.077 A 
ATOM     16  C   UNL     1       1.703  -2.422  10.081  0.00  0.00    +0.027 A 
ATOM     17  C   UNL     1       1.729  -2.599  11.450  0.00  0.00    +0.002 A 
ATOM     18  C   UNL     1       1.542  -1.517  12.291  0.00  0.00    +0.004 A 
ATOM     19  C   UNL     1       1.328  -0.257  11.765  0.00  0.00    -0.046 A 
ATOM     20  C   UNL     1       1.307  -0.072  10.397  0.00  0.00    -0.023 A 
ATOM     21  C   UNL     1       1.080   1.303   9.824  0.00  0.00    +0.046 C 
ATOM     22  C   UNL     1       1.123   0.919  12.686  0.00  0.00    +0.044 C 
ENDBRANCH  14  15
ENDBRANCH  11  14
ENDBRANCH   6  11
BRANCH   1  24
ATOM     23  C   UNL     1      -0.019   1.526   0.010  0.00  0.00    +0.024 C 
ATOM     24  C   UNL     1       0.002  -0.004   0.002  0.00  0.00    +0.105 C 
ENDBRANCH   1  24
TORSDOF 4
