REMARK  Name = ZINC36313610
REMARK  9 active torsions:
REMARK  status: ('A' for Active; 'I' for Inactive)
REMARK    1  A    between atoms: C_1  and  C_2
REMARK    2  A    between atoms: C_2  and  C_3
REMARK    3  A    between atoms: C_2  and  C_4
REMARK    4  A    between atoms: C_2  and  O_30
REMARK    5  A    between atoms: C_4  and  N_5
REMARK    6  A    between atoms: N_5  and  C_6
REMARK    7  A    between atoms: N_5  and  C_13
REMARK    8  A    between atoms: C_6  and  C_7
REMARK    9  A    between atoms: C_13  and  C_14
REMARK                            x       y       z     vdW  Elec       q    Type
REMARK                         _______ _______ _______ _____ _____    ______ ____
ROOT
ATOM      1  C   UNL     1      -2.534  -2.583  -0.323  0.00  0.00    -0.003 C 
ENDROOT
BRANCH   1   2
ATOM      2  C   UNL     1      -3.055  -2.237  -1.694  0.00  0.00    +0.094 A 
ATOM      3  N   UNL     1      -4.264  -2.713  -2.088  0.00  0.00    -0.312 N 
ATOM      4  H   UNL     1      -4.777  -3.269  -1.480  0.00  0.00    +0.170 HD
ATOM      5  C   UNL     1      -4.766  -2.429  -3.304  0.00  0.00    +0.260 A 
ATOM      6  O   UNL     1      -5.853  -2.864  -3.643  0.00  0.00    -0.267 OA
ATOM      7  C   UNL     1      -4.000  -1.606  -4.194  0.00  0.00    +0.075 A 
ATOM      8  C   UNL     1      -4.347  -1.173  -5.551  0.00  0.00    -0.023 A 
ATOM      9  C   UNL     1      -3.445  -0.398  -6.188  0.00  0.00    -0.004 A 
ATOM     10  S   UNL     1      -2.112  -0.194  -5.035  0.00  0.00    -0.073 S 
ATOM     11  C   UNL     1      -2.765  -1.161  -3.699  0.00  0.00    +0.116 A 
ATOM     12  N   UNL     1      -2.337  -1.480  -2.480  0.00  0.00    -0.229 NA
ATOM     13  C   UNL     1      -3.533   0.164  -7.573  0.00  0.00    +0.043 C 
ATOM     14  C   UNL     1      -4.900   0.835  -7.762  0.00  0.00    +0.005 C 
ATOM     15  C   UNL     1      -5.881  -0.210  -8.284  0.00  0.00    +0.001 C 
ATOM     16  C   UNL     1      -5.536  -1.583  -7.709  0.00  0.00    +0.005 C 
ATOM     17  C   UNL     1      -5.671  -1.578  -6.191  0.00  0.00    +0.037 C 
ENDBRANCH   1   2
BRANCH   1  18
ATOM     18  N   UNL     1      -1.269  -1.875  -0.086  0.00  0.00    +0.389 N 
ATOM     19  H   UNL     1      -0.884  -1.571  -0.968  0.00  0.00    -0.081 HD
BRANCH  18  20
ATOM     20  C   UNL     1      -1.514  -0.706   0.769  0.00  0.00    -0.043 C 
BRANCH  20  22
ATOM     21  C   UNL     1      -2.623   1.529   0.900  0.00  0.00    +0.039 C 
ATOM     22  C   UNL     1      -2.339   0.326  -0.002  0.00  0.00    +0.046 C 
ATOM     23  C   UNL     1      -1.557   0.786  -1.234  0.00  0.00    +0.039 C 
BRANCH  22  24
ATOM     24  O   UNL     1      -3.574  -0.262  -0.414  0.00  0.00    -0.391 OA
ATOM     25  H   UNL     1      -4.121   0.316  -0.963  0.00  0.00    +0.210 HD
ENDBRANCH  22  24
ENDBRANCH  20  22
ENDBRANCH  18  20
BRANCH  18  26
ATOM     26  C   UNL     1      -0.320  -2.778   0.578  0.00  0.00    -0.042 C 
BRANCH  26  27
ATOM     27  C   UNL     1       1.018  -2.096   0.704  0.00  0.00    -0.064 A 
ATOM     28  C   UNL     1       1.911  -2.127  -0.351  0.00  0.00    +0.002 A 
ATOM     29  C   UNL     1       3.139  -1.502  -0.236  0.00  0.00    +0.000 A 
ATOM     30  C   UNL     1       3.473  -0.845   0.933  0.00  0.00    +0.000 A 
ATOM     31  C   UNL     1       2.580  -0.813   1.987  0.00  0.00    +0.000 A 
ATOM     32  C   UNL     1       1.351  -1.435   1.871  0.00  0.00    +0.002 A 
ENDBRANCH  26  27
ENDBRANCH  18  26
ENDBRANCH   1  18
TORSDOF 7
