REMARK  Name = ZINC45163429
REMARK  13 active torsions:
REMARK  status: ('A' for Active; 'I' for Inactive)
REMARK    1  A    between atoms: C_1  and  C_2
REMARK    2  A    between atoms: C_7  and  C_8
REMARK    3  A    between atoms: N_10  and  C_11
REMARK    4  A    between atoms: C_11  and  C_13
REMARK    5  A    between atoms: C_11  and  C_17
REMARK    6  A    between atoms: C_13  and  C_14
REMARK    7  A    between atoms: C_14  and  C_15
REMARK    8  A    between atoms: C_14  and  C_16
REMARK    9  A    between atoms: N_19  and  C_20
REMARK   10  A    between atoms: C_22  and  C_28
REMARK   11  A    between atoms: C_22  and  C_29
REMARK   12  A    between atoms: C_24  and  C_26
REMARK   13  A    between atoms: C_24  and  C_27
REMARK                            x       y       z     vdW  Elec       q    Type
REMARK                         _______ _______ _______ _____ _____    ______ ____
ROOT
ATOM      1  C   UNL     1       0.475  -0.086   4.792  0.00  0.00    +0.159 C 
ENDROOT
BRANCH   1   4
ATOM      2  C   UNL     1       0.697  -0.021   2.367  0.00  0.00    +0.245 C 
ATOM      3  O   UNL     1       0.078   1.026   2.366  0.00  0.00    -0.270 OA
ATOM      4  N   UNL     1       0.994  -0.627   3.533  0.00  0.00    -0.300 N 
ATOM      5  H   UNL     1       1.551  -1.421   3.539  0.00  0.00    +0.150 HD
BRANCH   2  12
ATOM      6  C   UNL     1       0.097   1.320  -0.126  0.00  0.00    +0.044 C 
ATOM      7  C   UNL     1       0.839   0.008  -0.120  0.00  0.00    -0.038 A 
ATOM      8  C   UNL     1       1.244  -0.562  -1.309  0.00  0.00    +0.004 A 
ATOM      9  C   UNL     1       1.925  -1.766  -1.306  0.00  0.00    +0.000 A 
ATOM     10  C   UNL     1       2.205  -2.406  -0.111  0.00  0.00    +0.001 A 
ATOM     11  C   UNL     1       1.806  -1.847   1.085  0.00  0.00    +0.013 A 
ATOM     12  C   UNL     1       1.123  -0.629   1.088  0.00  0.00    +0.040 A 
ENDBRANCH   2  12
ENDBRANCH   1   4
BRANCH   1  13
ATOM     13  C   UNL     1       1.341  -0.553   5.934  0.00  0.00    +0.234 C 
ATOM     14  O   UNL     1       2.041  -1.535   5.802  0.00  0.00    -0.274 OA
ATOM     15  N   UNL     1       1.337   0.121   7.101  0.00  0.00    -0.311 N 
ATOM     16  H   UNL     1       0.718   0.855   7.236  0.00  0.00    +0.149 HD
BRANCH  15  17
ATOM     17  C   UNL     1       2.271  -0.257   8.170  0.00  0.00    +0.070 C 
ATOM     18  C   UNL     1       3.598   0.475   7.959  0.00  0.00    +0.009 C 
ATOM     19  C   UNL     1       4.578   0.101   9.071  0.00  0.00    -0.072 C 
ATOM     20  N   UNL     1       4.018   0.331  10.395  0.00  0.00    +0.386 N 
ATOM     21  C   UNL     1       2.668  -0.145  10.649  0.00  0.00    -0.072 C 
ATOM     22  C   UNL     1       1.695   0.173   9.518  0.00  0.00    +0.009 C 
ATOM     23  C   UNL     1       2.644  -1.646  10.951  0.00  0.00    -0.010 C 
ATOM     24  C   UNL     1       2.151   0.578  11.915  0.00  0.00    -0.010 C 
ATOM     25  C   UNL     1       5.813   1.019   8.921  0.00  0.00    -0.010 C 
ATOM     26  C   UNL     1       5.058  -1.338   8.891  0.00  0.00    -0.010 C 
ATOM     27  H   UNL     1       4.644  -0.091  11.086  0.00  0.00    -0.084 HD
ATOM     28  H   UNL     1       4.046   1.335  10.585  0.00  0.00    -0.084 HD
ENDBRANCH  15  17
ENDBRANCH   1  13
BRANCH   1  29
ATOM     29  C   UNL     1      -0.958  -0.577   5.006  0.00  0.00    +0.034 C 
BRANCH  29  30
ATOM     30  C   UNL     1      -1.533   0.061   6.272  0.00  0.00    -0.015 C 
ATOM     31  C   UNL     1      -1.685   1.568   6.061  0.00  0.00    +0.007 C 
ATOM     32  C   UNL     1      -2.901  -0.552   6.577  0.00  0.00    +0.007 C 
ENDBRANCH  29  30
ENDBRANCH   1  29
TORSDOF 6
