REMARK  Name = ZINC63059212
REMARK  9 active torsions:
REMARK  status: ('A' for Active; 'I' for Inactive)
REMARK    1  A    between atoms: C_1  and  C_2
REMARK    2  A    between atoms: C_4  and  C_10
REMARK    3  A    between atoms: C_7  and  N_8
REMARK    4  A    between atoms: N_8  and  N_9
REMARK    5  A    between atoms: N_12  and  C_13
REMARK    6  A    between atoms: C_13  and  C_15
REMARK    7  A    between atoms: C_13  and  C_16
REMARK    8  A    between atoms: C_18  and  C_22
REMARK    9  A    between atoms: C_20  and  C_21
REMARK                            x       y       z     vdW  Elec       q    Type
REMARK                         _______ _______ _______ _____ _____    ______ ____
ROOT
ATOM      1  C   UNL     1       0.029  -2.815  -2.481  0.00  0.00    +0.245 C 
ATOM      2  O   UNL     1       0.015  -2.204  -3.532  0.00  0.00    -0.270 OA
ATOM      3  N   UNL     1       0.047  -4.163  -2.486  0.00  0.00    -0.305 N 
ATOM      4  H   UNL     1       0.059  -4.651  -1.648  0.00  0.00    +0.150 HD
ENDROOT
BRANCH   1   8
ATOM      5  C   UNL     1      -0.018   1.503   0.010  0.00  0.00    +0.046 C 
ATOM      6  C   UNL     1       0.002  -0.004   0.002  0.00  0.00    -0.028 A 
ATOM      7  C   UNL     1       0.006  -0.685  -1.194  0.00  0.00    +0.018 A 
ATOM      8  C   UNL     1       0.025  -2.083  -1.201  0.00  0.00    +0.037 A 
ATOM      9  C   UNL     1       0.041  -2.784   0.008  0.00  0.00    +0.015 A 
ATOM     10  C   UNL     1       0.037  -2.098   1.201  0.00  0.00    +0.025 A 
ATOM     11  C   UNL     1       0.023  -0.706   1.204  0.00  0.00    +0.044 A 
BRANCH  11  12
ATOM     12  N   UNL     1       0.025  -0.015   2.411  0.00  0.00    -0.283 N 
ATOM     13  H   UNL     1       0.012   0.955   2.414  0.00  0.00    +0.166 HD
BRANCH  12  14
ATOM     14  N   UNL     1       0.046  -0.702   3.591  0.00  0.00    -0.257 NA
ATOM     15  H   UNL     1       0.044  -0.070   4.378  0.00  0.00    +0.140 HD
ATOM     16  H   UNL     1      -0.727  -1.349   3.646  0.00  0.00    +0.140 HD
ENDBRANCH  12  14
ENDBRANCH  11  12
ENDBRANCH   1   8
BRANCH   3  17
ATOM     17  C   UNL     1       0.051  -4.891  -3.758  0.00  0.00    +0.101 C 
ATOM     18  C   UNL     1      -1.387  -5.055  -4.255  0.00  0.00    +0.033 C 
BRANCH  17  19
ATOM     19  C   UNL     1       0.671  -6.250  -3.557  0.00  0.00    -0.017 A 
ATOM     20  C   UNL     1       0.657  -6.851  -2.312  0.00  0.00    +0.016 A 
ATOM     21  C   UNL     1       1.224  -8.073  -2.166  0.00  0.00    -0.013 A 
ATOM     22  S   UNL     1       1.804  -8.411  -3.820  0.00  0.00    -0.098 S 
ATOM     23  C   UNL     1       1.248  -6.903  -4.596  0.00  0.00    -0.008 A 
ATOM     24  C   UNL     1       1.384  -6.468  -6.032  0.00  0.00    +0.052 C 
ATOM     25  C   UNL     1       1.335  -8.925  -0.928  0.00  0.00    +0.051 C 
ENDBRANCH  17  19
ENDBRANCH   3  17
TORSDOF 5
