REMARK  Name = ZINC14655548
REMARK  9 active torsions:
REMARK  status: ('A' for Active; 'I' for Inactive)
REMARK    1  A    between atoms: C_1  and  C_2
REMARK    2  A    between atoms: C_2  and  C_3
REMARK    3  A    between atoms: C_3  and  C_4
REMARK    4  A    between atoms: C_4  and  N_5
REMARK    5  A    between atoms: C_6  and  N_29
REMARK    6  A    between atoms: C_7  and  N_14
REMARK    7  A    between atoms: N_14  and  C_15
REMARK    8  A    between atoms: C_16  and  C_18
REMARK    9  A    between atoms: C_25  and  C_28
REMARK                            x       y       z     vdW  Elec       q    Type
REMARK                         _______ _______ _______ _____ _____    ______ ____
ROOT
ATOM      1  N   UNL     1       1.450   0.115   2.060  0.00  0.00    -0.280 N 
ATOM      2  C   UNL     1       2.345   0.860   2.791  0.00  0.00    +0.127 A 
ATOM      3  C   UNL     1       1.961   1.361   4.019  0.00  0.00    +0.140 A 
ATOM      4  C   UNL     1       0.661   1.091   4.486  0.00  0.00    +0.277 A 
ATOM      5  O   UNL     1       0.296   1.521   5.567  0.00  0.00    -0.266 OA
ATOM      6  N   UNL     1      -0.178   0.356   3.730  0.00  0.00    -0.273 N 
ATOM      7  H   UNL     1      -1.101   0.161   4.062  0.00  0.00    +0.173 HD
ATOM      8  C   UNL     1       0.212  -0.119   2.534  0.00  0.00    +0.331 A 
ATOM      9  O   UNL     1      -0.566  -0.777   1.870  0.00  0.00    -0.246 OA
ENDROOT
BRANCH   3  10
ATOM     10  N   UNL     1       2.857   2.128   4.793  0.00  0.00    -0.263 N 
ATOM     11  C   UNL     1       3.290   3.445   4.320  0.00  0.00    +0.139 C 
ATOM     12  C   UNL     1       3.314   1.649   5.967  0.00  0.00    +0.257 C 
ATOM     13  O   UNL     1       3.034   0.516   6.312  0.00  0.00    -0.269 OA
BRANCH  12  14
ATOM     14  C   UNL     1       4.148   2.493   6.827  0.00  0.00    +0.075 A 
ATOM     15  C   UNL     1       4.819   2.160   7.989  0.00  0.00    +0.024 A 
ATOM     16  C   UNL     1       5.554   3.147   8.627  0.00  0.00    -0.036 A 
ATOM     17  C   UNL     1       5.546   4.386   8.054  0.00  0.00    -0.006 A 
ATOM     18  S   UNL     1       4.557   4.222   6.653  0.00  0.00    -0.088 S 
ATOM     19  C   UNL     1       6.248   5.614   8.547  0.00  0.00    +0.043 C 
ATOM     20  C   UNL     1       6.682   5.372  10.000  0.00  0.00    +0.009 C 
ATOM     21  C   UNL     1       7.370   4.007  10.088  0.00  0.00    -0.009 C 
ATOM     22  C   UNL     1       6.339   2.892   9.911  0.00  0.00    +0.039 C 
ATOM     23  C   UNL     1       8.043   3.864  11.454  0.00  0.00    +0.008 C 
ENDBRANCH  12  14
ENDBRANCH   3  10
BRANCH   2  24
ATOM     24  N   UNL     1       3.607   1.104   2.305  0.00  0.00    -0.343 N 
ATOM     25  H   UNL     1       3.897   0.688   1.478  0.00  0.00    +0.144 HD
ATOM     26  H   UNL     1       4.208   1.692   2.788  0.00  0.00    +0.144 HD
ENDBRANCH   2  24
BRANCH   1  27
ATOM     27  C   UNL     1       1.843  -0.422   0.755  0.00  0.00    +0.128 C 
BRANCH  27  28
ATOM     28  C   UNL     1       2.459  -1.811   0.940  0.00  0.00    +0.021 C 
BRANCH  28  30
ATOM     29  C   UNL     1       3.486  -3.760  -0.239  0.00  0.00    +0.004 C 
ATOM     30  C   UNL     1       2.870  -2.371  -0.423  0.00  0.00    -0.002 C 
ENDBRANCH  28  30
ENDBRANCH  27  28
ENDBRANCH   1  27
TORSDOF 6
