REMARK  Name = ZINC09117813
REMARK  3 active torsions:
REMARK  status: ('A' for Active; 'I' for Inactive)
REMARK    1  A    between atoms: C_1  and  C_2
REMARK    2  A    between atoms: C_7  and  N_8
REMARK    3  A    between atoms: C_14  and  C_16
REMARK                            x       y       z     vdW  Elec       q    Type
REMARK                         _______ _______ _______ _____ _____    ______ ____
ROOT
ATOM      1  C   UNL     1      -0.876   1.746  -1.094  0.00  0.00    +0.076 C 
ATOM      2  C   UNL     1      -0.047   1.201   0.101  0.00  0.00    -0.003 C 
ATOM      3  C   UNL     1      -0.785   1.827   1.309  0.00  0.00    -0.066 C 
ATOM      4  C   UNL     1      -0.618   0.912   2.532  0.00  0.00    -0.017 C 
ATOM      5  C   UNL     1      -2.040   0.397   2.850  0.00  0.00    -0.020 C 
ATOM      6  C   UNL     1      -2.772   0.544   1.492  0.00  0.00    -0.077 C 
ATOM      7  C   UNL     1      -2.307   1.768  -0.535  0.00  0.00    +0.052 C 
ATOM      8  C   UNL     1      -3.074   2.947  -1.070  0.00  0.00    -0.027 A 
ATOM      9  C   UNL     1      -2.888   4.310  -0.991  0.00  0.00    +0.004 A 
ATOM     10  C   UNL     1      -3.787   5.167  -1.602  0.00  0.00    +0.000 A 
ATOM     11  C   UNL     1      -4.870   4.652  -2.291  0.00  0.00    +0.002 A 
ATOM     12  C   UNL     1      -5.059   3.288  -2.373  0.00  0.00    +0.023 A 
ATOM     13  C   UNL     1      -4.159   2.418  -1.761  0.00  0.00    +0.036 A 
ATOM     14  N   UNL     1      -4.133   1.023  -1.704  0.00  0.00    -0.286 N 
ATOM     15  C   UNL     1      -3.079   0.562  -1.006  0.00  0.00    +0.212 C 
ATOM     16  O   UNL     1      -2.803  -0.600  -0.796  0.00  0.00    -0.277 OA
ATOM     17  H   UNL     1      -4.798   0.452  -2.120  0.00  0.00    +0.155 HD
ATOM     18  N   UNL     1      -2.195   1.782   0.937  0.00  0.00    +0.394 N 
ATOM     19  H   UNL     1      -2.687   2.600   1.315  0.00  0.00    -0.079 HD
ENDROOT
BRANCH   1  26
ATOM     20  N   UNL     1      -1.388   4.603  -5.144  0.00  0.00    -0.327 N 
ATOM     21  C   UNL     1      -1.084   5.503  -4.023  0.00  0.00    +0.124 C 
ATOM     22  C   UNL     1       0.003   4.871  -3.146  0.00  0.00    +0.126 C 
ATOM     23  N   UNL     1      -0.435   3.522  -2.759  0.00  0.00    -0.298 N 
ATOM     24  C   UNL     1      -0.881   2.604  -3.819  0.00  0.00    +0.126 C 
ATOM     25  C   UNL     1      -1.939   3.327  -4.668  0.00  0.00    +0.124 C 
ATOM     26  C   UNL     1      -0.423   3.134  -1.469  0.00  0.00    +0.218 C 
ATOM     27  O   UNL     1      -0.047   3.902  -0.608  0.00  0.00    -0.275 OA
BRANCH  20  34
ATOM     28  C   UNL     1      -0.423   5.128  -7.768  0.00  0.00    +0.045 C 
ATOM     29  C   UNL     1      -1.824   5.488  -7.346  0.00  0.00    -0.029 A 
ATOM     30  C   UNL     1      -2.684   6.088  -8.246  0.00  0.00    +0.006 A 
ATOM     31  C   UNL     1      -3.968   6.424  -7.859  0.00  0.00    +0.020 A 
ATOM     32  C   UNL     1      -4.398   6.156  -6.571  0.00  0.00    +0.043 A 
ATOM     33  C   UNL     1      -3.545   5.552  -5.668  0.00  0.00    +0.043 A 
ATOM     34  C   UNL     1      -2.254   5.213  -6.054  0.00  0.00    +0.034 A 
ATOM     35 CL   UNL     1      -6.012   6.580  -6.090  0.00  0.00    -0.083 Cl
ENDBRANCH  20  34
ENDBRANCH   1  26
TORSDOF 2
