REMARK  Name = ZINC40814942
REMARK  11 active torsions:
REMARK  status: ('A' for Active; 'I' for Inactive)
REMARK    1  A    between atoms: C_1  and  C_2
REMARK    2  A    between atoms: C_6  and  C_7
REMARK    3  A    between atoms: N_9  and  C_10
REMARK    4  A    between atoms: C_12  and  C_18
REMARK    5  A    between atoms: C_12  and  C_19
REMARK    6  A    between atoms: C_14  and  C_16
REMARK    7  A    between atoms: C_14  and  C_17
REMARK    8  A    between atoms: N_24  and  N_25
REMARK    9  A    between atoms: N_25  and  C_26
REMARK   10  A    between atoms: C_29  and  N_35
REMARK   11  A    between atoms: C_31  and  N_32
REMARK                            x       y       z     vdW  Elec       q    Type
REMARK                         _______ _______ _______ _____ _____    ______ ____
ROOT
ATOM      1  C   UNL     1      -0.205   1.460  -0.298  0.00  0.00    +0.048 C 
ATOM      2  C   UNL     1      -0.281  -0.045  -0.281  0.00  0.00    +0.009 A 
ATOM      3  C   UNL     1      -0.351  -0.895  -1.390  0.00  0.00    +0.042 A 
ATOM      4  C   UNL     1      -0.407  -2.185  -0.919  0.00  0.00    +0.115 A 
ATOM      5  O   UNL     1      -0.371  -2.139   0.411  0.00  0.00    -0.454 OA
ATOM      6  C   UNL     1      -0.290  -0.853   0.822  0.00  0.00    +0.193 A 
ATOM      7  C   UNL     1      -0.495  -3.387  -1.825  0.00  0.00    +0.075 C 
ATOM      8  C   UNL     1      -1.019  -2.952  -3.196  0.00  0.00    +0.014 C 
ATOM      9  C   UNL     1      -0.182  -1.795  -3.753  0.00  0.00    +0.058 C 
ATOM     10  C   UNL     1      -0.366  -0.592  -2.839  0.00  0.00    +0.070 C 
ATOM     11  N   UNL     1      -0.526   0.612  -3.297  0.00  0.00    -0.186 NA
ENDROOT
BRANCH   6  12
ATOM     12  C   UNL     1      -0.227  -0.401   2.216  0.00  0.00    +0.280 C 
ATOM     13  O   UNL     1      -0.158   0.788   2.468  0.00  0.00    -0.267 OA
ATOM     14  N   UNL     1      -0.243  -1.302   3.218  0.00  0.00    -0.306 N 
ATOM     15  H   UNL     1      -0.297  -2.250   3.018  0.00  0.00    +0.149 HD
BRANCH  14  16
ATOM     16  C   UNL     1      -0.179  -0.850   4.614  0.00  0.00    +0.071 C 
ATOM     17  C   UNL     1       1.286  -0.691   5.024  0.00  0.00    +0.009 C 
ATOM     18  C   UNL     1       1.370  -0.232   6.479  0.00  0.00    -0.072 C 
ATOM     19  N   UNL     1       0.632  -1.111   7.375  0.00  0.00    +0.386 N 
ATOM     20  C   UNL     1      -0.713  -1.500   6.982  0.00  0.00    -0.072 C 
ATOM     21  C   UNL     1      -0.818  -1.906   5.516  0.00  0.00    +0.009 C 
ATOM     22  C   UNL     1      -1.734  -0.404   7.295  0.00  0.00    -0.010 C 
ATOM     23  C   UNL     1      -1.104  -2.735   7.828  0.00  0.00    -0.010 C 
ATOM     24  C   UNL     1       0.920   1.224   6.601  0.00  0.00    -0.010 C 
ATOM     25  C   UNL     1       2.859  -0.287   6.892  0.00  0.00    -0.010 C 
ATOM     26  H   UNL     1       1.185  -1.960   7.517  0.00  0.00    -0.084 HD
ATOM     27  H   UNL     1       0.583  -0.665   8.294  0.00  0.00    -0.084 HD
ENDBRANCH  14  16
ENDBRANCH   6  12
BRANCH  11  28
ATOM     28  N   UNL     1      -0.532   0.840  -4.679  0.00  0.00    -0.235 N 
ATOM     29  H   UNL     1      -0.417   0.099  -5.294  0.00  0.00    +0.174 HD
BRANCH  28  30
ATOM     30  C   UNL     1      -0.703   2.134  -5.171  0.00  0.00    +0.079 A 
ATOM     31  C   UNL     1      -0.792   3.208  -4.293  0.00  0.00    +0.029 A 
ATOM     32  C   UNL     1      -0.962   4.487  -4.784  0.00  0.00    +0.035 A 
ATOM     33  C   UNL     1      -1.044   4.701  -6.148  0.00  0.00    +0.128 A 
ATOM     34  C   UNL     1      -0.956   3.635  -7.025  0.00  0.00    +0.067 A 
ATOM     35  C   UNL     1      -0.780   2.354  -6.542  0.00  0.00    +0.151 A 
BRANCH  35  36
ATOM     36  N   UNL     1      -0.679   1.212  -7.484  0.00  0.00    +0.058 N 
ATOM     37  O   UNL     1       0.086   0.304  -7.254  0.00  0.00    -0.126 OA
ATOM     38  O   UNL     1      -1.361   1.190  -8.481  0.00  0.00    -0.126 OA
ENDBRANCH  35  36
BRANCH  33  39
ATOM     39  N   UNL     1      -1.226   6.077  -6.671  0.00  0.00    +0.056 N 
ATOM     40  O   UNL     1      -1.304   7.010  -5.906  0.00  0.00    -0.126 OA
ATOM     41  O   UNL     1      -1.298   6.266  -7.863  0.00  0.00    -0.126 OA
ENDBRANCH  33  39
ENDBRANCH  28  30
ENDBRANCH  11  28
TORSDOF 6
