REMARK  Name = ZINC01834578
REMARK  8 active torsions:
REMARK  status: ('A' for Active; 'I' for Inactive)
REMARK    1  A    between atoms: C_1  and  C_2
REMARK    2  A    between atoms: C_5  and  N_8
REMARK    3  A    between atoms: C_18  and  S_19
REMARK    4  A    between atoms: S_19  and  C_20
REMARK    5  A    between atoms: C_20  and  C_21
REMARK    6  A    between atoms: N_23  and  N_24
REMARK    7  A    between atoms: C_25  and  C_26
REMARK    8  A    between atoms: C_28  and  N_33
REMARK                            x       y       z     vdW  Elec       q    Type
REMARK                         _______ _______ _______ _____ _____    ______ ____
ROOT
ATOM      1  N   UNL     1       0.037  -2.767  -0.014  0.00  0.00    -0.255 N 
ATOM      2  C   UNL     1       1.135  -2.144   0.473  0.00  0.00    +0.267 A 
ATOM      3  O   UNL     1       2.079  -2.778   0.908  0.00  0.00    -0.267 OA
ATOM      4  C   UNL     1       1.146  -0.675   0.458  0.00  0.00    +0.065 A 
ATOM      5  C   UNL     1       2.230   0.058   0.938  0.00  0.00    +0.015 A 
ATOM      6  C   UNL     1       2.188   1.425   0.900  0.00  0.00    +0.001 A 
ATOM      7  C   UNL     1       1.080   2.087   0.389  0.00  0.00    +0.002 A 
ATOM      8  C   UNL     1       0.004   1.393  -0.087  0.00  0.00    +0.028 A 
ATOM      9  C   UNL     1       0.015  -0.004  -0.062  0.00  0.00    +0.079 A 
ATOM     10  N   UNL     1      -1.029  -0.731  -0.523  0.00  0.00    -0.223 NA
ATOM     11  C   UNL     1      -1.016  -2.041  -0.499  0.00  0.00    +0.177 A 
ENDROOT
BRANCH   1  16
ATOM     12  C   UNL     1      -0.202  -8.437  -0.043  0.00  0.00    +0.044 C 
ATOM     13  C   UNL     1      -0.138  -6.931  -0.036  0.00  0.00    -0.050 A 
ATOM     14  C   UNL     1       0.386  -6.257  -1.123  0.00  0.00    +0.005 A 
ATOM     15  C   UNL     1       0.446  -4.877  -1.119  0.00  0.00    +0.026 A 
ATOM     16  C   UNL     1      -0.022  -4.167  -0.021  0.00  0.00    +0.052 A 
ATOM     17  C   UNL     1      -0.543  -4.847   1.071  0.00  0.00    +0.026 A 
ATOM     18  C   UNL     1      -0.605  -6.227   1.059  0.00  0.00    +0.005 A 
ENDBRANCH   1  16
BRANCH  11  19
ATOM     19  S   UNL     1      -2.418  -2.907  -1.121  0.00  0.00    -0.078 S 
BRANCH  19  20
ATOM     20  C   UNL     1      -3.459  -1.510  -1.611  0.00  0.00    +0.174 C 
BRANCH  20  21
ATOM     21  C   UNL     1      -4.752  -2.024  -2.188  0.00  0.00    +0.242 C 
ATOM     22  O   UNL     1      -4.951  -3.219  -2.261  0.00  0.00    -0.273 OA
ATOM     23  N   UNL     1      -5.689  -1.157  -2.623  0.00  0.00    -0.206 N 
ATOM     24  H   UNL     1      -5.508  -0.074  -2.556  0.00  0.00    +0.177 HD
BRANCH  23  25
ATOM     25  N   UNL     1      -6.891  -1.636  -3.160  0.00  0.00    -0.188 NA
ATOM     26  C   UNL     1      -7.792  -0.802  -3.578  0.00  0.00    +0.139 C 
BRANCH  26  27
ATOM     27  C   UNL     1      -9.058  -1.305  -4.143  0.00  0.00    +0.015 A 
ATOM     28  C   UNL     1     -10.033  -0.410  -4.590  0.00  0.00    +0.043 A 
ATOM     29  C   UNL     1     -11.212  -0.888  -5.121  0.00  0.00    +0.127 A 
ATOM     30  C   UNL     1     -11.436  -2.251  -5.203  0.00  0.00    +0.034 A 
ATOM     31  C   UNL     1     -10.478  -3.145  -4.759  0.00  0.00    +0.023 A 
ATOM     32  C   UNL     1      -9.290  -2.681  -4.229  0.00  0.00    +0.050 A 
ATOM     33 CL   UNL     1      -8.089  -3.803  -3.671  0.00  0.00    -0.083 Cl
BRANCH  29  34
ATOM     34  N   UNL     1     -12.244   0.060  -5.599  0.00  0.00    +0.056 N 
ATOM     35  O   UNL     1     -13.288  -0.361  -6.063  0.00  0.00    -0.126 OA
ATOM     36  O   UNL     1     -12.049   1.260  -5.527  0.00  0.00    -0.126 OA
ENDBRANCH  29  34
ENDBRANCH  26  27
ENDBRANCH  23  25
ENDBRANCH  20  21
ENDBRANCH  19  20
ENDBRANCH  11  19
TORSDOF 7
