REMARK  Name = ZINC37020244
REMARK  4 active torsions:
REMARK  status: ('A' for Active; 'I' for Inactive)
REMARK    1  A    between atoms: C_5  and  O_16
REMARK    2  A    between atoms: C_6  and  N_7
REMARK    3  A    between atoms: C_8  and  C_10
REMARK    4  A    between atoms: O_16  and  C_17
REMARK                            x       y       z     vdW  Elec       q    Type
REMARK                         _______ _______ _______ _____ _____    ______ ____
ROOT
ATOM      1  C   UNL     1       0.053   1.247  -0.609  0.00  0.00    +0.047 A 
ATOM      2  C   UNL     1       1.241   1.956  -0.627  0.00  0.00    +0.044 A 
ATOM      3  C   UNL     1       2.378   1.421  -0.051  0.00  0.00    +0.039 A 
ATOM      4  C   UNL     1       2.334   0.174   0.548  0.00  0.00    +0.063 A 
ATOM      5  C   UNL     1       1.147  -0.542   0.570  0.00  0.00    +0.162 A 
ATOM      6  C   UNL     1       0.001  -0.003  -0.010  0.00  0.00    +0.078 A 
ATOM      7 BR   UNL     1       3.892  -0.553   1.335  0.00  0.00    -0.046 Br
ATOM      8 CL   UNL     1       1.304   3.521  -1.377  0.00  0.00    -0.083 Cl
ENDROOT
BRANCH   6   9
ATOM      9  N   UNL     1      -1.201  -0.723   0.010  0.00  0.00    -0.284 N 
ATOM     10  C   UNL     1      -2.374  -0.071   0.127  0.00  0.00    +0.204 C 
ATOM     11  O   UNL     1      -2.397   1.142   0.134  0.00  0.00    -0.277 OA
ATOM     12  H   UNL     1      -1.188  -1.690  -0.060  0.00  0.00    +0.155 HD
BRANCH  10  13
ATOM     13  C   UNL     1      -3.660  -0.849   0.249  0.00  0.00    +0.027 C 
ATOM     14  C   UNL     1      -3.597  -1.746   1.520  0.00  0.00    +0.060 C 
ATOM     15  S   UNL     1      -5.412  -2.006   1.760  0.00  0.00    -0.181 S 
ATOM     16  C   UNL     1      -5.972  -0.392   1.068  0.00  0.00    -0.011 C 
ATOM     17  N   UNL     1      -4.783   0.087   0.330  0.00  0.00    +0.393 N 
ATOM     18  H   UNL     1      -4.457   0.933   0.773  0.00  0.00    -0.084 HD
ATOM     19  H   UNL     1      -5.070   0.317  -0.609  0.00  0.00    -0.084 HD
ENDBRANCH  10  13
ENDBRANCH   6   9
BRANCH   5  20
ATOM     20  O   UNL     1       1.102  -1.768   1.158  0.00  0.00    -0.431 OA
BRANCH  20  21
ATOM     21  C   UNL     1       0.774  -1.809   2.548  0.00  0.00    +0.541 C 
ATOM     22  F   UNL     1       1.722  -1.080   3.273  0.00  0.00    -0.166 F 
ATOM     23  F   UNL     1      -0.494  -1.251   2.744  0.00  0.00    -0.166 F 
ENDBRANCH  20  21
ENDBRANCH   5  20
TORSDOF 4
