REMARK  Name = ZINC36643359
REMARK  11 active torsions:
REMARK  status: ('A' for Active; 'I' for Inactive)
REMARK    1  A    between atoms: C_1  and  C_2
REMARK    2  A    between atoms: C_2  and  C_3
REMARK    3  A    between atoms: N_12  and  C_13
REMARK    4  A    between atoms: C_13  and  C_14
REMARK    5  A    between atoms: C_14  and  C_15
REMARK    6  A    between atoms: C_15  and  N_16
REMARK    7  A    between atoms: N_16  and  C_17
REMARK    8  A    between atoms: N_16  and  C_18
REMARK    9  A    between atoms: C_19  and  C_21
REMARK   10  A    between atoms: C_24  and  S_27
REMARK   11  A    between atoms: S_27  and  N_30
REMARK                            x       y       z     vdW  Elec       q    Type
REMARK                         _______ _______ _______ _____ _____    ______ ____
ROOT
ATOM      1  C   UNL     1       1.711   0.241  -0.958  0.00  0.00    -0.046 A 
ATOM      2  C   UNL     1       0.811  -0.131  -1.947  0.00  0.00    +0.006 A 
ATOM      3  C   UNL     1       1.220  -0.795  -3.073  0.00  0.00    +0.029 A 
ATOM      4  C   UNL     1       2.582  -1.126  -3.263  0.00  0.00    +0.080 A 
ATOM      5  C   UNL     1       3.469  -0.732  -2.235  0.00  0.00    +0.041 A 
ATOM      6  C   UNL     1       3.051  -0.061  -1.113  0.00  0.00    +0.021 A 
ATOM      7  S   UNL     1       5.034  -1.316  -2.841  0.00  0.00    -0.052 S 
ATOM      8  C   UNL     1       4.433  -2.023  -4.369  0.00  0.00    +0.168 A 
ATOM      9  N   UNL     1       3.146  -1.773  -4.306  0.00  0.00    -0.224 NA
ATOM     10  N   UNL     1       5.144  -2.670  -5.365  0.00  0.00    -0.246 N 
ATOM     11  C   UNL     1       6.477  -2.832  -5.245  0.00  0.00    +0.252 C 
ATOM     12  O   UNL     1       7.043  -2.476  -4.230  0.00  0.00    -0.270 OA
ENDROOT
BRANCH  11  13
ATOM     13  C   UNL     1       7.250  -3.441  -6.348  0.00  0.00    +0.037 A 
ATOM     14  C   UNL     1       6.949  -3.124  -7.673  0.00  0.00    +0.015 A 
ATOM     15  C   UNL     1       7.674  -3.696  -8.698  0.00  0.00    +0.029 A 
ATOM     16  C   UNL     1       8.697  -4.583  -8.414  0.00  0.00    +0.106 A 
ATOM     17  C   UNL     1       9.001  -4.901  -7.102  0.00  0.00    +0.029 A 
ATOM     18  C   UNL     1       8.287  -4.332  -6.068  0.00  0.00    +0.015 A 
BRANCH  16  19
ATOM     19  S   UNL     1       9.618  -5.310  -9.728  0.00  0.00    +0.061 S 
ATOM     20  O   UNL     1      10.162  -6.521  -9.222  0.00  0.00    -0.153 OA
ATOM     21  O   UNL     1       8.784  -5.271 -10.878  0.00  0.00    -0.153 OA
BRANCH  19  22
ATOM     22  N   UNL     1      10.901  -4.309 -10.040  0.00  0.00    -0.172 NA
ATOM     23  C   UNL     1      10.788  -3.215 -11.016  0.00  0.00    +0.137 C 
ATOM     24  C   UNL     1      11.286  -1.924 -10.356  0.00  0.00    +0.177 C 
ATOM     25  O   UNL     1      12.584  -2.149  -9.802  0.00  0.00    -0.377 OA
ATOM     26  C   UNL     1      12.617  -3.136  -8.768  0.00  0.00    +0.177 C 
ATOM     27  C   UNL     1      12.185  -4.485  -9.343  0.00  0.00    +0.137 C 
ENDBRANCH  19  22
ENDBRANCH  16  19
ENDBRANCH  11  13
BRANCH   1  29
ATOM     28  C   UNL     1       1.277   2.479   0.016  0.00  0.00    +0.009 C 
ATOM     29  C   UNL     1       1.232   0.971   0.270  0.00  0.00    +0.032 C 
ENDBRANCH   1  29
BRANCH  10  30
ATOM     30  C   UNL     1       4.448  -3.179  -6.549  0.00  0.00    +0.114 C 
BRANCH  30  31
ATOM     31  C   UNL     1       4.064  -2.009  -7.457  0.00  0.00    +0.001 C 
BRANCH  31  32
ATOM     32  C   UNL     1       3.474  -2.548  -8.762  0.00  0.00    -0.078 C 
BRANCH  32  33
ATOM     33  N   UNL     1       3.105  -1.424  -9.633  0.00  0.00    +0.376 N 
ATOM     34  C   UNL     1       2.650  -1.940 -10.931  0.00  0.00    -0.097 C 
ATOM     35  C   UNL     1       2.022  -0.654  -9.007  0.00  0.00    -0.097 C 
ATOM     36  H   UNL     1       3.907  -0.828  -9.771  0.00  0.00    -0.083 HD
ENDBRANCH  32  33
ENDBRANCH  31  32
ENDBRANCH  30  31
ENDBRANCH  10  30
TORSDOF 8
