REMARK  Name = ZINC36550013
REMARK  11 active torsions:
REMARK  status: ('A' for Active; 'I' for Inactive)
REMARK    1  A    between atoms: C_1  and  C_2
REMARK    2  A    between atoms: C_2  and  C_3
REMARK    3  A    between atoms: C_2  and  C_4
REMARK    4  A    between atoms: C_2  and  N_5
REMARK    5  A    between atoms: C_6  and  C_8
REMARK    6  A    between atoms: C_8  and  C_10
REMARK    7  A    between atoms: C_8  and  N_19
REMARK    8  A    between atoms: C_13  and  N_16
REMARK    9  A    between atoms: N_19  and  C_20
REMARK   10  A    between atoms: C_27  and  C_29
REMARK   11  A    between atoms: C_32  and  N_35
REMARK                            x       y       z     vdW  Elec       q    Type
REMARK                         _______ _______ _______ _____ _____    ______ ____
ROOT
ATOM      1  N   UNL     1       4.450  -0.365  -2.582  0.00  0.00    -0.250 N 
ATOM      2  C   UNL     1       5.128  -1.312  -1.902  0.00  0.00    +0.252 C 
ATOM      3  O   UNL     1       4.562  -1.973  -1.054  0.00  0.00    -0.270 OA
ENDROOT
BRANCH   1   4
ATOM      4  C   UNL     1       5.122   0.457  -3.493  0.00  0.00    +0.056 A 
ATOM      5  C   UNL     1       4.912   0.301  -4.857  0.00  0.00    +0.025 A 
ATOM      6  C   UNL     1       5.576   1.115  -5.754  0.00  0.00    +0.002 A 
ATOM      7  C   UNL     1       6.450   2.084  -5.295  0.00  0.00    +0.002 A 
ATOM      8  C   UNL     1       6.662   2.242  -3.938  0.00  0.00    +0.022 A 
ATOM      9  C   UNL     1       5.996   1.435  -3.035  0.00  0.00    +0.062 A 
ATOM     10 CL   UNL     1       6.257   1.639  -1.331  0.00  0.00    -0.082 Cl
ENDBRANCH   1   4
BRANCH   2  11
ATOM     11  C   UNL     1       6.559  -1.545  -2.188  0.00  0.00    +0.037 A 
ATOM     12  C   UNL     1       7.417  -1.968  -1.171  0.00  0.00    +0.015 A 
ATOM     13  C   UNL     1       8.752  -2.184  -1.445  0.00  0.00    +0.033 A 
ATOM     14  C   UNL     1       9.241  -1.982  -2.724  0.00  0.00    +0.126 A 
ATOM     15  C   UNL     1       8.396  -1.564  -3.736  0.00  0.00    +0.033 A 
ATOM     16  C   UNL     1       7.057  -1.350  -3.477  0.00  0.00    +0.015 A 
BRANCH  14  17
ATOM     17  N   UNL     1      10.674  -2.215  -3.010  0.00  0.00    +0.056 N 
ATOM     18  O   UNL     1      11.415  -2.581  -2.127  0.00  0.00    -0.126 OA
ATOM     19  O   UNL     1      11.104  -2.040  -4.126  0.00  0.00    -0.126 OA
ENDBRANCH  14  17
ENDBRANCH   2  11
BRANCH   1  20
ATOM     20  C   UNL     1       3.011  -0.198  -2.367  0.00  0.00    +0.198 C 
BRANCH  20  21
ATOM     21  C   UNL     1       2.465   0.787  -3.368  0.00  0.00    -0.018 A 
ATOM     22  C   UNL     1       1.389   0.439  -4.164  0.00  0.00    +0.008 A 
ATOM     23  C   UNL     1       0.888   1.343  -5.083  0.00  0.00    +0.033 A 
ATOM     24  C   UNL     1       1.462   2.594  -5.205  0.00  0.00    +0.126 A 
ATOM     25  C   UNL     1       2.537   2.942  -4.408  0.00  0.00    +0.033 A 
ATOM     26  C   UNL     1       3.035   2.040  -3.487  0.00  0.00    +0.008 A 
BRANCH  24  27
ATOM     27  N   UNL     1       0.926   3.561  -6.189  0.00  0.00    +0.056 N 
ATOM     28  O   UNL     1      -0.013   3.257  -6.886  0.00  0.00    -0.126 OA
ATOM     29  O   UNL     1       1.429   4.656  -6.296  0.00  0.00    -0.126 OA
ENDBRANCH  24  27
ENDBRANCH  20  21
BRANCH  20  31
ATOM     30  N   UNL     1       1.509   0.547  -0.548  0.00  0.00    -0.309 N 
ATOM     31  C   UNL     1       2.768   0.317  -0.972  0.00  0.00    +0.239 C 
ATOM     32  O   UNL     1       3.705   0.523  -0.230  0.00  0.00    -0.273 OA
ATOM     33  H   UNL     1       0.760   0.382  -1.142  0.00  0.00    +0.149 HD
BRANCH  30  35
ATOM     34  C   UNL     1       1.975   2.396   0.984  0.00  0.00    +0.031 C 
ATOM     35  C   UNL     1       1.273   1.048   0.808  0.00  0.00    +0.026 C 
ATOM     36  C   UNL     1       1.827   0.048   1.824  0.00  0.00    +0.031 C 
ATOM     37  C   UNL     1      -0.231   1.222   1.032  0.00  0.00    +0.031 C 
ENDBRANCH  30  35
ENDBRANCH  20  31
ENDBRANCH   1  20
TORSDOF 8
