REMARK  Name = ZINC39840293
REMARK  4 active torsions:
REMARK  status: ('A' for Active; 'I' for Inactive)
REMARK    1  A    between atoms: C_3  and  O_31
REMARK    2  A    between atoms: C_6  and  C_7
REMARK    3  A    between atoms: N_22  and  C_23
REMARK    4  A    between atoms: C_23  and  C_24
REMARK                            x       y       z     vdW  Elec       q    Type
REMARK                         _______ _______ _______ _____ _____    ______ ____
ROOT
ATOM      1  C   UNL     1      -1.179  -0.483  -0.119  0.00  0.00    +0.145 C 
ATOM      2  C   UNL     1      -1.393  -0.939   1.286  0.00  0.00    +0.072 A 
ATOM      3  C   UNL     1      -1.461  -0.191   2.546  0.00  0.00    +0.199 A 
ATOM      4  O   UNL     1      -1.516   1.025   2.597  0.00  0.00    -0.287 OA
ATOM      5  C   UNL     1      -1.457  -1.056   3.752  0.00  0.00    +0.067 A 
ATOM      6  C   UNL     1      -1.317  -0.495   5.022  0.00  0.00    +0.053 A 
ATOM      7  C   UNL     1      -1.310  -1.314   6.131  0.00  0.00    +0.124 A 
ATOM      8  C   UNL     1      -1.442  -2.690   5.981  0.00  0.00    +0.042 A 
ATOM      9  C   UNL     1      -1.583  -3.252   4.733  0.00  0.00    +0.050 A 
ATOM     10  C   UNL     1      -1.595  -2.445   3.596  0.00  0.00    +0.140 A 
ATOM     11  O   UNL     1      -1.745  -3.023   2.382  0.00  0.00    -0.450 OA
ATOM     12  C   UNL     1      -1.531  -2.298   1.267  0.00  0.00    +0.199 A 
ATOM     13  C   UNL     1      -1.405  -2.755  -0.129  0.00  0.00    +0.283 C 
ATOM     14  O   UNL     1      -1.476  -3.913  -0.491  0.00  0.00    -0.267 OA
ATOM     15  N   UNL     1      -1.201  -1.700  -0.946  0.00  0.00    -0.281 N 
ATOM     16  F   UNL     1      -1.175  -0.780   7.364  0.00  0.00    -0.205 F 
ENDROOT
BRANCH   1  22
ATOM     17  C   UNL     1       0.211   1.576  -0.426  0.00  0.00    +0.009 A 
ATOM     18  C   UNL     1       1.433   2.210  -0.541  0.00  0.00    +0.046 A 
ATOM     19  C   UNL     1       2.605   1.472  -0.473  0.00  0.00    +0.117 A 
ATOM     20  C   UNL     1       2.547   0.098  -0.290  0.00  0.00    +0.046 A 
ATOM     21  C   UNL     1       1.323  -0.532  -0.177  0.00  0.00    +0.009 A 
ATOM     22  C   UNL     1       0.156   0.206  -0.244  0.00  0.00    -0.022 A 
BRANCH  19  23
ATOM     23  O   UNL     1       3.808   2.093  -0.586  0.00  0.00    -0.507 OA
ATOM     24  H   UNL     1       4.179   2.389   0.257  0.00  0.00    +0.292 HD
ENDBRANCH  19  23
ENDBRANCH   1  22
BRANCH  15  25
ATOM     25  C   UNL     1      -1.032  -1.756  -2.401  0.00  0.00    +0.140 C 
BRANCH  25  26
ATOM     26  C   UNL     1      -2.378  -1.503  -3.081  0.00  0.00    +0.136 C 
ATOM     27  C   UNL     1      -2.215  -1.524  -4.622  0.00  0.00    +0.035 C 
ATOM     28  C   UNL     1      -3.655  -1.901  -5.065  0.00  0.00    +0.031 C 
ATOM     29  C   UNL     1      -4.112  -2.842  -3.930  0.00  0.00    +0.160 C 
ATOM     30  O   UNL     1      -3.296  -2.567  -2.784  0.00  0.00    -0.375 OA
ENDBRANCH  25  26
ENDBRANCH  15  25
TORSDOF 4
