REMARK  Name = ZINC08789565
REMARK  7 active torsions:
REMARK  status: ('A' for Active; 'I' for Inactive)
REMARK    1  A    between atoms: C_1  and  C_2
REMARK    2  A    between atoms: C_2  and  C_4
REMARK    3  A    between atoms: C_2  and  O_34
REMARK    4  A    between atoms: N_12  and  C_15
REMARK    5  A    between atoms: C_15  and  C_16
REMARK    6  A    between atoms: C_21  and  O_22
REMARK    7  A    between atoms: O_22  and  C_23
REMARK                            x       y       z     vdW  Elec       q    Type
REMARK                         _______ _______ _______ _____ _____    ______ ____
ROOT
ATOM      1  C   UNL     1      -0.019   1.540   0.011  0.00  0.00    -0.028 C 
ATOM      2  C   UNL     1       0.002  -0.004   0.002  0.00  0.00    +0.075 C 
ATOM      3  C   UNL     1       1.376  -0.380  -0.620  0.00  0.00    +0.088 C 
ATOM      4  C   UNL     1       0.998  -1.048  -1.922  0.00  0.00    +0.225 C 
ATOM      5  O   UNL     1       1.780  -1.498  -2.732  0.00  0.00    -0.275 OA
ATOM      6  N   UNL     1      -0.335  -1.066  -2.042  0.00  0.00    -0.237 N 
ATOM      7  C   UNL     1      -0.992  -0.508  -1.020  0.00  0.00    +0.224 C 
ATOM      8  O   UNL     1      -2.197  -0.419  -0.927  0.00  0.00    -0.275 OA
ATOM      9  C   UNL     1       2.053   0.966  -0.905  0.00  0.00    +0.050 C 
ATOM     10  C   UNL     1       3.537   0.896  -0.680  0.00  0.00    -0.028 A 
ATOM     11  C   UNL     1       4.317   0.588   0.412  0.00  0.00    +0.004 A 
ATOM     12  C   UNL     1       5.696   0.608   0.306  0.00  0.00    +0.000 A 
ATOM     13  C   UNL     1       6.288   0.940  -0.899  0.00  0.00    +0.002 A 
ATOM     14  C   UNL     1       5.511   1.251  -1.995  0.00  0.00    +0.023 A 
ATOM     15  C   UNL     1       4.122   1.232  -1.897  0.00  0.00    +0.036 A 
ATOM     16  N   UNL     1       3.136   1.503  -2.848  0.00  0.00    -0.286 N 
ATOM     17  C   UNL     1       1.894   1.368  -2.345  0.00  0.00    +0.211 C 
ATOM     18  O   UNL     1       0.850   1.537  -2.939  0.00  0.00    -0.277 OA
ATOM     19  H   UNL     1       3.324   1.758  -3.765  0.00  0.00    +0.155 HD
ATOM     20  N   UNL     1       1.397   1.912  -0.019  0.00  0.00    +0.396 N 
ATOM     21  H   UNL     1       1.800   1.853   0.924  0.00  0.00    -0.083 HD
ATOM     22  H   UNL     1       1.505   2.868  -0.378  0.00  0.00    -0.083 HD
ENDROOT
BRANCH   1  24
ATOM     23  C   UNL     1      -0.715   3.586   1.264  0.00  0.00    +0.036 C 
ATOM     24  C   UNL     1      -0.706   2.056   1.276  0.00  0.00    +0.098 C 
BRANCH  24  25
ATOM     25  O   UNL     1       0.005   1.593   2.426  0.00  0.00    -0.394 OA
ATOM     26  H   UNL     1       0.926   1.885   2.463  0.00  0.00    +0.210 HD
ENDBRANCH  24  25
ENDBRANCH   1  24
BRANCH   6  27
ATOM     27  C   UNL     1      -1.018  -1.650  -3.199  0.00  0.00    +0.155 C 
BRANCH  27  28
ATOM     28  C   UNL     1      -1.294  -3.108  -2.936  0.00  0.00    +0.012 A 
ATOM     29  C   UNL     1      -0.469  -4.077  -3.475  0.00  0.00    +0.009 A 
ATOM     30  C   UNL     1      -0.722  -5.414  -3.233  0.00  0.00    +0.001 A 
ATOM     31  C   UNL     1      -1.801  -5.786  -2.453  0.00  0.00    +0.004 A 
ATOM     32  C   UNL     1      -2.629  -4.822  -1.912  0.00  0.00    +0.046 A 
ATOM     33  C   UNL     1      -2.374  -3.479  -2.149  0.00  0.00    +0.125 A 
BRANCH  33  34
ATOM     34  O   UNL     1      -3.184  -2.528  -1.613  0.00  0.00    -0.495 OA
ATOM     35  C   UNL     1      -4.277  -2.982  -0.813  0.00  0.00    +0.277 C 
ENDBRANCH  33  34
ENDBRANCH  27  28
ENDBRANCH   6  27
TORSDOF 5
