REMARK  Name = ZINC36494354
REMARK  11 active torsions:
REMARK  status: ('A' for Active; 'I' for Inactive)
REMARK    1  A    between atoms: C_1  and  C_2
REMARK    2  A    between atoms: C_5  and  S_8
REMARK    3  A    between atoms: S_8  and  C_11
REMARK    4  A    between atoms: C_11  and  N_12
REMARK    5  A    between atoms: C_13  and  C_15
REMARK    6  A    between atoms: C_15  and  C_17
REMARK    7  A    between atoms: C_15  and  N_24
REMARK    8  A    between atoms: C_21  and  O_23
REMARK    9  A    between atoms: N_24  and  C_25
REMARK   10  A    between atoms: C_25  and  C_26
REMARK   11  A    between atoms: C_31  and  C_33
REMARK                            x       y       z     vdW  Elec       q    Type
REMARK                         _______ _______ _______ _____ _____    ______ ____
ROOT
ATOM      1  C   UNL     1       5.230  -5.642   4.355  0.00  0.00    +0.193 C 
ENDROOT
BRANCH   1   2
ATOM      2  C   UNL     1       6.246  -5.502   5.459  0.00  0.00    -0.015 A 
ATOM      3  C   UNL     1       6.210  -6.358   6.544  0.00  0.00    +0.006 A 
ATOM      4  C   UNL     1       7.141  -6.231   7.558  0.00  0.00    +0.004 A 
ATOM      5  C   UNL     1       8.111  -5.249   7.489  0.00  0.00    +0.045 A 
ATOM      6  C   UNL     1       8.149  -4.389   6.401  0.00  0.00    +0.117 A 
ATOM      7  C   UNL     1       7.217  -4.522   5.382  0.00  0.00    +0.051 A 
BRANCH   6   8
ATOM      8  O   UNL     1       9.101  -3.422   6.331  0.00  0.00    -0.507 OA
ATOM      9  H   UNL     1       9.914  -3.701   5.888  0.00  0.00    +0.292 HD
ENDBRANCH   6   8
ENDBRANCH   1   2
BRANCH   1  11
ATOM     10  N   UNL     1       6.449  -7.473   3.223  0.00  0.00    -0.294 N 
ATOM     11  C   UNL     1       5.303  -7.033   3.779  0.00  0.00    +0.239 C 
ATOM     12  O   UNL     1       4.330  -7.756   3.815  0.00  0.00    -0.273 OA
ATOM     13  H   UNL     1       7.227  -6.894   3.194  0.00  0.00    +0.150 HD
BRANCH  10  14
ATOM     14  C   UNL     1       6.520  -8.825   2.663  0.00  0.00    +0.278 C 
BRANCH  14  15
ATOM     15  S   UNL     1       6.189  -8.759   0.881  0.00  0.00    +0.013 S 
ATOM     16  O   UNL     1       5.038  -7.965   0.626  0.00  0.00    -0.168 OA
ATOM     17  O   UNL     1       6.316 -10.054   0.311  0.00  0.00    -0.168 OA
BRANCH  15  22
ATOM     18  C   UNL     1      10.778  -5.601  -1.437  0.00  0.00    +0.044 C 
ATOM     19  C   UNL     1       9.632  -6.390  -0.858  0.00  0.00    -0.050 A 
ATOM     20  C   UNL     1       9.726  -7.764  -0.744  0.00  0.00    +0.005 A 
ATOM     21  C   UNL     1       8.675  -8.488  -0.213  0.00  0.00    +0.027 A 
ATOM     22  C   UNL     1       7.529  -7.837   0.205  0.00  0.00    +0.090 A 
ATOM     23  C   UNL     1       7.435  -6.462   0.092  0.00  0.00    +0.027 A 
ATOM     24  C   UNL     1       8.489  -5.738  -0.435  0.00  0.00    +0.005 A 
ENDBRANCH  15  22
ENDBRANCH  14  15
ENDBRANCH  10  14
ENDBRANCH   1  11
BRANCH   1  25
ATOM     25  N   UNL     1       3.888  -5.407   4.894  0.00  0.00    -0.278 N 
ATOM     26  C   UNL     1       3.154  -4.370   4.446  0.00  0.00    +0.220 C 
ATOM     27  O   UNL     1       3.635  -3.581   3.660  0.00  0.00    -0.275 OA
BRANCH  26  28
ATOM     28  C   UNL     1       1.735  -4.189   4.920  0.00  0.00    +0.075 C 
ATOM     29  C   UNL     1       0.801  -5.062   4.079  0.00  0.00    +0.013 C 
ATOM     30  C   UNL     1      -0.639  -4.879   4.561  0.00  0.00    +0.001 C 
ATOM     31  C   UNL     1      -1.044  -3.411   4.415  0.00  0.00    +0.000 C 
ATOM     32  C   UNL     1      -0.110  -2.538   5.256  0.00  0.00    +0.001 C 
ATOM     33  C   UNL     1       1.331  -2.721   4.774  0.00  0.00    +0.013 C 
ENDBRANCH  26  28
BRANCH  25  34
ATOM     34  C   UNL     1       3.344  -6.299   5.921  0.00  0.00    +0.183 C 
BRANCH  34  35
ATOM     35  C   UNL     1       3.532  -5.674   7.280  0.00  0.00    +0.122 A 
ATOM     36  C   UNL     1       2.748  -5.878   8.354  0.00  0.00    +0.046 A 
ATOM     37  C   UNL     1       3.285  -5.101   9.406  0.00  0.00    +0.041 A 
ATOM     38  C   UNL     1       4.365  -4.469   8.912  0.00  0.00    +0.195 A 
ATOM     39  O   UNL     1       4.513  -4.825   7.625  0.00  0.00    -0.466 OA
ENDBRANCH  34  35
ENDBRANCH  25  34
ENDBRANCH   1  25
TORSDOF 10
