REMARK  Name = ZINC02709617
REMARK  7 active torsions:
REMARK  status: ('A' for Active; 'I' for Inactive)
REMARK    1  A    between atoms: C_1  and  C_2
REMARK    2  A    between atoms: C_3  and  C_30
REMARK    3  A    between atoms: C_5  and  N_22
REMARK    4  A    between atoms: C_6  and  C_7
REMARK    5  A    between atoms: C_7  and  C_9
REMARK    6  A    between atoms: C_7  and  N_15
REMARK    7  A    between atoms: C_23  and  C_25
REMARK                            x       y       z     vdW  Elec       q    Type
REMARK                         _______ _______ _______ _____ _____    ______ ____
ROOT
ATOM      1  C   UNL     1       0.171   1.502   0.166  0.00  0.00    +0.045 C 
ATOM      2  C   UNL     1       0.172  -0.001   0.045  0.00  0.00    -0.033 A 
ATOM      3  C   UNL     1       0.244  -0.591  -1.172  0.00  0.00    -0.008 A 
ATOM      4  S   UNL     1       0.210  -2.325  -0.748  0.00  0.00    -0.078 S 
ATOM      5  C   UNL     1       0.103  -2.149   1.025  0.00  0.00    +0.078 A 
ATOM      6  C   UNL     1       0.105  -0.795   1.175  0.00  0.00    +0.009 A 
ATOM      7  C   UNL     1       0.330   0.050  -2.533  0.00  0.00    +0.052 C 
ENDROOT
BRANCH   5   8
ATOM      8  N   UNL     1       0.038  -3.142   2.005  0.00  0.00    -0.273 N 
ATOM      9  C   UNL     1      -0.042  -4.439   1.646  0.00  0.00    +0.284 C 
ATOM     10  O   UNL     1      -0.058  -4.745   0.468  0.00  0.00    -0.266 OA
ATOM     11  H   UNL     1       0.051  -2.899   2.944  0.00  0.00    +0.156 HD
BRANCH   9  12
ATOM     12  C   UNL     1      -0.110  -5.481   2.675  0.00  0.00    +0.189 A 
ATOM     13  C   UNL     1      -0.188  -6.826   2.451  0.00  0.00    +0.054 A 
ATOM     14  C   UNL     1      -0.232  -7.444   3.711  0.00  0.00    +0.042 A 
ATOM     15  C   UNL     1      -0.179  -6.461   4.637  0.00  0.00    +0.196 A 
ATOM     16  O   UNL     1      -0.100  -5.281   4.009  0.00  0.00    -0.458 OA
ENDBRANCH   9  12
ENDBRANCH   5   8
BRANCH   6  17
ATOM     17  C   UNL     1       0.030  -0.174   2.546  0.00  0.00    +0.135 C 
BRANCH  17  18
ATOM     18  N   UNL     1      -0.926  -0.920   3.368  0.00  0.00    -0.320 N 
ATOM     19  C   UNL     1      -1.473  -0.333   4.503  0.00  0.00    +0.097 A 
ATOM     20  C   UNL     1      -1.113   0.966   4.849  0.00  0.00    +0.041 A 
ATOM     21  C   UNL     1      -1.666   1.538   5.980  0.00  0.00    +0.005 A 
ATOM     22  C   UNL     1      -2.563   0.790   6.731  0.00  0.00    +0.018 A 
ATOM     23  C   UNL     1      -2.875  -0.493   6.329  0.00  0.00    +0.084 A 
ATOM     24  N   UNL     1      -2.337  -1.012   5.242  0.00  0.00    -0.350 N 
ATOM     25  H   UNL     1      -1.177  -1.824   3.121  0.00  0.00    +0.148 HD
ATOM     26  H   UNL     1      -2.576  -1.915   4.979  0.00  0.00    +0.166 HD
ENDBRANCH  17  18
BRANCH  17  27
ATOM     27  C   UNL     1       1.391  -0.219   3.192  0.00  0.00    -0.023 A 
ATOM     28  C   UNL     1       1.877  -1.409   3.698  0.00  0.00    +0.006 A 
ATOM     29  C   UNL     1       3.125  -1.450   4.291  0.00  0.00    +0.000 A 
ATOM     30  C   UNL     1       3.887  -0.300   4.378  0.00  0.00    +0.000 A 
ATOM     31  C   UNL     1       3.401   0.891   3.871  0.00  0.00    +0.000 A 
ATOM     32  C   UNL     1       2.155   0.930   3.274  0.00  0.00    +0.006 A 
ENDBRANCH  17  27
ENDBRANCH   6  17
TORSDOF 5
