REMARK  Name = ZINC19501704
REMARK  9 active torsions:
REMARK  status: ('A' for Active; 'I' for Inactive)
REMARK    1  A    between atoms: C_1  and  C_2
REMARK    2  A    between atoms: C_2  and  C_3
REMARK    3  A    between atoms: C_3  and  C_4
REMARK    4  A    between atoms: C_10  and  C_17
REMARK    5  A    between atoms: C_14  and  C_16
REMARK    6  A    between atoms: C_17  and  C_19
REMARK    7  A    between atoms: C_17  and  O_35
REMARK    8  A    between atoms: C_19  and  N_20
REMARK    9  A    between atoms: C_29  and  C_33
REMARK                            x       y       z     vdW  Elec       q    Type
REMARK                         _______ _______ _______ _____ _____    ______ ____
ROOT
ATOM      1  C   UNL     1      -1.126   1.835   4.966  0.00  0.00    +0.128 C 
ENDROOT
BRANCH   1   8
ATOM      2  C   UNL     1      -2.868   3.012  -1.337  0.00  0.00    +0.220 C 
ATOM      3  O   UNL     1      -2.834   2.989  -2.549  0.00  0.00    -0.275 OA
ATOM      4  N   UNL     1      -1.920   2.372  -0.624  0.00  0.00    -0.268 N 
ATOM      5  C   UNL     1      -1.859   2.331   0.772  0.00  0.00    +0.040 A 
ATOM      6  C   UNL     1      -2.714   2.907   1.713  0.00  0.00    +0.024 A 
ATOM      7  C   UNL     1      -2.474   2.746   3.061  0.00  0.00    +0.008 A 
ATOM      8  C   UNL     1      -1.385   2.011   3.491  0.00  0.00    -0.021 A 
ATOM      9  C   UNL     1      -0.534   1.437   2.566  0.00  0.00    +0.011 A 
ATOM     10  C   UNL     1      -0.767   1.596   1.215  0.00  0.00    -0.024 A 
ATOM     11  C   UNL     1      -0.013   1.086   0.008  0.00  0.00    +0.059 C 
ATOM     12  C   UNL     1      -0.803   1.618  -1.199  0.00  0.00    +0.083 C 
ATOM     13  C   UNL     1       0.079   2.538  -2.046  0.00  0.00    +0.029 C 
BRANCH   2  14
ATOM     14  C   UNL     1      -3.971   3.755  -0.628  0.00  0.00    +0.096 C 
BRANCH  14  16
ATOM     15  C   UNL     1      -6.026   5.141  -0.941  0.00  0.00    +0.004 C 
ATOM     16  C   UNL     1      -4.906   4.387  -1.661  0.00  0.00    +0.006 C 
ENDBRANCH  14  16
ENDBRANCH   2  14
ENDBRANCH   1   8
BRANCH   1  17
ATOM     17  O   UNL     1      -1.508   3.025   5.661  0.00  0.00    -0.389 OA
ATOM     18  H   UNL     1      -1.391   3.084   6.753  0.00  0.00    +0.210 HD
ENDBRANCH   1  17
BRANCH   1  19
ATOM     19  C   UNL     1      -1.944   0.654   5.490  0.00  0.00    -0.042 C 
BRANCH  19  20
ATOM     20  N   UNL     1      -1.692   0.483   6.927  0.00  0.00    +0.385 N 
ATOM     21  C   UNL     1      -2.204   1.629   7.691  0.00  0.00    -0.072 C 
ATOM     22  C   UNL     1      -2.282   1.262   9.179  0.00  0.00    +0.035 C 
ATOM     23  C   UNL     1      -0.956   0.658   9.582  0.00  0.00    +0.017 A 
ATOM     24  C   UNL     1      -0.051   0.212   8.681  0.00  0.00    -0.036 A 
ATOM     25  C   UNL     1       1.081  -0.290   9.429  0.00  0.00    +0.002 A 
ATOM     26  C   UNL     1       2.296  -0.864   9.043  0.00  0.00    +0.010 A 
ATOM     27  C   UNL     1       3.155  -1.234  10.048  0.00  0.00    +0.001 A 
ATOM     28  C   UNL     1       2.845  -1.052  11.386  0.00  0.00    +0.005 A 
ATOM     29  C   UNL     1       1.651  -0.486  11.797  0.00  0.00    -0.027 A 
ATOM     30  C   UNL     1       0.758  -0.102  10.798  0.00  0.00    +0.050 A 
ATOM     31  N   UNL     1      -0.480   0.473  10.850  0.00  0.00    -0.358 N 
ATOM     32  H   UNL     1      -1.087   0.779  11.715  0.00  0.00    +0.166 HD
ATOM     33  C   UNL     1       1.330  -0.296  13.257  0.00  0.00    +0.046 C 
ATOM     34  C   UNL     1      -0.260   0.263   7.189  0.00  0.00    -0.040 C 
ATOM     35  H   UNL     1      -2.237  -0.412   7.262  0.00  0.00    -0.081 HD
ENDBRANCH  19  20
ENDBRANCH   1  19
TORSDOF 6
