REMARK  Name = ZINC59121802
REMARK  12 active torsions:
REMARK  status: ('A' for Active; 'I' for Inactive)
REMARK    1  A    between atoms: C_1  and  C_2
REMARK    2  A    between atoms: C_2  and  C_3
REMARK    3  A    between atoms: C_3  and  N_4
REMARK    4  A    between atoms: N_4  and  C_5
REMARK    5  A    between atoms: N_4  and  C_20
REMARK    6  A    between atoms: C_5  and  C_6
REMARK    7  A    between atoms: N_8  and  C_9
REMARK    8  A    between atoms: C_9  and  C_10
REMARK    9  A    between atoms: C_13  and  S_16
REMARK   10  A    between atoms: S_16  and  N_19
REMARK   11  A    between atoms: C_20  and  C_22
REMARK   12  A    between atoms: C_20  and  C_23
REMARK                            x       y       z     vdW  Elec       q    Type
REMARK                         _______ _______ _______ _____ _____    ______ ____
ROOT
ATOM      1  C   UNL     1      -2.880  -2.751  -1.672  0.00  0.00    +0.197 C 
ATOM      2  O   UNL     1      -2.115  -2.262  -2.475  0.00  0.00    -0.278 OA
ATOM      3  N   UNL     1      -4.067  -3.239  -2.083  0.00  0.00    -0.313 N 
ATOM      4  H   UNL     1      -4.679  -3.631  -1.440  0.00  0.00    +0.149 HD
ENDROOT
BRANCH   1   5
ATOM      5  C   UNL     1      -2.503  -2.814  -0.214  0.00  0.00    +0.019 C 
BRANCH   5   6
ATOM      6  N   UNL     1      -1.172  -2.222  -0.026  0.00  0.00    +0.390 N 
ATOM      7  H   UNL     1      -0.510  -2.683  -0.633  0.00  0.00    -0.080 HD
BRANCH   6   8
ATOM      8  C   UNL     1      -0.754  -2.390   1.372  0.00  0.00    -0.039 C 
ATOM      9  C   UNL     1       0.571  -1.659   1.599  0.00  0.00    -0.008 C 
BRANCH   8  10
ATOM     10  C   UNL     1      -0.576  -3.856   1.670  0.00  0.00    -0.047 A 
ATOM     11  C   UNL     1      -0.287  -4.740   0.647  0.00  0.00    +0.003 A 
ATOM     12  C   UNL     1      -0.123  -6.085   0.921  0.00  0.00    +0.000 A 
ATOM     13  C   UNL     1      -0.250  -6.547   2.218  0.00  0.00    +0.001 A 
ATOM     14  C   UNL     1      -0.539  -5.665   3.241  0.00  0.00    +0.015 A 
ATOM     15  C   UNL     1      -0.697  -4.318   2.969  0.00  0.00    +0.019 A 
ATOM     16 BR   UNL     1      -1.087  -3.108   4.369  0.00  0.00    -0.050 Br
ENDBRANCH   8  10
ENDBRANCH   6   8
BRANCH   6  17
ATOM     17  C   UNL     1      -1.222  -0.791  -0.354  0.00  0.00    -0.078 C 
BRANCH  17  19
ATOM     18  C   UNL     1      -2.212   1.414   0.281  0.00  0.00    +0.002 C 
ATOM     19  C   UNL     1      -2.133  -0.071   0.642  0.00  0.00    -0.022 C 
ENDBRANCH  17  19
ENDBRANCH   6  17
ENDBRANCH   5   6
ENDBRANCH   1   5
BRANCH   3  20
ATOM     20  C   UNL     1      -4.433  -3.179  -3.500  0.00  0.00    +0.139 C 
BRANCH  20  21
ATOM     21  C   UNL     1      -5.799  -3.786  -3.692  0.00  0.00    -0.030 A 
ATOM     22  C   UNL     1      -5.924  -5.138  -3.950  0.00  0.00    +0.007 A 
ATOM     23  C   UNL     1      -7.177  -5.695  -4.127  0.00  0.00    +0.029 A 
ATOM     24  C   UNL     1      -8.305  -4.900  -4.045  0.00  0.00    +0.105 A 
ATOM     25  C   UNL     1      -8.180  -3.548  -3.786  0.00  0.00    +0.029 A 
ATOM     26  C   UNL     1      -6.927  -2.992  -3.605  0.00  0.00    +0.007 A 
BRANCH  24  27
ATOM     27  S   UNL     1      -9.901  -5.610  -4.271  0.00  0.00    +0.056 S 
ATOM     28  O   UNL     1     -10.759  -4.556  -4.686  0.00  0.00    -0.153 OA
ATOM     29  O   UNL     1      -9.716  -6.789  -5.041  0.00  0.00    -0.153 OA
BRANCH  27  30
ATOM     30  N   UNL     1     -10.436  -6.096  -2.781  0.00  0.00    -0.204 NA
ATOM     31  H   UNL     1     -11.386  -6.103  -2.585  0.00  0.00    +0.144 HD
ATOM     32  H   UNL     1      -9.800  -6.375  -2.104  0.00  0.00    +0.144 HD
ENDBRANCH  27  30
ENDBRANCH  24  27
ENDBRANCH  20  21
ENDBRANCH   3  20
TORSDOF 10
