REMARK  Name = ZINC66657027
REMARK  6 active torsions:
REMARK  status: ('A' for Active; 'I' for Inactive)
REMARK    1  A    between atoms: C_3  and  C_5
REMARK    2  A    between atoms: C_5  and  N_6
REMARK    3  A    between atoms: C_7  and  C_9
REMARK    4  A    between atoms: C_9  and  N_10
REMARK    5  A    between atoms: C_13  and  C_16
REMARK    6  A    between atoms: C_21  and  C_24
REMARK                            x       y       z     vdW  Elec       q    Type
REMARK                         _______ _______ _______ _____ _____    ______ ____
ROOT
ATOM      1  N   UNL     1       3.912  -5.489   0.838  0.00  0.00    +0.385 N 
ATOM      2  C   UNL     1       5.282  -5.009   1.054  0.00  0.00    -0.077 C 
ATOM      3  C   UNL     1       6.276  -5.996   0.438  0.00  0.00    -0.006 C 
ATOM      4  C   UNL     1       6.103  -7.366   1.101  0.00  0.00    +0.072 C 
ATOM      5  C   UNL     1       4.651  -7.824   0.934  0.00  0.00    -0.006 C 
ATOM      6  C   UNL     1       3.717  -6.769   1.531  0.00  0.00    -0.077 C 
ATOM      7  H   UNL     1       3.754  -5.616  -0.151  0.00  0.00    -0.081 HD
ENDROOT
BRANCH   4   8
ATOM      8  C   UNL     1       7.024  -8.363   0.446  0.00  0.00    +0.219 C 
ATOM      9  O   UNL     1       7.257  -8.283  -0.742  0.00  0.00    -0.275 OA
ATOM     10  N   UNL     1       7.589  -9.342   1.180  0.00  0.00    -0.301 N 
ATOM     11  C   UNL     1       7.221  -9.527   2.590  0.00  0.00    +0.108 C 
ATOM     12  C   UNL     1       6.792 -10.982   2.801  0.00  0.00    +0.032 C 
ATOM     13  C   UNL     1       7.904 -11.914   2.313  0.00  0.00    +0.078 C 
ATOM     14  C   UNL     1       8.139 -11.691   0.818  0.00  0.00    +0.032 C 
ATOM     15  C   UNL     1       8.580 -10.248   0.583  0.00  0.00    +0.108 C 
BRANCH  13  16
ATOM     16  C   UNL     1       7.499 -13.346   2.550  0.00  0.00    +0.214 C 
ATOM     17  O   UNL     1       6.426 -13.597   3.058  0.00  0.00    -0.276 OA
ATOM     18  N   UNL     1       8.328 -14.348   2.197  0.00  0.00    -0.329 N 
ATOM     19  H   UNL     1       9.185 -14.148   1.790  0.00  0.00    +0.145 HD
ATOM     20  H   UNL     1       8.067 -15.270   2.349  0.00  0.00    +0.145 HD
ENDBRANCH  13  16
ENDBRANCH   4   8
BRANCH   1  21
ATOM     21  C   UNL     1       2.959  -4.501   1.361  0.00  0.00    +0.019 C 
BRANCH  21  23
ATOM     22  N   UNL     1       2.291  -2.170   0.871  0.00  0.00    -0.317 N 
ATOM     23  C   UNL     1       3.073  -3.225   0.568  0.00  0.00    +0.196 C 
ATOM     24  O   UNL     1       3.869  -3.146  -0.344  0.00  0.00    -0.278 OA
ATOM     25  H   UNL     1       1.654  -2.233   1.600  0.00  0.00    +0.149 HD
BRANCH  22  26
ATOM     26  C   UNL     1       2.401  -0.930   0.100  0.00  0.00    +0.107 C 
BRANCH  26  29
ATOM     27  C   UNL     1      -0.007   1.542   0.010  0.00  0.00    +0.001 C 
ATOM     28  C   UNL     1       1.530   1.482  -0.018  0.00  0.00    +0.005 C 
ATOM     29  C   UNL     1       1.409   0.100   0.645  0.00  0.00    +0.006 C 
ATOM     30  C   UNL     1       0.012   0.004   0.011  0.00  0.00    +0.005 C 
ENDBRANCH  26  29
ENDBRANCH  22  26
ENDBRANCH  21  23
ENDBRANCH   1  21
TORSDOF 6
