REMARK  Name = ZINC63659341
REMARK  13 active torsions:
REMARK  status: ('A' for Active; 'I' for Inactive)
REMARK    1  A    between atoms: C_1  and  C_2
REMARK    2  A    between atoms: C_6  and  N_9
REMARK    3  A    between atoms: C_7  and  C_8
REMARK    4  A    between atoms: N_9  and  C_10
REMARK    5  A    between atoms: C_10  and  N_12
REMARK    6  A    between atoms: N_12  and  C_13
REMARK    7  A    between atoms: N_12  and  C_28
REMARK    8  A    between atoms: C_13  and  C_14
REMARK    9  A    between atoms: C_14  and  C_15
REMARK   10  A    between atoms: C_18  and  O_26
REMARK   11  A    between atoms: C_23  and  C_25
REMARK   12  A    between atoms: O_26  and  C_27
REMARK   13  A    between atoms: C_28  and  C_29
REMARK                            x       y       z     vdW  Elec       q    Type
REMARK                         _______ _______ _______ _____ _____    ______ ____
ROOT
ATOM      1  N   UNL     1      -0.119  -4.819   3.548  0.00  0.00    -0.305 N 
ENDROOT
BRANCH   1   2
ATOM      2  C   UNL     1      -0.032  -4.143   2.385  0.00  0.00    +0.138 C 
ATOM      3  S   UNL     1      -0.028  -4.992   0.899  0.00  0.00    -0.018 S 
BRANCH   2   4
ATOM      4  N   UNL     1       0.051  -2.797   2.392  0.00  0.00    -0.297 N 
ATOM      5  H   UNL     1       0.129  -2.321   3.233  0.00  0.00    +0.154 HD
BRANCH   4  11
ATOM      6  C   UNL     1       1.866   0.777  -0.454  0.00  0.00    +0.044 C 
ATOM      7  C   UNL     1       0.895  -0.351  -0.220  0.00  0.00    -0.046 A 
ATOM      8  C   UNL     1      -0.023  -0.686  -1.198  0.00  0.00    +0.004 A 
ATOM      9  C   UNL     1      -0.916  -1.721  -0.988  0.00  0.00    +0.002 A 
ATOM     10  C   UNL     1      -0.894  -2.423   0.202  0.00  0.00    +0.023 A 
ATOM     11  C   UNL     1       0.026  -2.088   1.187  0.00  0.00    +0.036 A 
ATOM     12  C   UNL     1       0.926  -1.052   0.969  0.00  0.00    -0.026 A 
ATOM     13  C   UNL     1       1.931  -0.691   2.032  0.00  0.00    +0.046 C 
ENDBRANCH   4  11
ENDBRANCH   2   4
ENDBRANCH   1   2
BRANCH   1  14
ATOM     14  C   UNL     1      -0.210  -6.281   3.540  0.00  0.00    +0.111 C 
BRANCH  14  15
ATOM     15  C   UNL     1       1.197  -6.879   3.593  0.00  0.00    +0.052 C 
BRANCH  15  16
ATOM     16  C   UNL     1       1.104  -8.383   3.584  0.00  0.00    -0.037 C 
ATOM     17  C   UNL     1      -0.024  -9.127   3.533  0.00  0.00    +0.003 A 
ATOM     18  C   UNL     1      -1.447  -8.776   3.471  0.00  0.00    +0.055 A 
ATOM     19  C   UNL     1      -2.376  -9.760   3.429  0.00  0.00    +0.121 A 
ATOM     20  C   UNL     1      -2.028 -11.122   3.440  0.00  0.00    +0.047 A 
ATOM     21  C   UNL     1      -0.747 -11.544   3.496  0.00  0.00    +0.029 A 
ATOM     22  C   UNL     1       0.342 -10.563   3.545  0.00  0.00    +0.043 A 
ATOM     23  N   UNL     1       1.643 -10.700   3.602  0.00  0.00    -0.378 N 
ATOM     24  C   UNL     1       2.253  -9.366   3.626  0.00  0.00    +0.103 C 
ATOM     25  C   UNL     1       3.156  -9.173   2.406  0.00  0.00    +0.035 C 
ATOM     26  H   UNL     1       2.123 -11.543   3.622  0.00  0.00    +0.160 HD
BRANCH  19  27
ATOM     27  O   UNL     1      -3.691  -9.419   3.373  0.00  0.00    -0.495 OA
ATOM     28  C   UNL     1      -4.637 -10.489   3.329  0.00  0.00    +0.277 C 
ENDBRANCH  19  27
ENDBRANCH  15  16
ENDBRANCH  14  15
ENDBRANCH   1  14
BRANCH   1  29
ATOM     29  C   UNL     1      -0.123  -4.091   4.819  0.00  0.00    +0.181 C 
BRANCH  29  30
ATOM     30  C   UNL     1      -1.541  -3.753   5.201  0.00  0.00    +0.122 A 
ATOM     31  C   UNL     1      -2.359  -4.520   5.945  0.00  0.00    +0.046 A 
ATOM     32  C   UNL     1      -3.585  -3.824   6.054  0.00  0.00    +0.041 A 
ATOM     33  C   UNL     1      -3.442  -2.674   5.371  0.00  0.00    +0.195 A 
ATOM     34  O   UNL     1      -2.201  -2.634   4.861  0.00  0.00    -0.466 OA
ENDBRANCH  29  30
ENDBRANCH   1  29
TORSDOF 9
