REMARK  Name = ZINC35104652
REMARK  13 active torsions:
REMARK  status: ('A' for Active; 'I' for Inactive)
REMARK    1  A    between atoms: C_1  and  C_2
REMARK    2  A    between atoms: C_2  and  C_3
REMARK    3  A    between atoms: C_2  and  C_4
REMARK    4  A    between atoms: C_2  and  C_5
REMARK    5  A    between atoms: C_5  and  C_6
REMARK    6  A    between atoms: C_6  and  C_7
REMARK    7  A    between atoms: C_6  and  C_8
REMARK    8  A    between atoms: C_6  and  N_9
REMARK    9  A    between atoms: N_9  and  C_10
REMARK   10  A    between atoms: C_11  and  C_27
REMARK   11  A    between atoms: C_18  and  O_19
REMARK   12  A    between atoms: O_19  and  C_20
REMARK   13  A    between atoms: C_20  and  C_21
REMARK                            x       y       z     vdW  Elec       q    Type
REMARK                         _______ _______ _______ _____ _____    ______ ____
ROOT
ATOM      1  C   UNL     1       4.948   0.382  -3.385  0.00  0.00    +0.129 A 
ATOM      2  C   UNL     1       5.848   0.380  -4.431  0.00  0.00    +0.090 A 
ATOM      3  N   UNL     1       6.989   0.945  -3.998  0.00  0.00    -0.335 N 
ATOM      4  C   UNL     1       6.848   1.301  -2.732  0.00  0.00    +0.160 A 
ATOM      5  N   UNL     1       5.578   0.967  -2.322  0.00  0.00    -0.286 N 
ATOM      6  C   UNL     1       5.170   1.236  -1.041  0.00  0.00    +0.094 A 
ATOM      7  C   UNL     1       6.001   1.835  -0.166  0.00  0.00    +0.022 A 
ATOM      8  C   UNL     1       7.305   2.193  -0.553  0.00  0.00    +0.051 A 
ATOM      9  C   UNL     1       7.732   1.925  -1.820  0.00  0.00    +0.162 A 
ATOM     10  H   UNL     1       7.790   1.071  -4.531  0.00  0.00    +0.167 HD
ENDROOT
BRANCH   2  11
ATOM     11  C   UNL     1       5.601  -0.152  -5.791  0.00  0.00    +0.037 A 
ATOM     12  C   UNL     1       6.318  -1.255  -6.253  0.00  0.00    +0.013 A 
ATOM     13  C   UNL     1       6.083  -1.747  -7.521  0.00  0.00    +0.001 A 
ATOM     14  C   UNL     1       5.138  -1.148  -8.335  0.00  0.00    +0.003 A 
ATOM     15  C   UNL     1       4.422  -0.053  -7.885  0.00  0.00    +0.039 A 
ATOM     16  C   UNL     1       4.644   0.445  -6.615  0.00  0.00    +0.133 A 
ATOM     17  F   UNL     1       3.941   1.511  -6.173  0.00  0.00    -0.205 F 
ENDBRANCH   2  11
BRANCH   1  18
ATOM     18  N   UNL     1       3.643  -0.112  -3.409  0.00  0.00    -0.323 N 
ATOM     19  H   UNL     1       3.291  -0.512  -4.220  0.00  0.00    +0.148 HD
BRANCH  18  20
ATOM     20  C   UNL     1       2.805  -0.027  -2.211  0.00  0.00    +0.028 C 
ATOM     21  C   UNL     1       2.661   1.437  -1.792  0.00  0.00    +0.031 C 
ATOM     22  C   UNL     1       3.456  -0.820  -1.076  0.00  0.00    +0.031 C 
BRANCH  20  23
ATOM     23  C   UNL     1       1.423  -0.610  -2.513  0.00  0.00    +0.031 C 
BRANCH  23  25
ATOM     24  C   UNL     1       1.546  -1.149  -4.949  0.00  0.00    +0.010 C 
ATOM     25  C   UNL     1       0.981  -0.176  -3.912  0.00  0.00    -0.036 C 
ATOM     26  C   UNL     1       1.503   1.234  -4.197  0.00  0.00    +0.010 C 
ATOM     27  C   UNL     1      -0.547  -0.180  -3.988  0.00  0.00    +0.010 C 
ENDBRANCH  23  25
ENDBRANCH  20  23
ENDBRANCH  18  20
ENDBRANCH   1  18
BRANCH   9  28
ATOM     28  O   UNL     1       8.989   2.268  -2.208  0.00  0.00    -0.484 OA
BRANCH  28  29
ATOM     29  C   UNL     1       9.821   2.894  -1.230  0.00  0.00    +0.264 C 
BRANCH  29  30
ATOM     30  C   UNL     1      11.167   3.199  -1.836  0.00  0.00    -0.010 A 
ATOM     31  C   UNL     1      12.182   2.263  -1.773  0.00  0.00    +0.007 A 
ATOM     32  C   UNL     1      13.416   2.543  -2.329  0.00  0.00    +0.000 A 
ATOM     33  C   UNL     1      13.634   3.759  -2.950  0.00  0.00    +0.000 A 
ATOM     34  C   UNL     1      12.619   4.695  -3.014  0.00  0.00    +0.000 A 
ATOM     35  C   UNL     1      11.383   4.413  -2.461  0.00  0.00    +0.007 A 
ENDBRANCH  29  30
ENDBRANCH  28  29
ENDBRANCH   9  28
TORSDOF 8
