REMARK  Name = ZINC00718134
REMARK  7 active torsions:
REMARK  status: ('A' for Active; 'I' for Inactive)
REMARK    1  A    between atoms: C_1  and  C_2
REMARK    2  A    between atoms: C_2  and  C_3
REMARK    3  A    between atoms: C_15  and  C_17
REMARK    4  A    between atoms: C_21  and  O_23
REMARK    5  A    between atoms: O_23  and  C_24
REMARK    6  A    between atoms: C_28  and  C_31
REMARK    7  A    between atoms: C_34  and  C_37
REMARK                            x       y       z     vdW  Elec       q    Type
REMARK                         _______ _______ _______ _____ _____    ______ ____
ROOT
ATOM      1  C   UNL     1      -0.904   1.885   3.097  0.00  0.00    +0.220 C 
ATOM      2  O   UNL     1      -0.197   2.033   4.071  0.00  0.00    -0.275 OA
ATOM      3  N   UNL     1      -0.573   2.468   1.928  0.00  0.00    -0.258 N 
ATOM      4  C   UNL     1      -1.394   2.290   0.816  0.00  0.00    +0.058 A 
ATOM      5  C   UNL     1      -2.678   2.813   0.778  0.00  0.00    +0.025 A 
ATOM      6  C   UNL     1      -3.440   2.667  -0.367  0.00  0.00    +0.002 A 
ATOM      7  C   UNL     1      -2.929   2.006  -1.470  0.00  0.00    +0.002 A 
ATOM      8  C   UNL     1      -1.656   1.462  -1.428  0.00  0.00    +0.025 A 
ATOM      9  C   UNL     1      -0.902   1.588  -0.280  0.00  0.00    +0.053 A 
ATOM     10  N   UNL     1       0.358   1.016  -0.140  0.00  0.00    -0.316 N 
ATOM     11  C   UNL     1       1.510   1.714   0.038  0.00  0.00    +0.017 C 
ATOM     12  C   UNL     1       1.684   2.712   0.917  0.00  0.00    +0.037 C 
ATOM     13  C   UNL     1       0.630   3.269   1.847  0.00  0.00    +0.147 C 
ATOM     14  C   UNL     1       2.943   3.346   1.039  0.00  0.00    +0.163 C 
ATOM     15  O   UNL     1       3.064   4.260   1.831  0.00  0.00    -0.292 OA
ATOM     16  C   UNL     1       4.133   2.933   0.226  0.00  0.00    +0.088 C 
ATOM     17  C   UNL     1       3.984   1.452  -0.144  0.00  0.00    +0.032 C 
ATOM     18  C   UNL     1       2.651   1.288  -0.873  0.00  0.00    +0.059 C 
ATOM     19  H   UNL     1       0.420   0.048  -0.176  0.00  0.00    +0.152 HD
ENDROOT
BRANCH  17  20
ATOM     20  C   UNL     1       5.115   1.036  -1.049  0.00  0.00    -0.043 A 
ATOM     21  C   UNL     1       5.290   1.660  -2.270  0.00  0.00    +0.004 A 
ATOM     22  C   UNL     1       6.330   1.280  -3.098  0.00  0.00    +0.003 A 
ATOM     23  C   UNL     1       7.190   0.271  -2.708  0.00  0.00    -0.050 A 
ATOM     24  C   UNL     1       7.012  -0.357  -1.489  0.00  0.00    +0.003 A 
ATOM     25  C   UNL     1       5.974   0.025  -0.660  0.00  0.00    +0.004 A 
ATOM     26  C   UNL     1       8.321  -0.146  -3.612  0.00  0.00    +0.044 C 
ENDBRANCH  17  20
BRANCH  13  27
ATOM     27  C   UNL     1       0.256   4.650   1.375  0.00  0.00    -0.019 A 
ATOM     28  C   UNL     1      -0.337   4.820   0.137  0.00  0.00    +0.006 A 
ATOM     29  C   UNL     1      -0.681   6.085  -0.299  0.00  0.00    +0.004 A 
ATOM     30  C   UNL     1      -0.435   7.184   0.502  0.00  0.00    +0.045 A 
ATOM     31  C   UNL     1       0.158   7.016   1.744  0.00  0.00    +0.120 A 
ATOM     32  C   UNL     1       0.499   5.745   2.181  0.00  0.00    +0.051 A 
BRANCH  31  33
ATOM     33  O   UNL     1       0.402   8.096   2.533  0.00  0.00    -0.495 OA
ATOM     34  C   UNL     1       0.020   9.374   2.020  0.00  0.00    +0.277 C 
ENDBRANCH  31  33
ENDBRANCH  13  27
BRANCH   1  36
ATOM     35  C   UNL     1      -2.296   0.507   4.618  0.00  0.00    +0.013 C 
ATOM     36  C   UNL     1      -2.154   1.049   3.194  0.00  0.00    +0.093 C 
ENDBRANCH   1  36
TORSDOF 4
