REMARK  Name = ZINC14723392
REMARK  6 active torsions:
REMARK  status: ('A' for Active; 'I' for Inactive)
REMARK    1  A    between atoms: C_3  and  C_6
REMARK    2  A    between atoms: N_8  and  C_9
REMARK    3  A    between atoms: C_9  and  C_10
REMARK    4  A    between atoms: C_10  and  N_11
REMARK    5  A    between atoms: C_15  and  C_16
REMARK    6  A    between atoms: C_20  and  N_22
REMARK                            x       y       z     vdW  Elec       q    Type
REMARK                         _______ _______ _______ _____ _____    ______ ____
ROOT
ATOM      1  N   UNL     1       1.492  -0.255  -0.805  0.00  0.00    -0.227 N 
ATOM      2  C   UNL     1       2.351   0.692  -0.464  0.00  0.00    +0.260 C 
ATOM      3  O   UNL     1       3.526   0.447  -0.265  0.00  0.00    -0.269 OA
ATOM      4  C   UNL     1       1.809   2.061  -0.335  0.00  0.00    +0.080 C 
ATOM      5  C   UNL     1       2.443   3.213  -0.004  0.00  0.00    +0.028 C 
ATOM      6  S   UNL     1       0.090   1.780  -0.737  0.00  0.00    -0.026 S 
ATOM      7  C   UNL     1       0.190   0.020  -1.024  0.00  0.00    +0.286 C 
ATOM      8  O   UNL     1      -0.700  -0.745  -1.341  0.00  0.00    -0.262 OA
ENDROOT
BRANCH   5   9
ATOM      9  C   UNL     1       1.732   4.496  -0.102  0.00  0.00    -0.022 A 
ATOM     10  C   UNL     1       2.316   5.664   0.403  0.00  0.00    +0.009 A 
ATOM     11  C   UNL     1       1.644   6.863   0.308  0.00  0.00    +0.023 A 
ATOM     12  C   UNL     1       0.393   6.915  -0.286  0.00  0.00    +0.071 A 
ATOM     13  C   UNL     1      -0.192   5.763  -0.787  0.00  0.00    +0.145 A 
ATOM     14  C   UNL     1       0.471   4.558  -0.704  0.00  0.00    +0.042 A 
ATOM     15 CL   UNL     1      -0.445   8.431  -0.402  0.00  0.00    -0.081 Cl
BRANCH  13  16
ATOM     16  N   UNL     1      -1.529   5.830  -1.419  0.00  0.00    +0.058 N 
ATOM     17  O   UNL     1      -2.044   4.818  -1.860  0.00  0.00    -0.126 OA
ATOM     18  O   UNL     1      -2.113   6.895  -1.498  0.00  0.00    -0.126 OA
ENDBRANCH  13  16
ENDBRANCH   5   9
BRANCH   1  19
ATOM     19  C   UNL     1       1.966  -1.633  -0.949  0.00  0.00    +0.136 C 
BRANCH  19  20
ATOM     20  C   UNL     1       2.417  -1.870  -2.391  0.00  0.00    +0.124 C 
BRANCH  20  23
ATOM     21  C   UNL     1       3.340  -3.686  -3.728  0.00  0.00    +0.251 C 
ATOM     22  O   UNL     1       3.352  -2.936  -4.686  0.00  0.00    -0.270 OA
ATOM     23  N   UNL     1       2.891  -3.249  -2.535  0.00  0.00    -0.309 N 
ATOM     24  H   UNL     1       2.882  -3.847  -1.771  0.00  0.00    +0.149 HD
BRANCH  21  27
ATOM     25  C   UNL     1       4.688  -7.019  -4.853  0.00  0.00    +0.008 A 
ATOM     26  C   UNL     1       4.305  -5.708  -4.998  0.00  0.00    +0.021 A 
ATOM     27  C   UNL     1       3.815  -5.066  -3.872  0.00  0.00    +0.074 A 
ATOM     28  S   UNL     1       3.904  -6.358  -2.645  0.00  0.00    -0.092 S 
ATOM     29  C   UNL     1       4.561  -7.616  -3.639  0.00  0.00    +0.046 A 
ENDBRANCH  21  27
ENDBRANCH  20  23
ENDBRANCH  19  20
ENDBRANCH   1  19
TORSDOF 6
