REMARK  Name = ZINC41644143
REMARK  7 active torsions:
REMARK  status: ('A' for Active; 'I' for Inactive)
REMARK    1  A    between atoms: C_1  and  C_2
REMARK    2  A    between atoms: N_8  and  C_9
REMARK    3  A    between atoms: C_9  and  C_11
REMARK    4  A    between atoms: C_9  and  C_12
REMARK    5  A    between atoms: C_12  and  N_13
REMARK    6  A    between atoms: C_14  and  C_16
REMARK    7  A    between atoms: N_18  and  C_19
REMARK                            x       y       z     vdW  Elec       q    Type
REMARK                         _______ _______ _______ _____ _____    ______ ____
ROOT
ATOM      1  N   UNL     1       1.663  -2.166   3.248  0.00  0.00    -0.309 N 
ATOM      2  C   UNL     1       2.551  -2.973   3.862  0.00  0.00    +0.299 C 
ATOM      3  O   UNL     1       3.472  -2.494   4.492  0.00  0.00    -0.265 OA
ATOM      4  H   UNL     1       0.928  -2.549   2.745  0.00  0.00    +0.149 HD
ENDROOT
BRANCH   2   5
ATOM      5  C   UNL     1       2.402  -4.456   3.768  0.00  0.00    +0.303 C 
ATOM      6  O   UNL     1       1.482  -4.934   3.138  0.00  0.00    -0.265 OA
ATOM      7  N   UNL     1       3.290  -5.263   4.382  0.00  0.00    -0.273 N 
ATOM      8  H   UNL     1       3.998  -4.881   4.924  0.00  0.00    +0.155 HD
BRANCH   7   9
ATOM      9  C   UNL     1       3.191  -6.652   4.237  0.00  0.00    +0.111 A 
ATOM     10  C   UNL     1       3.195  -7.471   5.361  0.00  0.00    +0.185 A 
ATOM     11  C   UNL     1       3.095  -8.844   5.215  0.00  0.00    +0.198 A 
ATOM     12  C   UNL     1       2.992  -9.403   3.951  0.00  0.00    +0.199 A 
ATOM     13  C   UNL     1       2.988  -8.588   2.829  0.00  0.00    +0.198 A 
ATOM     14  C   UNL     1       3.082  -7.214   2.970  0.00  0.00    +0.185 A 
ATOM     15  F   UNL     1       3.072  -6.420   1.877  0.00  0.00    -0.200 F 
ATOM     16  F   UNL     1       2.888  -9.135   1.598  0.00  0.00    -0.199 F 
ATOM     17  F   UNL     1       2.896 -10.743   3.811  0.00  0.00    -0.199 F 
ATOM     18  F   UNL     1       3.099  -9.640   6.307  0.00  0.00    -0.199 F 
ATOM     19  F   UNL     1       3.295  -6.927   6.593  0.00  0.00    -0.200 F 
ENDBRANCH   7   9
ENDBRANCH   2   5
BRANCH   1  20
ATOM     20  C   UNL     1       1.810  -0.711   3.341  0.00  0.00    +0.089 C 
BRANCH  20  21
ATOM     21  C   UNL     1       0.644  -0.035   2.617  0.00  0.00    -0.054 C 
ATOM     22  C   UNL     1       0.879   1.476   2.573  0.00  0.00    -0.012 C 
BRANCH  21  29
ATOM     23  C   UNL     1      -0.881  -2.282   1.903  0.00  0.00    -0.013 C 
ATOM     24  C   UNL     1      -0.851  -1.763   3.342  0.00  0.00    -0.071 C 
ATOM     25  C   UNL     1      -2.193  -2.053   4.016  0.00  0.00    -0.016 C 
ATOM     26  C   UNL     1      -2.158  -1.532   5.456  0.00  0.00    -0.003 C 
ATOM     27  C   UNL     1      -1.829  -0.037   5.439  0.00  0.00    -0.019 C 
ATOM     28  C   UNL     1      -0.500   0.179   4.712  0.00  0.00    -0.078 C 
ATOM     29  N   UNL     1      -0.607  -0.315   3.334  0.00  0.00    +0.384 N 
ATOM     30  H   UNL     1      -1.371   0.151   2.868  0.00  0.00    -0.081 HD
ENDBRANCH  21  29
ENDBRANCH  20  21
ENDBRANCH   1  20
TORSDOF 5
