REMARK  Name = ZINC36485140
REMARK  9 active torsions:
REMARK  status: ('A' for Active; 'I' for Inactive)
REMARK    1  A    between atoms: C_3  and  N_8
REMARK    2  A    between atoms: N_8  and  C_9
REMARK    3  A    between atoms: C_9  and  C_11
REMARK    4  A    between atoms: C_9  and  C_20
REMARK    5  A    between atoms: C_14  and  N_17
REMARK    6  A    between atoms: N_22  and  C_23
REMARK    7  A    between atoms: C_29  and  C_31
REMARK    8  A    between atoms: C_35  and  O_38
REMARK    9  A    between atoms: C_36  and  O_37
REMARK                            x       y       z     vdW  Elec       q    Type
REMARK                         _______ _______ _______ _____ _____    ______ ____
ROOT
ATOM      1  N   UNL     1       4.787   3.291  -0.471  0.00  0.00    -0.251 N 
ATOM      2  C   UNL     1       4.292   3.570   0.751  0.00  0.00    +0.255 C 
ATOM      3  O   UNL     1       3.108   3.814   0.885  0.00  0.00    -0.269 OA
ENDROOT
BRANCH   1   6
ATOM      4  C   UNL     1       2.710   3.159  -3.501  0.00  0.00    +0.003 A 
ATOM      5  C   UNL     1       3.396   2.759  -2.371  0.00  0.00    +0.023 A 
ATOM      6  C   UNL     1       4.093   3.693  -1.616  0.00  0.00    +0.039 A 
ATOM      7  C   UNL     1       4.099   5.027  -2.001  0.00  0.00    +0.043 A 
ATOM      8  C   UNL     1       3.412   5.421  -3.133  0.00  0.00    +0.043 A 
ATOM      9  C   UNL     1       2.718   4.487  -3.883  0.00  0.00    +0.020 A 
ATOM     10 CL   UNL     1       3.418   7.089  -3.615  0.00  0.00    -0.083 Cl
ENDBRANCH   1   6
BRANCH   2  11
ATOM     11  C   UNL     1       5.184   3.580   1.925  0.00  0.00    +0.082 A 
ATOM     12  C   UNL     1       6.106   2.546   2.116  0.00  0.00    +0.017 A 
ATOM     13  C   UNL     1       6.938   2.559   3.213  0.00  0.00    +0.005 A 
ATOM     14  C   UNL     1       6.869   3.593   4.132  0.00  0.00    +0.049 A 
ATOM     15  C   UNL     1       5.962   4.624   3.957  0.00  0.00    +0.159 A 
ATOM     16  C   UNL     1       5.118   4.628   2.851  0.00  0.00    +0.171 A 
BRANCH  16  17
ATOM     17  O   UNL     1       4.231   5.640   2.673  0.00  0.00    -0.503 OA
ATOM     18  H   UNL     1       3.370   5.486   3.085  0.00  0.00    +0.292 HD
ENDBRANCH  16  17
BRANCH  15  19
ATOM     19  O   UNL     1       5.899   5.636   4.864  0.00  0.00    -0.503 OA
ATOM     20  H   UNL     1       6.483   6.380   4.664  0.00  0.00    +0.292 HD
ENDBRANCH  15  19
ENDBRANCH   2  11
BRANCH   1  21
ATOM     21  C   UNL     1       6.054   2.566  -0.599  0.00  0.00    +0.197 C 
BRANCH  21  22
ATOM     22  C   UNL     1       6.656   2.841  -1.952  0.00  0.00    -0.018 A 
ATOM     23  C   UNL     1       6.077   2.307  -3.088  0.00  0.00    +0.008 A 
ATOM     24  C   UNL     1       6.630   2.560  -4.330  0.00  0.00    +0.033 A 
ATOM     25  C   UNL     1       7.761   3.348  -4.436  0.00  0.00    +0.126 A 
ATOM     26  C   UNL     1       8.339   3.883  -3.300  0.00  0.00    +0.033 A 
ATOM     27  C   UNL     1       7.784   3.634  -2.058  0.00  0.00    +0.008 A 
BRANCH  25  28
ATOM     28  N   UNL     1       8.353   3.618  -5.765  0.00  0.00    +0.056 N 
ATOM     29  O   UNL     1       7.847   3.150  -6.758  0.00  0.00    -0.126 OA
ATOM     30  O   UNL     1       9.342   4.307  -5.857  0.00  0.00    -0.126 OA
ENDBRANCH  25  28
ENDBRANCH  21  22
BRANCH  21  31
ATOM     31  C   UNL     1       5.803   1.087  -0.452  0.00  0.00    +0.239 C 
ATOM     32  O   UNL     1       4.678   0.679  -0.260  0.00  0.00    -0.273 OA
ATOM     33  N   UNL     1       6.830   0.218  -0.535  0.00  0.00    -0.311 N 
ATOM     34  H   UNL     1       7.731   0.544  -0.689  0.00  0.00    +0.149 HD
BRANCH  33  35
ATOM     35  C   UNL     1       6.586  -1.220  -0.393  0.00  0.00    +0.073 C 
ATOM     36  C   UNL     1       6.583  -1.592   1.091  0.00  0.00    +0.022 C 
ATOM     37  C   UNL     1       6.328  -3.093   1.240  0.00  0.00    +0.002 C 
ATOM     38  C   UNL     1       7.432  -3.872   0.521  0.00  0.00    +0.000 C 
ATOM     39  C   UNL     1       7.436  -3.499  -0.963  0.00  0.00    +0.002 C 
ATOM     40  C   UNL     1       7.691  -1.998  -1.111  0.00  0.00    +0.022 C 
ENDBRANCH  33  35
ENDBRANCH  21  31
ENDBRANCH   1  21
TORSDOF 9
