REMARK  Name = ZINC36206838
REMARK  18 active torsions:
REMARK  status: ('A' for Active; 'I' for Inactive)
REMARK    1  A    between atoms: C_1  and  C_2
REMARK    2  A    between atoms: C_8  and  C_19
REMARK    3  A    between atoms: C_12  and  C_13
REMARK    4  A    between atoms: C_13  and  O_15
REMARK    5  A    between atoms: O_15  and  C_16
REMARK    6  A    between atoms: C_16  and  C_17
REMARK    7  A    between atoms: C_16  and  C_18
REMARK    8  A    between atoms: C_19  and  N_20
REMARK    9  A    between atoms: N_20  and  C_21
REMARK   10  A    between atoms: N_20  and  C_34
REMARK   11  A    between atoms: C_21  and  C_22
REMARK   12  A    between atoms: C_22  and  C_24
REMARK   13  A    between atoms: C_22  and  O_33
REMARK   14  A    between atoms: C_24  and  O_25
REMARK   15  A    between atoms: O_25  and  C_26
REMARK   16  A    between atoms: C_26  and  C_27
REMARK   17  A    between atoms: C_34  and  C_35
REMARK   18  A    between atoms: C_34  and  C_36
REMARK                            x       y       z     vdW  Elec       q    Type
REMARK                         _______ _______ _______ _____ _____    ______ ____
ROOT
ATOM      1  C   UNL     1      -0.613  -3.389  -4.551  0.00  0.00    -0.003 C 
ENDROOT
BRANCH   1   9
ATOM      2  C   UNL     1      -4.463   0.507  -0.774  0.00  0.00    +0.046 C 
ATOM      3  C   UNL     1      -4.035  -0.937  -0.780  0.00  0.00    -0.015 A 
ATOM      4  C   UNL     1      -3.180  -1.410  -1.779  0.00  0.00    +0.076 A 
ATOM      5  C   UNL     1      -2.578  -0.680  -2.917  0.00  0.00    +0.260 A 
ATOM      6  O   UNL     1      -2.802   0.505  -3.089  0.00  0.00    -0.267 OA
ATOM      7  N   UNL     1      -1.775  -1.360  -3.759  0.00  0.00    -0.312 N 
ATOM      8  H   UNL     1      -1.372  -0.897  -4.510  0.00  0.00    +0.170 HD
ATOM      9  C   UNL     1      -1.518  -2.679  -3.577  0.00  0.00    +0.094 A 
ATOM     10  N   UNL     1      -2.033  -3.352  -2.584  0.00  0.00    -0.229 NA
ATOM     11  C   UNL     1      -2.837  -2.779  -1.698  0.00  0.00    +0.116 A 
ATOM     12  S   UNL     1      -3.709  -3.334  -0.255  0.00  0.00    -0.062 S 
ATOM     13  C   UNL     1      -4.476  -1.786   0.193  0.00  0.00    +0.102 A 
BRANCH  13  14
ATOM     14  C   UNL     1      -5.362  -1.499   1.323  0.00  0.00    +0.346 C 
ATOM     15  O   UNL     1      -5.803  -0.376   1.480  0.00  0.00    -0.244 OA
BRANCH  14  16
ATOM     16  O   UNL     1      -5.689  -2.479   2.190  0.00  0.00    -0.458 OA
BRANCH  16  17
ATOM     17  C   UNL     1      -6.558  -2.128   3.269  0.00  0.00    +0.171 C 
ATOM     18  C   UNL     1      -8.012  -2.338   2.843  0.00  0.00    +0.052 C 
ATOM     19  C   UNL     1      -6.249  -3.010   4.481  0.00  0.00    +0.052 C 
ENDBRANCH  16  17
ENDBRANCH  14  16
ENDBRANCH  13  14
ENDBRANCH   1   9
BRANCH   1  20
ATOM     20  N   UNL     1      -0.341  -4.748  -4.065  0.00  0.00    +0.388 N 
ATOM     21  H   UNL     1      -1.155  -5.103  -3.586  0.00  0.00    -0.081 HD
BRANCH  20  22
ATOM     22  C   UNL     1       0.799  -4.718  -3.138  0.00  0.00    -0.074 C 
ATOM     23  C   UNL     1       2.027  -4.160  -3.859  0.00  0.00    -0.014 C 
ATOM     24  C   UNL     1       0.460  -3.826  -1.942  0.00  0.00    -0.014 C 
ENDBRANCH  20  22
BRANCH  20  25
ATOM     25  C   UNL     1      -0.024  -5.621  -5.203  0.00  0.00    -0.044 C 
BRANCH  25  26
ATOM     26  C   UNL     1       0.103  -7.066  -4.718  0.00  0.00    +0.124 C 
BRANCH  26  27
ATOM     27  O   UNL     1       1.282  -7.200  -3.922  0.00  0.00    -0.391 OA
ATOM     28  H   UNL     1       2.093  -6.925  -4.371  0.00  0.00    +0.210 HD
ENDBRANCH  26  27
BRANCH  26  29
ATOM     29  C   UNL     1       0.193  -8.003  -5.924  0.00  0.00    +0.189 C 
BRANCH  29  30
ATOM     30  O   UNL     1       0.194  -9.359  -5.475  0.00  0.00    -0.373 OA
BRANCH  30  31
ATOM     31  C   UNL     1       0.276 -10.321  -6.529  0.00  0.00    +0.195 C 
BRANCH  31  32
ATOM     32  C   UNL     1       0.270 -11.710  -5.944  0.00  0.00    -0.022 A 
ATOM     33  C   UNL     1       1.461 -12.320  -5.600  0.00  0.00    +0.006 A 
ATOM     34  C   UNL     1       1.456 -13.594  -5.063  0.00  0.00    +0.000 A 
ATOM     35  C   UNL     1       0.258 -14.257  -4.870  0.00  0.00    +0.000 A 
ATOM     36  C   UNL     1      -0.933 -13.646  -5.213  0.00  0.00    +0.000 A 
ATOM     37  C   UNL     1      -0.928 -12.371  -5.746  0.00  0.00    +0.006 A 
ENDBRANCH  31  32
ENDBRANCH  30  31
ENDBRANCH  29  30
ENDBRANCH  26  29
ENDBRANCH  25  26
ENDBRANCH  20  25
ENDBRANCH   1  20
TORSDOF 13
