REMARK  Name = ZINC24726193
REMARK  7 active torsions:
REMARK  status: ('A' for Active; 'I' for Inactive)
REMARK    1  A    between atoms: C_1  and  C_2
REMARK    2  A    between atoms: C_2  and  C_3
REMARK    3  A    between atoms: C_2  and  S_16
REMARK    4  A    between atoms: N_5  and  C_6
REMARK    5  A    between atoms: S_16  and  C_17
REMARK    6  A    between atoms: C_20  and  C_24
REMARK    7  A    between atoms: C_21  and  N_23
REMARK                            x       y       z     vdW  Elec       q    Type
REMARK                         _______ _______ _______ _____ _____    ______ ____
ROOT
ATOM      1  C   UNL     1      -0.019   1.526   0.010  0.00  0.00    +0.029 C 
ATOM      2  C   UNL     1       0.002  -0.004   0.002  0.00  0.00    +0.137 C 
ENDROOT
BRANCH   2   3
ATOM      3  C   UNL     1       0.707  -0.490  -1.238  0.00  0.00    +0.227 C 
ATOM      4  O   UNL     1       0.066  -0.782  -2.225  0.00  0.00    -0.275 OA
ATOM      5  N   UNL     1       2.051  -0.601  -1.250  0.00  0.00    -0.309 N 
ATOM      6  H   UNL     1       2.563  -0.367  -0.460  0.00  0.00    +0.149 HD
BRANCH   5   7
ATOM      7  C   UNL     1       2.736  -1.073  -2.455  0.00  0.00    +0.035 C 
ATOM      8  C   UNL     1       2.433  -0.127  -3.618  0.00  0.00    +0.029 C 
ATOM      9  C   UNL     1       3.149  -0.620  -4.877  0.00  0.00    -0.008 C 
ATOM     10  C   UNL     1       4.658  -0.652  -4.626  0.00  0.00    +0.007 C 
ATOM     11  C   UNL     1       4.961  -1.599  -3.462  0.00  0.00    -0.008 C 
ATOM     12  C   UNL     1       4.245  -1.105  -2.204  0.00  0.00    +0.029 C 
ATOM     13  C   UNL     1       4.472  -3.006  -3.809  0.00  0.00    +0.007 C 
ATOM     14  C   UNL     1       2.963  -2.974  -4.060  0.00  0.00    -0.008 C 
ATOM     15  C   UNL     1       2.660  -2.027  -5.224  0.00  0.00    +0.007 C 
ATOM     16  C   UNL     1       2.247  -2.480  -2.801  0.00  0.00    +0.029 C 
ENDBRANCH   5   7
ENDBRANCH   2   3
BRANCH   2  17
ATOM     17  S   UNL     1      -1.700  -0.632   0.015  0.00  0.00    -0.074 S 
BRANCH  17  18
ATOM     18  C   UNL     1      -2.335  -0.110   1.573  0.00  0.00    +0.191 A 
ATOM     19  N   UNL     1      -1.550   0.585   2.388  0.00  0.00    -0.229 NA
ATOM     20  C   UNL     1      -1.982   0.998   3.565  0.00  0.00    +0.136 A 
ATOM     21  C   UNL     1      -3.292   0.693   3.954  0.00  0.00    +0.109 A 
ATOM     22  C   UNL     1      -4.096  -0.049   3.061  0.00  0.00    +0.138 A 
ATOM     23  N   UNL     1      -3.583  -0.419   1.894  0.00  0.00    -0.206 NA
BRANCH  22  24
ATOM     24  N   UNL     1      -5.395  -0.378   3.394  0.00  0.00    -0.342 N 
ATOM     25  H   UNL     1      -5.762  -0.099   4.247  0.00  0.00    +0.144 HD
ATOM     26  H   UNL     1      -5.940  -0.887   2.774  0.00  0.00    +0.144 HD
ENDBRANCH  22  24
BRANCH  21  27
ATOM     27  C   UNL     1      -3.801   1.120   5.222  0.00  0.00    +0.104 C 
ATOM     28  N   UNL     1      -4.205   1.458   6.228  0.00  0.00    -0.191 NA
ENDBRANCH  21  27
ENDBRANCH  17  18
ENDBRANCH   2  17
TORSDOF 6
