REMARK  Name = ZINC43284760
REMARK  5 active torsions:
REMARK  status: ('A' for Active; 'I' for Inactive)
REMARK    1  A    between atoms: C_1  and  C_2
REMARK    2  A    between atoms: C_2  and  C_4
REMARK    3  A    between atoms: C_2  and  N_22
REMARK    4  A    between atoms: C_4  and  C_6
REMARK    5  A    between atoms: C_4  and  N_12
REMARK                            x       y       z     vdW  Elec       q    Type
REMARK                         _______ _______ _______ _____ _____    ______ ____
ROOT
ATOM      1  C   UNL     1       0.730  -0.555   1.124  0.00  0.00    +0.079 C 
ENDROOT
BRANCH   1   2
ATOM      2  N   UNL     1       0.036   0.035   2.276  0.00  0.00    -0.292 NA
ATOM      3  C   UNL     1       0.777  -0.213   3.523  0.00  0.00    +0.090 C 
ATOM      4  C   UNL     1       0.226   0.712   4.608  0.00  0.00    +0.051 C 
ATOM      5  C   UNL     1      -1.276   0.604   4.662  0.00  0.00    -0.042 A 
ATOM      6  C   UNL     1      -1.933   1.074   5.789  0.00  0.00    +0.004 A 
ATOM      7  C   UNL     1      -3.308   0.997   5.878  0.00  0.00    +0.000 A 
ATOM      8  C   UNL     1      -4.035   0.449   4.837  0.00  0.00    +0.000 A 
ATOM      9  C   UNL     1      -3.382  -0.020   3.715  0.00  0.00    +0.005 A 
ATOM     10  C   UNL     1      -2.000   0.053   3.626  0.00  0.00    -0.030 A 
ATOM     11  C   UNL     1      -1.332  -0.482   2.387  0.00  0.00    +0.120 C 
ENDBRANCH   1   2
BRANCH   1  12
ATOM     12  C   UNL     1       1.831   0.370   0.674  0.00  0.00    +0.006 A 
ATOM     13  C   UNL     1       2.150   0.769  -0.582  0.00  0.00    +0.028 A 
ATOM     14  C   UNL     1       3.214   1.634  -0.761  0.00  0.00    +0.025 A 
ATOM     15  C   UNL     1       3.908   2.056   0.326  0.00  0.00    +0.060 A 
ATOM     16  S   UNL     1       3.049   1.230   1.655  0.00  0.00    -0.099 S 
ATOM     17 BR   UNL     1       3.696   2.218  -2.493  0.00  0.00    -0.050 Br
ENDBRANCH   1  12
BRANCH   1  19
ATOM     18  C   UNL     1       0.204  -2.884   1.862  0.00  0.00    -0.012 C 
ATOM     19  C   UNL     1       1.330  -1.904   1.527  0.00  0.00    -0.056 C 
BRANCH  19  20
ATOM     20  N   UNL     1       2.127  -2.437   0.414  0.00  0.00    +0.381 N 
ATOM     21  H   UNL     1       1.536  -2.559  -0.395  0.00  0.00    -0.090 HD
ATOM     22  H   UNL     1       2.870  -1.791   0.193  0.00  0.00    -0.090 HD
ATOM     23  H   UNL     1       2.523  -3.326   0.679  0.00  0.00    -0.090 HD
ENDBRANCH  19  20
ENDBRANCH   1  19
TORSDOF 4
