REMARK  Name = ZINC33282860
REMARK  2 active torsions:
REMARK  status: ('A' for Active; 'I' for Inactive)
REMARK    1  A    between atoms: C_6  and  C_7
REMARK    2  A    between atoms: N_11  and  N_12
REMARK                            x       y       z     vdW  Elec       q    Type
REMARK                         _______ _______ _______ _____ _____    ______ ____
ROOT
ATOM      1  C   UNL     1      -1.314  -0.648   0.085  0.00  0.00    +0.210 C 
ATOM      2  C   UNL     1      -1.926  -0.727   1.492  0.00  0.00    +0.107 C 
ATOM      3  C   UNL     1      -3.185  -1.569   1.385  0.00  0.00    +0.074 C 
ATOM      4  N   UNL     1      -3.508  -2.433   2.299  0.00  0.00    -0.185 NA
ATOM      5  C   UNL     1      -4.024  -1.353   0.186  0.00  0.00    +0.042 A 
ATOM      6  C   UNL     1      -5.309  -1.886   0.112  0.00  0.00    +0.051 A 
ATOM      7  C   UNL     1      -6.072  -1.673  -1.021  0.00  0.00    +0.124 A 
ATOM      8  C   UNL     1      -5.559  -0.934  -2.076  0.00  0.00    +0.042 A 
ATOM      9  C   UNL     1      -4.286  -0.402  -2.008  0.00  0.00    +0.049 A 
ATOM     10  C   UNL     1      -3.507  -0.602  -0.878  0.00  0.00    +0.130 A 
ATOM     11  O   UNL     1      -2.262  -0.069  -0.812  0.00  0.00    -0.483 OA
ATOM     12  F   UNL     1      -7.319  -2.187  -1.100  0.00  0.00    -0.205 F 
ENDROOT
BRANCH   1  18
ATOM     13  C   UNL     1      -0.182   1.584   0.117  0.00  0.00    +0.011 A 
ATOM     14  C   UNL     1       0.954   2.370   0.151  0.00  0.00    +0.050 A 
ATOM     15  C   UNL     1       2.208   1.778   0.192  0.00  0.00    +0.162 A 
ATOM     16  C   UNL     1       2.318   0.392   0.201  0.00  0.00    +0.162 A 
ATOM     17  C   UNL     1       1.174  -0.391   0.166  0.00  0.00    +0.056 A 
ATOM     18  C   UNL     1      -0.073   0.206   0.124  0.00  0.00    -0.003 A 
ATOM     19  O   UNL     1       3.538  -0.209   0.249  0.00  0.00    -0.485 OA
ATOM     20  C   UNL     1       4.668   0.601  -0.092  0.00  0.00    +0.270 C 
ATOM     21  C   UNL     1       4.537   1.942   0.641  0.00  0.00    +0.270 C 
ATOM     22  O   UNL     1       3.317   2.565   0.221  0.00  0.00    -0.485 OA
ENDBRANCH   1  18
BRANCH   4  23
ATOM     23  N   UNL     1      -4.404  -3.467   1.999  0.00  0.00    -0.217 N 
ATOM     24  C   UNL     1      -4.844  -4.300   2.991  0.00  0.00    +0.156 C 
ATOM     25  N   UNL     1      -5.719  -5.309   2.698  0.00  0.00    -0.380 N 
ATOM     26  S   UNL     1      -4.315  -4.085   4.550  0.00  0.00    -0.015 SA
ATOM     27  H   UNL     1      -4.713  -3.592   1.088  0.00  0.00    +0.176 HD
ATOM     28  H   UNL     1      -6.028  -5.434   1.787  0.00  0.00    +0.158 HD
ATOM     29  H   UNL     1      -6.031  -5.899   3.402  0.00  0.00    +0.158 HD
ENDBRANCH   4  23
TORSDOF 2
