REMARK  Name = ZINC59789909
REMARK  12 active torsions:
REMARK  status: ('A' for Active; 'I' for Inactive)
REMARK    1  A    between atoms: C_1  and  C_2
REMARK    2  A    between atoms: C_2  and  O_3
REMARK    3  A    between atoms: O_3  and  C_4
REMARK    4  A    between atoms: C_4  and  C_6
REMARK    5  A    between atoms: C_10  and  N_11
REMARK    6  A    between atoms: C_12  and  C_14
REMARK    7  A    between atoms: C_14  and  C_15
REMARK    8  A    between atoms: C_15  and  S_16
REMARK    9  A    between atoms: S_16  and  C_17
REMARK   10  A    between atoms: C_20  and  C_23
REMARK   11  A    between atoms: N_21  and  N_22
REMARK   12  A    between atoms: C_27  and  N_29
REMARK                            x       y       z     vdW  Elec       q    Type
REMARK                         _______ _______ _______ _____ _____    ______ ____
ROOT
ATOM      1  C   UNL     1      -3.306  -2.666   4.953  0.00  0.00    +0.107 C 
ENDROOT
BRANCH   1   3
ATOM      2  N   UNL     1      -3.033  -2.524   2.498  0.00  0.00    -0.279 N 
ATOM      3  C   UNL     1      -3.808  -2.867   3.546  0.00  0.00    +0.218 C 
ATOM      4  O   UNL     1      -4.910  -3.337   3.357  0.00  0.00    -0.275 OA
ATOM      5  H   UNL     1      -2.152  -2.147   2.650  0.00  0.00    +0.155 HD
BRANCH   2  10
ATOM      6  C   UNL     1      -2.842  -2.416   0.016  0.00  0.00    +0.091 A 
ATOM      7  C   UNL     1      -3.548  -2.714  -1.219  0.00  0.00    -0.021 A 
ATOM      8  C   UNL     1      -4.777  -3.242  -1.039  0.00  0.00    -0.004 A 
ATOM      9  S   UNL     1      -4.974  -3.335   0.716  0.00  0.00    -0.077 S 
ATOM     10  C   UNL     1      -3.495  -2.708   1.205  0.00  0.00    +0.086 A 
ATOM     11  C   UNL     1      -5.745  -3.651  -2.106  0.00  0.00    +0.043 C 
ATOM     12  C   UNL     1      -5.287  -3.033  -3.435  0.00  0.00    +0.005 C 
ATOM     13  C   UNL     1      -3.790  -3.300  -3.616  0.00  0.00    +0.005 C 
ATOM     14  C   UNL     1      -2.988  -2.468  -2.612  0.00  0.00    +0.037 C 
BRANCH   6  15
ATOM     15  C   UNL     1      -1.497  -1.838   0.006  0.00  0.00    +0.342 C 
ATOM     16  O   UNL     1      -0.523  -2.566  -0.007  0.00  0.00    -0.245 OA
BRANCH  15  17
ATOM     17  O   UNL     1      -1.339  -0.499   0.012  0.00  0.00    -0.461 OA
BRANCH  17  19
ATOM     18  C   UNL     1      -0.019   1.526   0.010  0.00  0.00    +0.048 C 
ATOM     19  C   UNL     1       0.002  -0.004   0.002  0.00  0.00    +0.229 C 
ENDBRANCH  17  19
ENDBRANCH  15  17
ENDBRANCH   6  15
ENDBRANCH   2  10
ENDBRANCH   1   3
BRANCH   1  20
ATOM     20  C   UNL     1      -4.372  -3.133   5.946  0.00  0.00    +0.086 C 
BRANCH  20  21
ATOM     21  S   UNL     1      -3.767  -2.891   7.639  0.00  0.00    -0.084 S 
BRANCH  21  22
ATOM     22  C   UNL     1      -5.090  -3.469   8.651  0.00  0.00    +0.209 A 
ATOM     23  N   UNL     1      -6.234  -3.962   8.232  0.00  0.00    -0.121 NA
ATOM     24  N   UNL     1      -6.969  -4.286   9.235  0.00  0.00    -0.127 NA
ATOM     25  C   UNL     1      -6.339  -4.020  10.356  0.00  0.00    +0.182 A 
ATOM     26  N   UNL     1      -5.114  -3.494  10.016  0.00  0.00    -0.224 N 
BRANCH  25  27
ATOM     27  C   UNL     1      -6.848  -4.249  11.725  0.00  0.00    +0.023 A 
ATOM     28  C   UNL     1      -6.225  -3.639  12.815  0.00  0.00    +0.012 A 
ATOM     29  C   UNL     1      -6.705  -3.856  14.090  0.00  0.00    +0.003 A 
ATOM     30  C   UNL     1      -7.801  -4.678  14.289  0.00  0.00    +0.033 A 
ATOM     31  C   UNL     1      -8.422  -5.285  13.213  0.00  0.00    +0.127 A 
ATOM     32  C   UNL     1      -7.956  -5.071  11.932  0.00  0.00    +0.044 A 
BRANCH  31  33
ATOM     33  N   UNL     1      -9.594  -6.162  13.436  0.00  0.00    +0.056 N 
ATOM     34  O   UNL     1     -10.006  -6.347  14.557  0.00  0.00    -0.126 OA
ATOM     35  O   UNL     1     -10.138  -6.694  12.496  0.00  0.00    -0.126 OA
ENDBRANCH  31  33
ENDBRANCH  25  27
BRANCH  26  36
ATOM     36  N   UNL     1      -4.129  -3.079  10.867  0.00  0.00    -0.295 N 
ATOM     37  H   UNL     1      -4.240  -2.104  11.101  0.00  0.00    +0.163 HD
ATOM     38  H   UNL     1      -4.106  -3.651  11.698  0.00  0.00    +0.163 HD
ENDBRANCH  26  36
ENDBRANCH  21  22
ENDBRANCH  20  21
ENDBRANCH   1  20
TORSDOF 11
