REMARK  Name = ZINC10294097
REMARK  15 active torsions:
REMARK  status: ('A' for Active; 'I' for Inactive)
REMARK    1  A    between atoms: C_1  and  C_2
REMARK    2  A    between atoms: C_2  and  C_3
REMARK    3  A    between atoms: C_3  and  C_5
REMARK    4  A    between atoms: C_3  and  O_6
REMARK    5  A    between atoms: O_6  and  C_7
REMARK    6  A    between atoms: C_10  and  C_13
REMARK    7  A    between atoms: N_15  and  C_16
REMARK    8  A    between atoms: C_16  and  N_18
REMARK    9  A    between atoms: C_24  and  C_26
REMARK   10  A    between atoms: C_26  and  C_27
REMARK   11  A    between atoms: C_27  and  O_29
REMARK   12  A    between atoms: O_29  and  C_30
REMARK   13  A    between atoms: C_30  and  C_31
REMARK   14  A    between atoms: C_31  and  C_32
REMARK   15  A    between atoms: C_32  and  C_33
REMARK                            x       y       z     vdW  Elec       q    Type
REMARK                         _______ _______ _______ _____ _____    ______ ____
ROOT
ATOM      1  N   UNL     1      -0.488   4.089  -1.095  0.00  0.00    -0.299 N 
ATOM      2  C   UNL     1      -1.409   4.352  -2.214  0.00  0.00    +0.126 C 
ATOM      3  C   UNL     1      -2.445   5.378  -1.749  0.00  0.00    +0.123 C 
ATOM      4  N   UNL     1      -2.976   5.019  -0.441  0.00  0.00    -0.312 N 
ATOM      5  C   UNL     1      -2.358   4.225   0.435  0.00  0.00    +0.234 C 
ATOM      6  O   UNL     1      -2.864   4.063   1.525  0.00  0.00    -0.274 OA
ATOM      7  C   UNL     1      -1.064   3.521   0.133  0.00  0.00    +0.171 C 
ATOM      8  H   UNL     1      -3.838   5.384  -0.189  0.00  0.00    +0.149 HD
ENDROOT
BRANCH   1   9
ATOM      9  C   UNL     1       0.828   4.359  -1.193  0.00  0.00    +0.140 C 
ATOM     10  S   UNL     1       1.453   5.072  -2.619  0.00  0.00    -0.018 S 
BRANCH   9  13
ATOM     11  C   UNL     1       2.984   4.238  -0.305  0.00  0.00    +0.250 C 
ATOM     12  O   UNL     1       3.439   4.656  -1.352  0.00  0.00    -0.270 OA
ATOM     13  N   UNL     1       1.654   4.067  -0.169  0.00  0.00    -0.264 N 
ATOM     14  H   UNL     1       1.291   3.734   0.667  0.00  0.00    +0.157 HD
BRANCH  11  18
ATOM     15  C   UNL     1       5.584   3.320   2.924  0.00  0.00    +0.121 A 
ATOM     16  C   UNL     1       6.107   3.797   1.727  0.00  0.00    +0.046 A 
ATOM     17  C   UNL     1       5.267   4.096   0.677  0.00  0.00    +0.016 A 
ATOM     18  C   UNL     1       3.887   3.919   0.817  0.00  0.00    +0.037 A 
ATOM     19  C   UNL     1       3.366   3.444   2.024  0.00  0.00    +0.016 A 
ATOM     20  C   UNL     1       4.213   3.143   3.066  0.00  0.00    +0.046 A 
BRANCH  15  21
ATOM     21  O   UNL     1       6.415   3.027   3.956  0.00  0.00    -0.489 OA
BRANCH  21  22
ATOM     22  C   UNL     1       7.799   3.341   3.784  0.00  0.00    +0.170 C 
ATOM     23  C   UNL     1       8.495   2.191   3.053  0.00  0.00    +0.052 C 
BRANCH  22  25
ATOM     24  C   UNL     1       7.839   4.770   5.832  0.00  0.00    +0.007 C 
ATOM     25  C   UNL     1       8.450   3.543   5.153  0.00  0.00    +0.041 C 
ENDBRANCH  22  25
ENDBRANCH  21  22
ENDBRANCH  15  21
ENDBRANCH  11  18
ENDBRANCH   9  13
ENDBRANCH   1   9
BRANCH   7  26
ATOM     26  C   UNL     1      -1.328   2.027  -0.069  0.00  0.00    +0.152 C 
BRANCH  26  27
ATOM     27  C   UNL     1      -0.016   1.300  -0.211  0.00  0.00    +0.309 C 
ATOM     28  O   UNL     1       1.019   1.923  -0.253  0.00  0.00    -0.251 OA
BRANCH  27  29
ATOM     29  O   UNL     1       0.003  -0.040  -0.296  0.00  0.00    -0.465 OA
BRANCH  29  30
ATOM     30  C   UNL     1       1.302  -0.673  -0.438  0.00  0.00    +0.232 C 
BRANCH  30  31
ATOM     31  C   UNL     1       1.124  -2.190  -0.519  0.00  0.00    +0.046 C 
BRANCH  31  32
ATOM     32  C   UNL     1       2.493  -2.857  -0.669  0.00  0.00    +0.038 C 
BRANCH  32  33
ATOM     33  C   UNL     1       2.317  -4.352  -0.748  0.00  0.00    -0.047 A 
ATOM     34  C   UNL     1       2.336  -5.112   0.406  0.00  0.00    +0.003 A 
ATOM     35  C   UNL     1       2.170  -6.483   0.333  0.00  0.00    +0.000 A 
ATOM     36  C   UNL     1       1.996  -7.094  -0.895  0.00  0.00    +0.000 A 
ATOM     37  C   UNL     1       1.982  -6.334  -2.049  0.00  0.00    +0.000 A 
ATOM     38  C   UNL     1       2.143  -4.963  -1.976  0.00  0.00    +0.003 A 
ENDBRANCH  32  33
ENDBRANCH  31  32
ENDBRANCH  30  31
ENDBRANCH  29  30
ENDBRANCH  27  29
ENDBRANCH  26  27
ENDBRANCH   7  26
TORSDOF 13
