REMARK  Name = ZINC35919120
REMARK  8 active torsions:
REMARK  status: ('A' for Active; 'I' for Inactive)
REMARK    1  A    between atoms: C_1  and  C_2
REMARK    2  A    between atoms: C_2  and  C_3
REMARK    3  A    between atoms: C_2  and  N_4
REMARK    4  A    between atoms: N_4  and  C_5
REMARK    5  A    between atoms: N_15  and  C_18
REMARK    6  A    between atoms: N_26  and  C_28
REMARK    7  A    between atoms: C_28  and  C_29
REMARK    8  A    between atoms: C_32  and  N_35
REMARK                            x       y       z     vdW  Elec       q    Type
REMARK                         _______ _______ _______ _____ _____    ______ ____
ROOT
ATOM      1  N   UNL     1      -1.405  -0.492  -0.005  0.00  0.00    -0.315 N 
ATOM      2  C   UNL     1      -1.568   0.961  -0.090  0.00  0.00    +0.131 C 
ATOM      3  C   UNL     1      -1.851  -1.300  -1.038  0.00  0.00    +0.128 A 
ATOM      4  C   UNL     1      -3.185  -1.719  -1.087  0.00  0.00    -0.003 A 
ATOM      5  C   UNL     1      -3.586  -2.519  -2.131  0.00  0.00    +0.048 A 
ATOM      6  N   UNL     1      -2.700  -2.872  -3.055  0.00  0.00    -0.219 NA
ATOM      7  C   UNL     1      -1.442  -2.463  -2.985  0.00  0.00    +0.220 A 
ATOM      8  N   UNL     1      -1.019  -1.685  -2.000  0.00  0.00    -0.199 NA
ATOM      9  N   UNL     1      -0.550  -2.853  -3.969  0.00  0.00    -0.297 N 
ATOM     10  C   UNL     1       0.854  -2.421  -3.919  0.00  0.00    +0.127 C 
ATOM     11  C   UNL     1       1.751  -3.664  -3.967  0.00  0.00    +0.124 C 
ATOM     12  N   UNL     1       1.311  -4.518  -5.080  0.00  0.00    -0.327 N 
ATOM     13  C   UNL     1      -0.093  -4.949  -5.130  0.00  0.00    +0.124 C 
ATOM     14  C   UNL     1      -0.988  -3.711  -5.079  0.00  0.00    +0.127 C 
ATOM     15  C   UNL     1      -5.007  -3.001  -2.250  0.00  0.00    +0.037 C 
ATOM     16  C   UNL     1      -5.725  -2.826  -0.910  0.00  0.00    -0.072 C 
ATOM     17  N   UNL     1      -5.523  -1.445  -0.445  0.00  0.00    +0.385 N 
ATOM     18  C   UNL     1      -4.134  -1.287  -0.004  0.00  0.00    -0.037 C 
ATOM     19  H   UNL     1      -5.713  -0.803  -1.200  0.00  0.00    -0.081 HD
ENDROOT
BRANCH  12  20
ATOM     20  C   UNL     1       2.212  -4.911  -6.072  0.00  0.00    +0.030 A 
ATOM     21  C   UNL     1       3.561  -4.604  -5.949  0.00  0.00    +0.023 A 
ATOM     22  C   UNL     1       4.449  -4.995  -6.932  0.00  0.00    +0.002 A 
ATOM     23  C   UNL     1       3.996  -5.691  -8.038  0.00  0.00    +0.000 A 
ATOM     24  C   UNL     1       2.653  -5.998  -8.164  0.00  0.00    +0.002 A 
ATOM     25  C   UNL     1       1.761  -5.615  -7.181  0.00  0.00    +0.023 A 
ENDBRANCH  12  20
BRANCH   1  27
ATOM     26  C   UNL     1       0.654  -0.550   1.314  0.00  0.00    +0.028 C 
ATOM     27  C   UNL     1      -0.770  -1.091   1.172  0.00  0.00    +0.068 C 
ATOM     28  C   UNL     1      -1.578  -0.736   2.422  0.00  0.00    +0.028 C 
ENDBRANCH   1  27
BRANCH  17  29
ATOM     29  C   UNL     1      -6.429  -1.168   0.678  0.00  0.00    -0.043 C 
BRANCH  29  30
ATOM     30  C   UNL     1      -7.856  -1.221   0.196  0.00  0.00    -0.064 A 
ATOM     31  C   UNL     1      -8.467  -0.077  -0.284  0.00  0.00    +0.004 A 
ATOM     32  C   UNL     1      -9.776  -0.126  -0.726  0.00  0.00    +0.033 A 
ATOM     33  C   UNL     1     -10.474  -1.318  -0.688  0.00  0.00    +0.126 A 
ATOM     34  C   UNL     1      -9.864  -2.462  -0.208  0.00  0.00    +0.033 A 
ATOM     35  C   UNL     1      -8.553  -2.414   0.230  0.00  0.00    +0.004 A 
BRANCH  33  36
ATOM     36  N   UNL     1     -11.876  -1.370  -1.160  0.00  0.00    +0.056 N 
ATOM     37  O   UNL     1     -12.410  -0.370  -1.579  0.00  0.00    -0.126 OA
ATOM     38  O   UNL     1     -12.487  -2.413  -1.126  0.00  0.00    -0.126 OA
ENDBRANCH  33  36
ENDBRANCH  29  30
ENDBRANCH  17  29
TORSDOF 5
