REMARK  Name = ZINC46583291
REMARK  15 active torsions:
REMARK  status: ('A' for Active; 'I' for Inactive)
REMARK    1  A    between atoms: C_1  and  C_2
REMARK    2  A    between atoms: C_2  and  C_3
REMARK    3  A    between atoms: C_3  and  C_4
REMARK    4  A    between atoms: C_4  and  N_5
REMARK    5  A    between atoms: N_5  and  C_6
REMARK    6  A    between atoms: C_7  and  N_18
REMARK    7  A    between atoms: N_8  and  C_15
REMARK    8  A    between atoms: C_15  and  C_16
REMARK    9  A    between atoms: C_16  and  C_17
REMARK   10  A    between atoms: C_19  and  C_21
REMARK   11  A    between atoms: C_21  and  N_22
REMARK   12  A    between atoms: N_22  and  C_23
REMARK   13  A    between atoms: N_22  and  C_34
REMARK   14  A    between atoms: C_23  and  C_24
REMARK   15  A    between atoms: C_27  and  C_30
REMARK                            x       y       z     vdW  Elec       q    Type
REMARK                         _______ _______ _______ _____ _____    ______ ____
ROOT
ATOM      1  N   UNL     1       1.245  -2.518   2.260  0.00  0.00    -0.266 N 
ATOM      2  C   UNL     1       2.558  -2.829   2.255  0.00  0.00    +0.203 C 
ATOM      3  O   UNL     1       3.062  -3.353   3.226  0.00  0.00    -0.277 OA
ENDROOT
BRANCH   1   4
ATOM      4  C   UNL     1       0.481  -2.707   3.432  0.00  0.00    +0.140 A 
ATOM      5  C   UNL     1      -0.531  -3.645   3.466  0.00  0.00    +0.127 A 
ATOM      6  N   UNL     1      -1.258  -3.806   4.622  0.00  0.00    -0.280 N 
ATOM      7  C   UNL     1      -0.987  -3.057   5.707  0.00  0.00    +0.331 A 
ATOM      8  O   UNL     1      -1.642  -3.214   6.719  0.00  0.00    -0.246 OA
ATOM      9  N   UNL     1      -0.005  -2.138   5.692  0.00  0.00    -0.273 N 
ATOM     10  H   UNL     1       0.170  -1.611   6.487  0.00  0.00    +0.173 HD
ATOM     11  C   UNL     1       0.741  -1.945   4.586  0.00  0.00    +0.277 A 
ATOM     12  O   UNL     1       1.632  -1.113   4.585  0.00  0.00    -0.266 OA
BRANCH   5  13
ATOM     13  N   UNL     1      -0.808  -4.409   2.358  0.00  0.00    -0.343 N 
ATOM     14  H   UNL     1      -0.341  -4.242   1.524  0.00  0.00    +0.144 HD
ATOM     15  H   UNL     1      -1.471  -5.116   2.410  0.00  0.00    +0.144 HD
ENDBRANCH   5  13
BRANCH   6  16
ATOM     16  C   UNL     1      -2.335  -4.798   4.673  0.00  0.00    +0.128 C 
BRANCH  16  17
ATOM     17  C   UNL     1      -1.770  -6.140   5.144  0.00  0.00    +0.018 C 
ATOM     18  C   UNL     1      -2.894  -7.176   5.197  0.00  0.00    +0.005 C 
ENDBRANCH  16  17
ENDBRANCH   6  16
ENDBRANCH   1   4
BRANCH   1  19
ATOM     19  C   UNL     1       0.613  -1.986   1.051  0.00  0.00    +0.114 C 
BRANCH  19  20
ATOM     20  C   UNL     1       0.612  -0.457   1.107  0.00  0.00    +0.019 C 
BRANCH  20  22
ATOM     21  C   UNL     1      -0.049   1.629  -0.100  0.00  0.00    +0.004 C 
ATOM     22  C   UNL     1      -0.048   0.100  -0.156  0.00  0.00    -0.002 C 
ENDBRANCH  20  22
ENDBRANCH  19  20
ENDBRANCH   1  19
BRANCH   2  23
ATOM     23  C   UNL     1       3.399  -2.523   1.042  0.00  0.00    +0.020 C 
BRANCH  23  24
ATOM     24  N   UNL     1       4.745  -3.083   1.226  0.00  0.00    +0.390 N 
ATOM     25  H   UNL     1       5.128  -2.756   2.100  0.00  0.00    -0.080 HD
BRANCH  24  26
ATOM     26  C   UNL     1       5.610  -2.652   0.119  0.00  0.00    -0.068 C 
ATOM     27  C   UNL     1       7.003  -2.127   0.475  0.00  0.00    -0.017 C 
ATOM     28  C   UNL     1       5.917  -1.157   0.004  0.00  0.00    -0.017 C 
ENDBRANCH  24  26
BRANCH  24  29
ATOM     29  C   UNL     1       4.667  -4.550   1.243  0.00  0.00    -0.042 C 
BRANCH  29  30
ATOM     30  C   UNL     1       6.027  -5.121   1.554  0.00  0.00    -0.064 A 
ATOM     31  C   UNL     1       6.908  -5.405   0.528  0.00  0.00    +0.002 A 
ATOM     32  C   UNL     1       8.155  -5.929   0.813  0.00  0.00    +0.012 A 
ATOM     33  C   UNL     1       8.521  -6.169   2.124  0.00  0.00    +0.055 A 
ATOM     34  C   UNL     1       7.640  -5.884   3.151  0.00  0.00    +0.012 A 
ATOM     35  C   UNL     1       6.394  -5.356   2.866  0.00  0.00    +0.002 A 
BRANCH  33  36
ATOM     36  C   UNL     1       9.880  -6.741   2.435  0.00  0.00    +0.417 C 
ATOM     37  F   UNL     1      10.795  -5.698   2.616  0.00  0.00    -0.166 F 
ATOM     38  F   UNL     1       9.807  -7.506   3.604  0.00  0.00    -0.166 F 
ATOM     39  F   UNL     1      10.299  -7.550   1.373  0.00  0.00    -0.166 F 
ENDBRANCH  33  36
ENDBRANCH  29  30
ENDBRANCH  24  29
ENDBRANCH  23  24
ENDBRANCH   2  23
TORSDOF 13
