REMARK  Name = ZINC00743627
REMARK  10 active torsions:
REMARK  status: ('A' for Active; 'I' for Inactive)
REMARK    1  A    between atoms: C_1  and  C_2
REMARK    2  A    between atoms: C_2  and  N_3
REMARK    3  A    between atoms: C_11  and  C_13
REMARK    4  A    between atoms: C_14  and  C_16
REMARK    5  A    between atoms: C_16  and  C_18
REMARK    6  A    between atoms: C_16  and  N_21
REMARK    7  A    between atoms: C_18  and  C_19
REMARK    8  A    between atoms: C_18  and  C_20
REMARK    9  A    between atoms: N_24  and  C_25
REMARK   10  A    between atoms: C_30  and  C_31
REMARK                            x       y       z     vdW  Elec       q    Type
REMARK                         _______ _______ _______ _____ _____    ______ ____
ROOT
ATOM      1  C   UNL     1       4.965  -2.315   5.892  0.00  0.00    +0.163 C 
ENDROOT
BRANCH   1  12
ATOM      2  N   UNL     1      -1.247  -1.655   3.599  0.00  0.00    -0.299 N 
ATOM      3  C   UNL     1      -0.614  -2.822   3.369  0.00  0.00    +0.303 C 
ATOM      4  O   UNL     1      -1.108  -3.644   2.621  0.00  0.00    -0.253 OA
ATOM      5  N   UNL     1       0.566  -3.079   3.967  0.00  0.00    -0.280 N 
ATOM      6  C   UNL     1       1.118  -2.148   4.962  0.00  0.00    +0.128 C 
ATOM      7  C   UNL     1       2.530  -1.742   4.521  0.00  0.00    +0.127 C 
ATOM      8  N   UNL     1       3.287  -2.958   4.191  0.00  0.00    -0.297 N 
ATOM      9  C   UNL     1       2.735  -3.889   3.197  0.00  0.00    +0.130 C 
ATOM     10  C   UNL     1       1.320  -4.298   3.642  0.00  0.00    +0.092 C 
ATOM     11  C   UNL     1       1.406  -5.194   4.878  0.00  0.00    +0.030 C 
ATOM     12  C   UNL     1       4.467  -3.215   4.790  0.00  0.00    +0.236 C 
ATOM     13  O   UNL     1       5.129  -4.170   4.442  0.00  0.00    -0.274 OA
ATOM     14  H   UNL     1      -0.890  -1.030   4.251  0.00  0.00    +0.150 HD
BRANCH   2  16
ATOM     15  C   UNL     1      -2.984   0.043   3.312  0.00  0.00    +0.024 C 
ATOM     16  C   UNL     1      -2.472  -1.328   2.866  0.00  0.00    +0.102 C 
ENDBRANCH   2  16
ENDBRANCH   1  12
BRANCH   1  17
ATOM     17  N   UNL     1       5.725  -3.106   6.862  0.00  0.00    -0.288 N 
ATOM     18  C   UNL     1       5.837  -2.682   8.137  0.00  0.00    +0.304 C 
ATOM     19  O   UNL     1       5.308  -1.643   8.481  0.00  0.00    -0.252 OA
ATOM     20  N   UNL     1       6.537  -3.410   9.030  0.00  0.00    -0.269 N 
ATOM     21  H   UNL     1       6.147  -3.935   6.588  0.00  0.00    +0.151 HD
ATOM     22  H   UNL     1       7.013  -4.204   8.742  0.00  0.00    +0.156 HD
BRANCH  20  23
ATOM     23  C   UNL     1       6.575  -3.020  10.373  0.00  0.00    +0.046 A 
ATOM     24  C   UNL     1       6.401  -1.685  10.716  0.00  0.00    +0.024 A 
ATOM     25  C   UNL     1       6.439  -1.304  12.043  0.00  0.00    +0.002 A 
ATOM     26  C   UNL     1       6.651  -2.249  13.030  0.00  0.00    +0.001 A 
ATOM     27  C   UNL     1       6.826  -3.578  12.692  0.00  0.00    +0.014 A 
ATOM     28  C   UNL     1       6.782  -3.967  11.367  0.00  0.00    +0.076 A 
BRANCH  28  29
ATOM     29  C   UNL     1       6.966  -5.417  11.001  0.00  0.00    +0.419 C 
ATOM     30  F   UNL     1       7.157  -6.172  12.163  0.00  0.00    -0.166 F 
ATOM     31  F   UNL     1       5.828  -5.876  10.329  0.00  0.00    -0.166 F 
ATOM     32  F   UNL     1       8.084  -5.550  10.170  0.00  0.00    -0.166 F 
ENDBRANCH  28  29
ENDBRANCH  20  23
ENDBRANCH   1  17
BRANCH   1  33
ATOM     33  C   UNL     1       5.868  -1.232   5.297  0.00  0.00    +0.012 C 
ATOM     34  C   UNL     1       5.053  -0.353   4.347  0.00  0.00    +0.009 C 
ATOM     35  C   UNL     1       6.441  -0.370   6.424  0.00  0.00    +0.009 C 
ENDBRANCH   1  33
TORSDOF 6
