REMARK  Name = ZINC43593303
REMARK  7 active torsions:
REMARK  status: ('A' for Active; 'I' for Inactive)
REMARK    1  A    between atoms: C_1  and  C_2
REMARK    2  A    between atoms: C_5  and  C_11
REMARK    3  A    between atoms: C_6  and  C_10
REMARK    4  A    between atoms: C_7  and  O_8
REMARK    5  A    between atoms: O_8  and  C_9
REMARK    6  A    between atoms: C_11  and  N_12
REMARK    7  A    between atoms: C_16  and  C_19
REMARK                            x       y       z     vdW  Elec       q    Type
REMARK                         _______ _______ _______ _____ _____    ______ ____
ROOT
ATOM      1  C   UNL     1       0.281   1.551   0.057  0.00  0.00    +0.049 C 
ATOM      2  C   UNL     1       0.275   0.044   0.032  0.00  0.00    +0.007 A 
ATOM      3  C   UNL     1       0.341  -0.636  -1.167  0.00  0.00    +0.089 A 
ATOM      4  N   UNL     1       0.336  -1.956  -1.196  0.00  0.00    -0.362 N 
ATOM      5  C   UNL     1       0.269  -2.677  -0.093  0.00  0.00    +0.042 A 
ATOM      6  C   UNL     1       0.200  -2.072   1.144  0.00  0.00    +0.012 A 
ATOM      7  C   UNL     1       0.208  -0.681   1.219  0.00  0.00    +0.129 A 
ATOM      8  C   UNL     1       0.123  -2.904   2.399  0.00  0.00    +0.049 C 
ATOM      9  H   UNL     1       0.384  -2.408  -2.053  0.00  0.00    +0.165 HD
ENDROOT
BRANCH   7  10
ATOM     10  O   UNL     1       0.147  -0.048   2.419  0.00  0.00    -0.494 OA
ATOM     11  C   UNL     1      -1.153   0.260   2.924  0.00  0.00    +0.277 C 
ENDBRANCH   7  10
BRANCH   5  12
ATOM     12  C   UNL     1       0.266  -4.181  -0.187  0.00  0.00    +0.178 C 
BRANCH  12  13
ATOM     13  N   UNL     1       0.238  -4.583  -1.595  0.00  0.00    -0.309 N 
ATOM     14  C   UNL     1      -0.953  -4.765  -2.212  0.00  0.00    +0.089 A 
ATOM     15  C   UNL     1      -1.022  -5.137  -3.517  0.00  0.00    +0.019 A 
ATOM     16  C   UNL     1       0.145  -5.340  -4.250  0.00  0.00    +0.022 A 
ATOM     17  C   UNL     1       1.378  -5.154  -3.621  0.00  0.00    +0.127 A 
ATOM     18  C   UNL     1       1.397  -4.759  -2.257  0.00  0.00    +0.266 A 
ATOM     19  O   UNL     1       2.460  -4.586  -1.686  0.00  0.00    -0.267 OA
BRANCH  17  20
ATOM     20  C   UNL     1       2.630  -5.359  -4.357  0.00  0.00    +0.392 C 
ATOM     21  O   UNL     1       2.600  -5.695  -5.534  0.00  0.00    -0.240 OA
ATOM     22  O   UNL     1       3.704  -5.192  -3.795  0.00  0.00    -0.240 OA
ENDBRANCH  17  20
ENDBRANCH  12  13
ENDBRANCH   5  12
TORSDOF 4
