REMARK  Name = ZINC57904948
REMARK  5 active torsions:
REMARK  status: ('A' for Active; 'I' for Inactive)
REMARK    1  A    between atoms: C_1  and  C_2
REMARK    2  A    between atoms: C_2  and  C_3
REMARK    3  A    between atoms: C_2  and  C_4
REMARK    4  A    between atoms: C_10  and  C_12
REMARK    5  A    between atoms: C_12  and  C_13
REMARK                            x       y       z     vdW  Elec       q    Type
REMARK                         _______ _______ _______ _____ _____    ______ ____
ROOT
ATOM      1  C   UNL     1       0.707  -0.490  -1.238  0.00  0.00    +0.106 A 
ATOM      2  N   UNL     1       0.420  -0.287  -2.508  0.00  0.00    -0.144 NA
ATOM      3  N   UNL     1       1.161  -0.798  -3.395  0.00  0.00    -0.126 NA
ATOM      4  C   UNL     1       2.215  -1.529  -3.087  0.00  0.00    +0.188 A 
ATOM      5  S   UNL     1       2.175  -1.498  -1.402  0.00  0.00    -0.035 S 
ATOM      6  N   UNL     1       3.124  -2.157  -3.931  0.00  0.00    -0.263 N 
ATOM      7  C   UNL     1       2.984  -2.055  -5.268  0.00  0.00    +0.225 C 
ATOM      8  O   UNL     1       2.065  -1.416  -5.734  0.00  0.00    -0.275 OA
ATOM      9  H   UNL     1       3.859  -2.668  -3.558  0.00  0.00    +0.157 HD
ENDROOT
BRANCH   1  11
ATOM     10  C   UNL     1      -0.019   1.526   0.010  0.00  0.00    +0.014 C 
ATOM     11  C   UNL     1       0.002  -0.004   0.002  0.00  0.00    +0.040 C 
ATOM     12  C   UNL     1      -1.433  -0.534   0.013  0.00  0.00    +0.014 C 
ENDBRANCH   1  11
BRANCH   7  13
ATOM     13  C   UNL     1       3.969  -2.735  -6.183  0.00  0.00    +0.159 C 
BRANCH  13  14
ATOM     14  C   UNL     1       3.591  -2.468  -7.617  0.00  0.00    +0.088 A 
ATOM     15  N   UNL     1       3.976  -1.483  -8.390  0.00  0.00    -0.248 NA
ATOM     16  C   UNL     1       3.562  -1.369  -9.643  0.00  0.00    +0.048 A 
ATOM     17  C   UNL     1       2.709  -2.348 -10.056  0.00  0.00    -0.004 A 
ATOM     18  S   UNL     1       2.575  -3.368  -8.617  0.00  0.00    -0.078 S 
ATOM     19  C   UNL     1       2.079  -2.477 -11.399  0.00  0.00    -0.038 C 
ATOM     20  N   UNL     1       2.225  -1.188 -12.103  0.00  0.00    +0.382 N 
ATOM     21  C   UNL     1       3.623  -0.744 -12.031  0.00  0.00    -0.076 C 
ATOM     22  C   UNL     1       3.960  -0.267 -10.614  0.00  0.00    +0.037 C 
ATOM     23  H   UNL     1       1.957  -1.300 -13.069  0.00  0.00    -0.085 HD
ATOM     24  H   UNL     1       1.630  -0.498 -11.668  0.00  0.00    -0.085 HD
ENDBRANCH  13  14
ENDBRANCH   7  13
TORSDOF 3
