REMARK  Name = ZINC12541387
REMARK  7 active torsions:
REMARK  status: ('A' for Active; 'I' for Inactive)
REMARK    1  A    between atoms: C_1  and  C_2
REMARK    2  A    between atoms: N_15  and  C_16
REMARK    3  A    between atoms: C_16  and  C_17
REMARK    4  A    between atoms: C_17  and  C_18
REMARK    5  A    between atoms: C_18  and  C_19
REMARK    6  A    between atoms: C_20  and  C_26
REMARK    7  A    between atoms: C_21  and  N_25
REMARK                            x       y       z     vdW  Elec       q    Type
REMARK                         _______ _______ _______ _____ _____    ______ ____
ROOT
ATOM      1  C   UNL     1      -4.218   3.985   7.669  0.00  0.00    +0.069 C 
ATOM      2  C   UNL     1      -3.183   3.273   6.838  0.00  0.00    +0.081 A 
ATOM      3  C   UNL     1      -3.142   3.243   5.448  0.00  0.00    +0.108 A 
ATOM      4  C   UNL     1      -2.041   2.485   5.074  0.00  0.00    +0.177 A 
ATOM      5  N   UNL     1      -1.562   2.155   3.861  0.00  0.00    -0.211 NA
ATOM      6  C   UNL     1      -0.484   1.414   3.714  0.00  0.00    +0.130 A 
ATOM      7  C   UNL     1       0.214   0.929   4.912  0.00  0.00    +0.040 A 
ATOM      8  C   UNL     1       1.364   0.145   4.824  0.00  0.00    +0.013 A 
ATOM      9  C   UNL     1       1.983  -0.278   5.968  0.00  0.00    +0.001 A 
ATOM     10  C   UNL     1       1.480   0.069   7.214  0.00  0.00    +0.002 A 
ATOM     11  C   UNL     1       0.347   0.848   7.322  0.00  0.00    +0.028 A 
ATOM     12  C   UNL     1      -0.296   1.287   6.173  0.00  0.00    +0.078 A 
ATOM     13  N   UNL     1      -1.436   2.071   6.230  0.00  0.00    -0.212 N 
ATOM     14  N   UNL     1      -2.173   2.579   7.306  0.00  0.00    -0.168 NA
ATOM     15  N   UNL     1      -0.020   1.094   2.454  0.00  0.00    -0.328 N 
ATOM     16 CL   UNL     1      -4.266   4.015   4.374  0.00  0.00    -0.078 Cl
ATOM     17  H   UNL     1       0.775   0.547   2.354  0.00  0.00    +0.147 HD
ENDROOT
BRANCH  15  18
ATOM     18  C   UNL     1      -0.729   1.579   1.267  0.00  0.00    +0.103 C 
BRANCH  18  19
ATOM     19  C   UNL     1      -0.013   1.086   0.008  0.00  0.00    +0.025 C 
BRANCH  19  20
ATOM     20  C   UNL     1      -0.753   1.593  -1.232  0.00  0.00    +0.060 C 
BRANCH  20  21
ATOM     21  C   UNL     1      -0.047   1.107  -2.471  0.00  0.00    +0.082 A 
ATOM     22  C   UNL     1      -0.308  -0.105  -3.152  0.00  0.00    +0.113 A 
ATOM     23  C   UNL     1       0.563  -0.158  -4.237  0.00  0.00    +0.129 A 
ATOM     24  N   UNL     1       1.307   0.968  -4.204  0.00  0.00    -0.263 N 
ATOM     25  H   UNL     1       2.025   1.213  -4.856  0.00  0.00    +0.190 HD
ATOM     26  N   UNL     1       0.904   1.733  -3.104  0.00  0.00    -0.176 NA
BRANCH  23  27
ATOM     27  N   UNL     1       0.651  -1.172  -5.171  0.00  0.00    -0.342 N 
ATOM     28  H   UNL     1       0.067  -1.944  -5.105  0.00  0.00    +0.144 HD
ATOM     29  H   UNL     1       1.296  -1.112  -5.894  0.00  0.00    +0.144 HD
ENDBRANCH  23  27
BRANCH  22  30
ATOM     30  C   UNL     1      -1.283  -1.091  -2.795  0.00  0.00    +0.104 C 
ATOM     31  N   UNL     1      -2.057  -1.873  -2.511  0.00  0.00    -0.191 NA
ENDBRANCH  22  30
ENDBRANCH  20  21
ENDBRANCH  19  20
ENDBRANCH  18  19
ENDBRANCH  15  18
TORSDOF 6
