REMARK  Name = ZINC10121735
REMARK  12 active torsions:
REMARK  status: ('A' for Active; 'I' for Inactive)
REMARK    1  A    between atoms: C_1  and  C_2
REMARK    2  A    between atoms: N_5  and  S_8
REMARK    3  A    between atoms: S_8  and  C_11
REMARK    4  A    between atoms: C_14  and  N_17
REMARK    5  A    between atoms: N_17  and  C_18
REMARK    6  A    between atoms: C_18  and  N_20
REMARK    7  A    between atoms: C_21  and  C_23
REMARK    8  A    between atoms: C_27  and  O_29
REMARK    9  A    between atoms: O_29  and  C_30
REMARK   10  A    between atoms: C_30  and  C_31
REMARK   11  A    between atoms: C_31  and  C_32
REMARK   12  A    between atoms: C_31  and  C_33
REMARK                            x       y       z     vdW  Elec       q    Type
REMARK                         _______ _______ _______ _____ _____    ______ ____
ROOT
ATOM      1  N   UNL     1      -3.525   1.837   0.029  0.00  0.00    -0.297 N 
ATOM      2  H   UNL     1      -2.797   1.598  -0.567  0.00  0.00    +0.154 HD
ENDROOT
BRANCH   1   6
ATOM      3  C   UNL     1      -6.952  -0.526   0.183  0.00  0.00    +0.106 A 
ATOM      4  C   UNL     1      -7.065   0.851   0.116  0.00  0.00    +0.030 A 
ATOM      5  C   UNL     1      -5.931   1.637   0.064  0.00  0.00    +0.025 A 
ATOM      6  C   UNL     1      -4.676   1.044   0.081  0.00  0.00    +0.033 A 
ATOM      7  C   UNL     1      -4.565  -0.339   0.143  0.00  0.00    +0.025 A 
ATOM      8  C   UNL     1      -5.703  -1.120   0.200  0.00  0.00    +0.030 A 
BRANCH   3   9
ATOM      9  S   UNL     1      -8.401  -1.526   0.250  0.00  0.00    +0.061 S 
ATOM     10  O   UNL     1      -8.021  -2.752   0.859  0.00  0.00    -0.153 OA
ATOM     11  O   UNL     1      -9.437  -0.705   0.771  0.00  0.00    -0.153 OA
BRANCH   9  16
ATOM     12  C   UNL     1     -11.478  -3.835  -4.002  0.00  0.00    +0.007 C 
ATOM     13  C   UNL     1     -10.324  -3.012  -3.425  0.00  0.00    -0.012 C 
ATOM     14  C   UNL     1      -9.466  -3.901  -2.522  0.00  0.00    +0.020 C 
ATOM     15  C   UNL     1      -8.293  -3.083  -1.974  0.00  0.00    +0.110 C 
ATOM     16  N   UNL     1      -8.821  -1.883  -1.312  0.00  0.00    -0.177 NA
ATOM     17  C   UNL     1      -9.735  -1.008  -2.060  0.00  0.00    +0.110 C 
ATOM     18  C   UNL     1     -10.888  -1.846  -2.609  0.00  0.00    +0.020 C 
ENDBRANCH   9  16
ENDBRANCH   3   9
ENDBRANCH   1   6
BRANCH   1  19
ATOM     19  C   UNL     1      -3.427   2.934   0.806  0.00  0.00    +0.141 C 
ATOM     20  S   UNL     1      -4.753   3.417   1.776  0.00  0.00    -0.018 S 
BRANCH  19  21
ATOM     21  N   UNL     1      -2.285   3.651   0.820  0.00  0.00    -0.264 N 
ATOM     22  C   UNL     1      -2.188   4.747   1.597  0.00  0.00    +0.250 C 
ATOM     23  O   UNL     1      -3.129   5.090   2.285  0.00  0.00    -0.270 OA
ATOM     24  H   UNL     1      -1.534   3.377   0.270  0.00  0.00    +0.157 HD
BRANCH  22  25
ATOM     25  C   UNL     1      -0.934   5.530   1.616  0.00  0.00    +0.041 A 
ATOM     26  C   UNL     1       0.151   5.135   0.831  0.00  0.00    +0.013 A 
ATOM     27  C   UNL     1       1.318   5.870   0.848  0.00  0.00    +0.004 A 
ATOM     28  C   UNL     1       1.421   6.992   1.649  0.00  0.00    +0.046 A 
ATOM     29  C   UNL     1       0.350   7.390   2.437  0.00  0.00    +0.121 A 
ATOM     30  C   UNL     1      -0.828   6.662   2.424  0.00  0.00    +0.058 A 
BRANCH  29  31
ATOM     31  O   UNL     1       0.458   8.494   3.223  0.00  0.00    -0.492 OA
BRANCH  31  32
ATOM     32  C   UNL     1       1.702   9.197   3.188  0.00  0.00    +0.232 C 
BRANCH  32  33
ATOM     33  C   UNL     1       1.634  10.401   4.129  0.00  0.00    +0.020 C 
ATOM     34  C   UNL     1       3.003  11.081   4.186  0.00  0.00    +0.010 C 
ATOM     35  C   UNL     1       0.592  11.395   3.611  0.00  0.00    +0.010 C 
ENDBRANCH  32  33
ENDBRANCH  31  32
ENDBRANCH  29  31
ENDBRANCH  22  25
ENDBRANCH  19  21
ENDBRANCH   1  19
TORSDOF 9
