REMARK  Name = ZINC15946802
REMARK  12 active torsions:
REMARK  status: ('A' for Active; 'I' for Inactive)
REMARK    1  A    between atoms: C_1  and  C_2
REMARK    2  A    between atoms: C_2  and  C_3
REMARK    3  A    between atoms: C_8  and  N_9
REMARK    4  A    between atoms: C_10  and  C_12
REMARK    5  A    between atoms: C_16  and  N_17
REMARK    6  A    between atoms: C_18  and  C_20
REMARK    7  A    between atoms: C_20  and  N_76
REMARK    8  A    between atoms: C_25  and  C_27
REMARK    9  A    between atoms: C_29  and  C_33
REMARK   10  A    between atoms: C_33  and  C_34
REMARK   11  A    between atoms: C_33  and  C_35
REMARK   12  A    between atoms: C_33  and  C_36
REMARK                            x       y       z     vdW  Elec       q    Type
REMARK                         _______ _______ _______ _____ _____    ______ ____
ROOT
ATOM      1  C   UNL     1      -0.529  -3.081   3.524  0.00  0.00    +0.069 A 
ATOM      2  C   UNL     1       0.231  -4.073   2.783  0.00  0.00    -0.023 A 
ATOM      3  C   UNL     1       1.187  -4.712   3.491  0.00  0.00    -0.004 A 
ATOM      4  S   UNL     1       1.088  -4.016   5.116  0.00  0.00    -0.077 S 
ATOM      5  C   UNL     1      -0.201  -2.887   4.858  0.00  0.00    +0.084 A 
ATOM      6  C   UNL     1       2.119  -5.775   2.997  0.00  0.00    +0.046 C 
ATOM      7  C   UNL     1       2.084  -5.772   1.462  0.00  0.00    -0.000 C 
ATOM      8  C   UNL     1       0.624  -5.757   1.002  0.00  0.00    +0.009 C 
ATOM      9  C   UNL     1      -0.005  -4.398   1.313  0.00  0.00    +0.037 C 
ENDROOT
BRANCH   1  11
ATOM     10  N   UNL     1      -1.316  -1.134   2.285  0.00  0.00    -0.281 N 
ATOM     11  C   UNL     1      -1.598  -2.308   2.884  0.00  0.00    +0.251 C 
ATOM     12  O   UNL     1      -2.741  -2.728   2.892  0.00  0.00    -0.270 OA
ATOM     13  H   UNL     1      -0.397  -0.829   2.226  0.00  0.00    +0.155 HD
BRANCH  10  19
ATOM     14  C   UNL     1      -2.267   1.030   1.791  0.00  0.00    -0.026 A 
ATOM     15  C   UNL     1      -3.290   1.795   1.267  0.00  0.00    +0.005 A 
ATOM     16  C   UNL     1      -4.388   1.183   0.691  0.00  0.00    +0.000 A 
ATOM     17  C   UNL     1      -4.471  -0.197   0.648  0.00  0.00    +0.002 A 
ATOM     18  C   UNL     1      -3.454  -0.968   1.176  0.00  0.00    +0.023 A 
ATOM     19  C   UNL     1      -2.347  -0.356   1.750  0.00  0.00    +0.037 A 
BRANCH  14  21
ATOM     20  C   UNL     1       0.049   1.810   1.374  0.00  0.00    +0.009 C 
ATOM     21  C   UNL     1      -1.068   1.698   2.413  0.00  0.00    +0.033 C 
ENDBRANCH  14  21
ENDBRANCH  10  19
ENDBRANCH   1  11
BRANCH   5  22
ATOM     22  N   UNL     1      -0.768  -2.005   5.765  0.00  0.00    -0.281 N 
ATOM     23  C   UNL     1      -0.314  -1.957   7.033  0.00  0.00    +0.201 C 
ATOM     24  O   UNL     1       0.592  -2.685   7.380  0.00  0.00    -0.278 OA
ATOM     25  H   UNL     1      -1.493  -1.423   5.488  0.00  0.00    +0.155 HD
BRANCH  23  26
ATOM     26  C   UNL     1      -0.930  -0.998   8.019  0.00  0.00    +0.019 C 
BRANCH  26  33
ATOM     27  C   UNL     1       1.064  -0.511   9.302  0.00  0.00    -0.078 C 
ATOM     28  C   UNL     1       1.785  -0.801  10.620  0.00  0.00    -0.019 C 
ATOM     29  C   UNL     1       0.955  -0.249  11.783  0.00  0.00    -0.003 C 
ATOM     30  C   UNL     1      -0.438  -0.883  11.751  0.00  0.00    -0.016 C 
ATOM     31  C   UNL     1      -1.095  -0.590  10.400  0.00  0.00    -0.071 C 
ATOM     32  C   UNL     1      -2.480  -1.239  10.355  0.00  0.00    -0.013 C 
ATOM     33  N   UNL     1      -0.260  -1.168   9.325  0.00  0.00    +0.387 N 
ATOM     34  H   UNL     1      -0.131  -2.170   9.506  0.00  0.00    -0.081 HD
ENDBRANCH  26  33
ENDBRANCH  23  26
ENDBRANCH   5  22
BRANCH   7  35
ATOM     35  C   UNL     1       2.776  -7.029   0.931  0.00  0.00    -0.035 C 
ATOM     36  C   UNL     1       2.050  -8.270   1.454  0.00  0.00    +0.011 C 
ATOM     37  C   UNL     1       2.740  -7.024  -0.599  0.00  0.00    +0.011 C 
ATOM     38  C   UNL     1       4.230  -7.051   1.407  0.00  0.00    +0.011 C 
ENDBRANCH   7  35
TORSDOF 7
