REMARK  Name = ZINC37248572
REMARK  6 active torsions:
REMARK  status: ('A' for Active; 'I' for Inactive)
REMARK    1  A    between atoms: C_1  and  C_2
REMARK    2  A    between atoms: C_5  and  C_11
REMARK    3  A    between atoms: C_7  and  N_8
REMARK    4  A    between atoms: C_11  and  N_12
REMARK    5  A    between atoms: N_12  and  C_13
REMARK    6  A    between atoms: C_16  and  C_20
REMARK                            x       y       z     vdW  Elec       q    Type
REMARK                         _______ _______ _______ _____ _____    ______ ____
ROOT
ATOM      1  C   UNL     1       1.123  -3.950   1.565  0.00  0.00    +0.137 C 
ENDROOT
BRANCH   1   6
ATOM      2  C   UNL     1       4.421   0.789   1.814  0.00  0.00    +0.046 C 
ATOM      3  C   UNL     1       3.561  -0.447   1.749  0.00  0.00    -0.020 A 
ATOM      4  C   UNL     1       2.371  -0.425   1.045  0.00  0.00    +0.006 A 
ATOM      5  C   UNL     1       1.583  -1.558   0.986  0.00  0.00    +0.005 A 
ATOM      6  C   UNL     1       1.984  -2.714   1.629  0.00  0.00    -0.028 A 
ATOM      7  C   UNL     1       3.174  -2.736   2.332  0.00  0.00    +0.038 A 
ATOM      8  C   UNL     1       3.965  -1.604   2.388  0.00  0.00    +0.129 A 
BRANCH   8   9
ATOM      9  N   UNL     1       5.242  -1.629   3.136  0.00  0.00    +0.057 N 
ATOM     10  O   UNL     1       6.109  -0.828   2.879  0.00  0.00    -0.126 OA
ATOM     11  O   UNL     1       5.417  -2.451   4.005  0.00  0.00    -0.126 OA
ENDBRANCH   8   9
ENDBRANCH   1   6
BRANCH   1  12
ATOM     12  N   UNL     1       1.510  -4.754   0.404  0.00  0.00    -0.338 N 
ATOM     13  H   UNL     1       1.597  -4.338  -0.468  0.00  0.00    +0.146 HD
BRANCH  12  14
ATOM     14  C   UNL     1       1.754  -6.123   0.552  0.00  0.00    +0.056 A 
ATOM     15  C   UNL     1       0.696  -7.023   0.546  0.00  0.00    +0.040 A 
ATOM     16  C   UNL     1       0.941  -8.376   0.692  0.00  0.00    +0.020 A 
ATOM     17  C   UNL     1       2.237  -8.833   0.844  0.00  0.00    -0.048 A 
ATOM     18  C   UNL     1       3.292  -7.939   0.850  0.00  0.00    +0.020 A 
ATOM     19  C   UNL     1       3.055  -6.586   0.699  0.00  0.00    +0.040 A 
ATOM     20 BR   UNL     1       4.500  -5.366   0.700  0.00  0.00    -0.048 Br
ATOM     21  C   UNL     1       2.500 -10.308   1.003  0.00  0.00    +0.044 C 
ATOM     22 BR   UNL     1      -1.077  -6.399   0.340  0.00  0.00    -0.048 Br
ENDBRANCH  12  14
ENDBRANCH   1  12
TORSDOF 4
