REMARK  Name = ZINC01256689
REMARK  7 active torsions:
REMARK  status: ('A' for Active; 'I' for Inactive)
REMARK    1  A    between atoms: C_7  and  C_11
REMARK    2  A    between atoms: C_11  and  C_12
REMARK    3  A    between atoms: C_12  and  C_14
REMARK    4  A    between atoms: C_12  and  N_29
REMARK    5  A    between atoms: C_17  and  S_19
REMARK    6  A    between atoms: S_19  and  C_20
REMARK    7  A    between atoms: C_20  and  C_21
REMARK                            x       y       z     vdW  Elec       q    Type
REMARK                         _______ _______ _______ _____ _____    ______ ____
ROOT
ATOM      1  C   UNL     1       0.236  -3.589  -1.455  0.00  0.00    +0.019 C 
ENDROOT
BRANCH   1   2
ATOM      2  C   UNL     1      -0.602  -4.842  -1.466  0.00  0.00    +0.204 A 
ATOM      3  N   UNL     1      -1.839  -4.942  -1.078  0.00  0.00    -0.113 NA
ATOM      4  N   UNL     1      -2.240  -6.156  -1.225  0.00  0.00    -0.101 NA
ATOM      5  C   UNL     1      -1.262  -6.879  -1.716  0.00  0.00    +0.278 A 
ATOM      6  O   UNL     1      -0.206  -6.060  -1.884  0.00  0.00    -0.417 OA
BRANCH   5   7
ATOM      7  S   UNL     1      -1.321  -8.599  -2.092  0.00  0.00    -0.061 S 
BRANCH   7   8
ATOM      8  C   UNL     1      -3.010  -9.088  -1.645  0.00  0.00    +0.118 C 
BRANCH   8   9
ATOM      9  C   UNL     1      -3.197 -10.557  -1.922  0.00  0.00    +0.016 A 
ATOM     10  C   UNL     1      -3.646 -10.977  -3.163  0.00  0.00    +0.129 A 
ATOM     11  C   UNL     1      -3.818 -12.328  -3.415  0.00  0.00    +0.039 A 
ATOM     12  C   UNL     1      -3.541 -13.256  -2.429  0.00  0.00    +0.004 A 
ATOM     13  C   UNL     1      -3.093 -12.837  -1.191  0.00  0.00    +0.020 A 
ATOM     14  C   UNL     1      -2.915 -11.488  -0.938  0.00  0.00    +0.048 A 
ATOM     15 CL   UNL     1      -2.345 -10.963   0.615  0.00  0.00    -0.083 Cl
ATOM     16  F   UNL     1      -3.917 -10.070  -4.126  0.00  0.00    -0.205 F 
ENDBRANCH   8   9
ENDBRANCH   7   8
ENDBRANCH   5   7
ENDBRANCH   1   2
BRANCH   1  17
ATOM     17  N   UNL     1      -0.552  -2.469  -1.986  0.00  0.00    +0.386 N 
ATOM     18  H   UNL     1      -1.370  -2.331  -1.412  0.00  0.00    -0.089 HD
ATOM     19  H   UNL     1       0.009  -1.630  -1.979  0.00  0.00    -0.089 HD
ATOM     20  H   UNL     1      -0.836  -2.676  -2.932  0.00  0.00    -0.089 HD
ENDBRANCH   1  17
BRANCH   1  21
ATOM     21  C   UNL     1       0.666  -3.275  -0.021  0.00  0.00    +0.030 C 
BRANCH  21  28
ATOM     22  C   UNL     1      -0.017   1.362   0.009  0.00  0.00    +0.001 A 
ATOM     23  C   UNL     1       1.170   2.083   0.002  0.00  0.00    +0.002 A 
ATOM     24  C   UNL     1       2.386   1.436  -0.013  0.00  0.00    +0.026 A 
ATOM     25  C   UNL     1       2.428   0.046  -0.021  0.00  0.00    +0.047 A 
ATOM     26  C   UNL     1       1.223  -0.681  -0.013  0.00  0.00    +0.003 A 
ATOM     27  C   UNL     1       0.002  -0.004   0.002  0.00  0.00    +0.010 A 
ATOM     28  C   UNL     1       1.604  -2.095  -0.025  0.00  0.00    -0.023 A 
ATOM     29  C   UNL     1       2.945  -2.141  -0.038  0.00  0.00    +0.087 A 
ATOM     30  N   UNL     1       3.455  -0.871  -0.036  0.00  0.00    -0.360 N 
ATOM     31  H   UNL     1       4.399  -0.650  -0.044  0.00  0.00    +0.165 HD
ENDBRANCH  21  28
ENDBRANCH   1  21
TORSDOF 7
