REMARK  Name = ZINC09216282
REMARK  1 active torsions:
REMARK  status: ('A' for Active; 'I' for Inactive)
REMARK    1  A    between atoms: C_6  and  N_7
REMARK                            x       y       z     vdW  Elec       q    Type
REMARK                         _______ _______ _______ _____ _____    ______ ____
ROOT
ATOM      1  N   UNL     1      -1.203  -0.723   0.010  0.00  0.00    -0.210 N 
ATOM      2  C   UNL     1      -2.397  -0.131   0.123  0.00  0.00    +0.228 C 
ATOM      3  O   UNL     1      -2.581   1.062   0.229  0.00  0.00    -0.275 OA
ATOM      4  C   UNL     1      -3.483  -1.183   0.097  0.00  0.00    +0.074 C 
ATOM      5  C   UNL     1      -4.151  -1.263   1.482  0.00  0.00    -0.054 C 
ATOM      6  C   UNL     1      -3.959   0.075   2.218  0.00  0.00    -0.016 C 
ATOM      7  C   UNL     1      -2.653  -0.080   3.021  0.00  0.00    -0.020 C 
ATOM      8  C   UNL     1      -2.163  -1.510   2.695  0.00  0.00    -0.076 C 
ATOM      9  C   UNL     1      -2.968  -3.274   1.250  0.00  0.00    +0.053 C 
ATOM     10  C   UNL     1      -2.692  -2.511  -0.050  0.00  0.00    +0.089 C 
ATOM     11  C   UNL     1      -1.251  -2.055  -0.100  0.00  0.00    +0.229 C 
ATOM     12  O   UNL     1      -0.289  -2.784  -0.218  0.00  0.00    -0.275 OA
ATOM     13  C   UNL     1      -1.762  -4.051   1.697  0.00  0.00    -0.026 A 
ATOM     14  C   UNL     1      -0.474  -3.693   2.028  0.00  0.00    +0.019 A 
ATOM     15  C   UNL     1       0.437  -4.662   2.412  0.00  0.00    +0.018 A 
ATOM     16  C   UNL     1       0.050  -5.989   2.462  0.00  0.00    +0.017 A 
ATOM     17  C   UNL     1      -1.239  -6.352   2.131  0.00  0.00    +0.024 A 
ATOM     18  C   UNL     1      -2.162  -5.383   1.744  0.00  0.00    +0.036 A 
ATOM     19  N   UNL     1      -3.502  -5.498   1.368  0.00  0.00    -0.286 N 
ATOM     20  C   UNL     1      -4.048  -4.305   1.062  0.00  0.00    +0.212 C 
ATOM     21  O   UNL     1      -5.189  -4.102   0.704  0.00  0.00    -0.277 OA
ATOM     22 BR   UNL     1       2.206  -4.172   2.867  0.00  0.00    -0.050 Br
ATOM     23  H   UNL     1      -3.984  -6.339   1.331  0.00  0.00    +0.155 HD
ATOM     24  N   UNL     1      -3.353  -2.222   2.200  0.00  0.00    +0.395 N 
ATOM     25  H   UNL     1      -3.879  -2.626   2.984  0.00  0.00    -0.079 HD
ENDROOT
BRANCH   1  31
ATOM     26  C   UNL     1       0.893  -0.129   1.059  0.00  0.00    +0.027 A 
ATOM     27  C   UNL     1       2.079   0.579   1.049  0.00  0.00    +0.040 A 
ATOM     28  C   UNL     1       2.379   1.413  -0.014  0.00  0.00    +0.124 A 
ATOM     29  C   UNL     1       1.492   1.539  -1.070  0.00  0.00    +0.040 A 
ATOM     30  C   UNL     1       0.305   0.833  -1.063  0.00  0.00    +0.027 A 
ATOM     31  C   UNL     1       0.002  -0.004   0.002  0.00  0.00    +0.044 A 
ATOM     32  F   UNL     1       3.539   2.106  -0.022  0.00  0.00    -0.205 F 
ENDBRANCH   1  31
TORSDOF 1
