REMARK  Name = ZINC06267733
REMARK  5 active torsions:
REMARK  status: ('A' for Active; 'I' for Inactive)
REMARK    1  A    between atoms: C_1  and  C_2
REMARK    2  A    between atoms: C_8  and  S_10
REMARK    3  A    between atoms: S_10  and  C_11
REMARK    4  A    between atoms: C_11  and  C_12
REMARK    5  A    between atoms: C_12  and  C_14
REMARK                            x       y       z     vdW  Elec       q    Type
REMARK                         _______ _______ _______ _____ _____    ______ ____
ROOT
ATOM      1  S   UNL     1       3.497  -0.722  -1.762  0.00  0.00    -0.085 S 
ENDROOT
BRANCH   1   8
ATOM      2  C   UNL     1       0.478  -0.524   1.360  0.00  0.00    +0.028 C 
ATOM      3  C   UNL     1       0.002  -0.004   0.002  0.00  0.00    +0.078 C 
ATOM      4  C   UNL     1      -0.019   1.531   0.011  0.00  0.00    +0.120 C 
ATOM      5  C   UNL     1       1.401   2.038  -0.000  0.00  0.00    +0.240 C 
ATOM      6  O   UNL     1       1.649   3.121   0.492  0.00  0.00    -0.274 OA
ATOM      7  N   UNL     1       2.383   1.327  -0.535  0.00  0.00    -0.159 NA
ATOM      8  C   UNL     1       2.186   0.129  -1.063  0.00  0.00    +0.147 C 
ATOM      9  N   UNL     1       0.938  -0.430  -1.053  0.00  0.00    -0.323 N 
ATOM     10  H   UNL     1       0.677  -1.086  -1.718  0.00  0.00    +0.148 HD
ENDBRANCH   1   8
BRANCH   1  11
ATOM     11  C   UNL     1       4.829   0.472  -1.488  0.00  0.00    +0.156 C 
BRANCH  11  12
ATOM     12  C   UNL     1       6.119  -0.079  -2.038  0.00  0.00    +0.173 C 
ATOM     13  O   UNL     1       6.136  -1.172  -2.563  0.00  0.00    -0.291 OA
BRANCH  12  14
ATOM     14  C   UNL     1       7.358   0.709  -1.937  0.00  0.00    +0.018 A 
ATOM     15  C   UNL     1       7.340   1.972  -1.337  0.00  0.00    +0.012 A 
ATOM     16  C   UNL     1       8.506   2.702  -1.242  0.00  0.00    +0.016 A 
ATOM     17  C   UNL     1       9.690   2.192  -1.748  0.00  0.00    +0.018 A 
ATOM     18  C   UNL     1       9.713   0.944  -2.349  0.00  0.00    +0.016 A 
ATOM     19  C   UNL     1       8.557   0.200  -2.447  0.00  0.00    +0.012 A 
ATOM     20 BR   UNL     1      11.282   3.204  -1.619  0.00  0.00    -0.050 Br
ENDBRANCH  12  14
ENDBRANCH  11  12
ENDBRANCH   1  11
TORSDOF 4
