REMARK  Name = ZINC35664874
REMARK  8 active torsions:
REMARK  status: ('A' for Active; 'I' for Inactive)
REMARK    1  A    between atoms: C_1  and  C_2
REMARK    2  A    between atoms: C_6  and  C_18
REMARK    3  A    between atoms: N_9  and  C_11
REMARK    4  A    between atoms: N_24  and  C_25
REMARK    5  A    between atoms: C_25  and  C_26
REMARK    6  A    between atoms: C_26  and  N_27
REMARK    7  A    between atoms: N_27  and  S_28
REMARK    8  A    between atoms: S_28  and  C_31
REMARK                            x       y       z     vdW  Elec       q    Type
REMARK                         _______ _______ _______ _____ _____    ______ ____
ROOT
ATOM      1  C   UNL     1      -0.035   1.502   0.012  0.00  0.00    +0.068 C 
ATOM      2  C   UNL     1      -0.012  -0.004   0.003  0.00  0.00    +0.073 A 
ATOM      3  C   UNL     1      -0.099  -0.824  -1.143  0.00  0.00    +0.082 A 
ATOM      4  C   UNL     1      -0.223  -0.584  -2.525  0.00  0.00    +0.133 A 
ATOM      5  N   UNL     1      -0.277  -1.628  -3.345  0.00  0.00    -0.216 NA
ATOM      6  C   UNL     1      -0.217  -2.865  -2.883  0.00  0.00    +0.137 A 
ATOM      7  N   UNL     1      -0.102  -3.138  -1.602  0.00  0.00    -0.212 NA
ATOM      8  C   UNL     1      -0.039  -2.160  -0.701  0.00  0.00    +0.169 A 
ATOM      9  N   UNL     1       0.079  -2.114   0.659  0.00  0.00    -0.214 N 
ATOM     10  N   UNL     1       0.097  -0.770   1.052  0.00  0.00    -0.169 NA
ATOM     11  N   UNL     1      -0.286   0.705  -3.017  0.00  0.00    -0.327 N 
ATOM     12  H   UNL     1      -0.168   1.459  -2.417  0.00  0.00    +0.148 HD
ENDROOT
BRANCH   9  13
ATOM     13  C   UNL     1       0.170  -3.220   1.513  0.00  0.00    +0.069 A 
ATOM     14  C   UNL     1      -0.525  -4.386   1.218  0.00  0.00    +0.028 A 
ATOM     15  C   UNL     1      -0.434  -5.476   2.062  0.00  0.00    +0.003 A 
ATOM     16  C   UNL     1       0.349  -5.407   3.200  0.00  0.00    +0.020 A 
ATOM     17  C   UNL     1       1.042  -4.247   3.498  0.00  0.00    +0.043 A 
ATOM     18  C   UNL     1       0.960  -3.156   2.653  0.00  0.00    +0.047 A 
ATOM     19 CL   UNL     1       2.023  -4.165   4.928  0.00  0.00    -0.083 Cl
ENDBRANCH   9  13
BRANCH   6  20
ATOM     20  C   UNL     1      -0.284  -4.007  -3.863  0.00  0.00    +0.057 C 
ATOM     21  C   UNL     1      -1.606  -3.943  -4.631  0.00  0.00    +0.011 C 
ATOM     22  C   UNL     1      -1.674  -5.103  -5.627  0.00  0.00    +0.001 C 
ATOM     23  C   UNL     1      -0.507  -5.000  -6.611  0.00  0.00    +0.000 C 
ATOM     24  C   UNL     1       0.815  -5.064  -5.843  0.00  0.00    +0.001 C 
ATOM     25  C   UNL     1       0.883  -3.904  -4.848  0.00  0.00    +0.011 C 
ENDBRANCH   6  20
BRANCH  11  26
ATOM     26  C   UNL     1      -0.532   0.934  -4.443  0.00  0.00    +0.120 C 
BRANCH  26  27
ATOM     27  C   UNL     1      -0.554   2.439  -4.721  0.00  0.00    +0.124 C 
BRANCH  27  28
ATOM     28  N   UNL     1      -0.800   2.668  -6.147  0.00  0.00    -0.188 NA
ATOM     29  H   UNL     1      -0.703   1.939  -6.779  0.00  0.00    +0.148 HD
BRANCH  28  30
ATOM     30  S   UNL     1      -1.244   4.172  -6.679  0.00  0.00    +0.058 S 
ATOM     31  O   UNL     1      -1.380   4.079  -8.091  0.00  0.00    -0.153 OA
ATOM     32  O   UNL     1      -2.306   4.603  -5.839  0.00  0.00    -0.153 OA
BRANCH  30  33
ATOM     33  C   UNL     1       0.112   5.254  -6.374  0.00  0.00    +0.105 A 
ATOM     34  C   UNL     1       0.202   5.926  -5.169  0.00  0.00    +0.028 A 
ATOM     35  C   UNL     1       1.266   6.776  -4.929  0.00  0.00    +0.002 A 
ATOM     36  C   UNL     1       2.240   6.952  -5.894  0.00  0.00    +0.000 A 
ATOM     37  C   UNL     1       2.151   6.279  -7.098  0.00  0.00    +0.002 A 
ATOM     38  C   UNL     1       1.089   5.427  -7.336  0.00  0.00    +0.028 A 
ENDBRANCH  30  33
ENDBRANCH  28  30
ENDBRANCH  27  28
ENDBRANCH  26  27
ENDBRANCH  11  26
TORSDOF 7
