REMARK  Name = ZINC20150829
REMARK  14 active torsions:
REMARK  status: ('A' for Active; 'I' for Inactive)
REMARK    1  A    between atoms: C_1  and  C_2
REMARK    2  A    between atoms: C_2  and  C_4
REMARK    3  A    between atoms: C_8  and  N_10
REMARK    4  A    between atoms: C_15  and  C_31
REMARK    5  A    between atoms: C_18  and  C_23
REMARK    6  A    between atoms: C_18  and  C_27
REMARK    7  A    between atoms: C_23  and  C_24
REMARK    8  A    between atoms: C_24  and  S_25
REMARK    9  A    between atoms: S_25  and  C_26
REMARK   10  A    between atoms: C_27  and  O_29
REMARK   11  A    between atoms: O_29  and  C_30
REMARK   12  A    between atoms: C_34  and  N_37
REMARK   13  A    between atoms: N_37  and  C_38
REMARK   14  A    between atoms: N_37  and  C_39
REMARK                            x       y       z     vdW  Elec       q    Type
REMARK                         _______ _______ _______ _____ _____    ______ ____
ROOT
ATOM      1  N   UNL     1      -2.260  -4.318   0.110  0.00  0.00    -0.210 N 
ATOM      2  C   UNL     1      -1.150  -5.127   0.107  0.00  0.00    +0.232 C 
ATOM      3  O   UNL     1       0.001  -4.802  -0.087  0.00  0.00    -0.274 OA
ATOM      4  C   UNL     1      -1.657  -6.448   0.387  0.00  0.00    +0.111 C 
ATOM      5  C   UNL     1      -1.283  -7.865   0.236  0.00  0.00    +0.097 C 
ATOM      6  N   UNL     1      -2.564  -8.568   0.593  0.00  0.00    -0.293 NA
ATOM      7  C   UNL     1      -3.688  -7.610   0.370  0.00  0.00    +0.130 C 
ATOM      8  C   UNL     1      -3.051  -6.416  -0.357  0.00  0.00    +0.120 C 
ATOM      9  C   UNL     1      -3.428  -5.025   0.082  0.00  0.00    +0.232 C 
ATOM     10  O   UNL     1      -4.537  -4.617   0.352  0.00  0.00    -0.274 OA
ATOM     11  H   UNL     1      -2.685  -9.402   0.039  0.00  0.00    +0.124 HD
ENDROOT
BRANCH   1  16
ATOM     12  C   UNL     1      -0.917  -0.882   0.206  0.00  0.00    +0.019 A 
ATOM     13  C   UNL     1      -2.104  -0.141   0.212  0.00  0.00    +0.011 A 
ATOM     14  C   UNL     1      -3.321  -0.790   0.185  0.00  0.00    +0.003 A 
ATOM     15  C   UNL     1      -3.373  -2.172   0.151  0.00  0.00    +0.024 A 
ATOM     16  C   UNL     1      -2.200  -2.917   0.144  0.00  0.00    +0.045 A 
ATOM     17  C   UNL     1      -0.971  -2.278   0.166  0.00  0.00    +0.035 A 
BRANCH  12  19
ATOM     18  C   UNL     1       0.438   1.312   0.278  0.00  0.00    +0.091 C 
ATOM     19  C   UNL     1       0.383  -0.193   0.235  0.00  0.00    +0.160 C 
ATOM     20  O   UNL     1       1.411  -0.837   0.224  0.00  0.00    -0.292 OA
ENDBRANCH  12  19
ENDBRANCH   1  16
BRANCH   5  21
ATOM     21  C   UNL     1      -0.181  -8.235   1.194  0.00  0.00    -0.030 A 
ATOM     22  C   UNL     1      -0.479  -8.513   2.515  0.00  0.00    +0.007 A 
ATOM     23  C   UNL     1       0.529  -8.853   3.396  0.00  0.00    +0.023 A 
ATOM     24  C   UNL     1       1.844  -8.914   2.953  0.00  0.00    +0.029 A 
ATOM     25  C   UNL     1       2.141  -8.634   1.625  0.00  0.00    +0.023 A 
ATOM     26  C   UNL     1       1.127  -8.300   0.749  0.00  0.00    +0.007 A 
BRANCH  24  27
ATOM     27  N   UNL     1       2.866  -9.257   3.841  0.00  0.00    -0.336 N 
ATOM     28  C   UNL     1       2.552  -9.552   5.241  0.00  0.00    +0.129 C 
ATOM     29  C   UNL     1       4.253  -9.321   3.373  0.00  0.00    +0.129 C 
ENDBRANCH  24  27
ENDBRANCH   5  21
BRANCH   7  30
ATOM     30  C   UNL     1      -4.285  -7.191   1.689  0.00  0.00    +0.328 C 
ATOM     31  O   UNL     1      -5.468  -6.955   1.769  0.00  0.00    -0.249 OA
BRANCH  30  32
ATOM     32  O   UNL     1      -3.504  -7.081   2.775  0.00  0.00    -0.467 OA
ATOM     33  C   UNL     1      -4.137  -6.680   3.991  0.00  0.00    +0.280 C 
ENDBRANCH  30  32
ENDBRANCH   7  30
BRANCH   7  34
ATOM     34  C   UNL     1      -4.758  -8.247  -0.519  0.00  0.00    +0.045 C 
BRANCH  34  35
ATOM     35  C   UNL     1      -5.327  -9.486   0.175  0.00  0.00    +0.071 C 
BRANCH  35  36
ATOM     36  S   UNL     1      -6.595 -10.242  -0.878  0.00  0.00    -0.164 S 
ATOM     37  C   UNL     1      -7.160 -11.677   0.075  0.00  0.00    +0.084 C 
ENDBRANCH  35  36
ENDBRANCH  34  35
ENDBRANCH   7  34
TORSDOF 9
