REMARK  Name = ZINC65466724
REMARK  8 active torsions:
REMARK  status: ('A' for Active; 'I' for Inactive)
REMARK    1  A    between atoms: C_1  and  C_2
REMARK    2  A    between atoms: C_5  and  C_8
REMARK    3  A    between atoms: N_6  and  C_7
REMARK    4  A    between atoms: C_12  and  C_15
REMARK    5  A    between atoms: C_15  and  N_16
REMARK    6  A    between atoms: N_16  and  C_17
REMARK    7  A    between atoms: C_17  and  C_18
REMARK    8  A    between atoms: C_18  and  C_19
REMARK                            x       y       z     vdW  Elec       q    Type
REMARK                         _______ _______ _______ _____ _____    ______ ____
ROOT
ATOM      1  N   UNL     1      -3.475  -4.512   1.166  0.00  0.00    +0.382 N 
ATOM      2  H   UNL     1      -3.590  -3.806   1.878  0.00  0.00    -0.086 HD
ATOM      3  H   UNL     1      -3.025  -4.106   0.359  0.00  0.00    -0.086 HD
ENDROOT
BRANCH   1   4
ATOM      4  C   UNL     1      -2.647  -5.606   1.690  0.00  0.00    -0.024 C 
BRANCH   4   8
ATOM      5  C   UNL     1       0.053  -3.319   1.592  0.00  0.00    +0.306 C 
ATOM      6  N   UNL     1      -0.691  -3.046   2.828  0.00  0.00    -0.151 NA
ATOM      7  N   UNL     1      -1.423  -4.006   3.104  0.00  0.00    -0.159 NA
ATOM      8  C   UNL     1      -1.276  -5.060   2.092  0.00  0.00    +0.243 C 
ATOM      9  O   UNL     1      -0.639  -4.419   0.966  0.00  0.00    -0.323 OA
BRANCH   5  14
ATOM     10  C   UNL     1      -0.018   1.503   0.010  0.00  0.00    +0.063 C 
ATOM     11  C   UNL     1       0.002  -0.004   0.002  0.00  0.00    +0.016 A 
ATOM     12  C   UNL     1       0.008  -0.789  -1.095  0.00  0.00    +0.023 A 
ATOM     13  C   UNL     1       0.028  -2.127  -0.656  0.00  0.00    +0.027 A 
ATOM     14  C   UNL     1       0.034  -2.110   0.693  0.00  0.00    +0.072 A 
ATOM     15  N   UNL     1       0.024  -0.809   1.102  0.00  0.00    -0.347 N 
ATOM     16  C   UNL     1       0.030  -0.352   2.494  0.00  0.00    +0.149 C 
ENDBRANCH   5  14
ENDBRANCH   4   8
ENDBRANCH   1   4
BRANCH   1  17
ATOM     17  C   UNL     1      -4.792  -5.035   0.780  0.00  0.00    -0.078 C 
BRANCH  17  18
ATOM     18  C   UNL     1      -5.655  -3.896   0.234  0.00  0.00    +0.014 C 
BRANCH  18  19
ATOM     19  C   UNL     1      -7.006  -4.433  -0.162  0.00  0.00    -0.043 C 
ATOM     20  C   UNL     1      -8.131  -4.436   0.588  0.00  0.00    -0.001 A 
ATOM     21  C   UNL     1      -8.423  -3.958   1.945  0.00  0.00    +0.010 A 
ATOM     22  C   UNL     1      -9.675  -4.103   2.436  0.00  0.00    +0.001 A 
ATOM     23  C   UNL     1     -10.698  -4.697   1.684  0.00  0.00    +0.002 A 
ATOM     24  C   UNL     1     -10.507  -5.160   0.430  0.00  0.00    +0.026 A 
ATOM     25  C   UNL     1      -9.229  -5.058  -0.186  0.00  0.00    +0.043 A 
ATOM     26  N   UNL     1      -8.798  -5.426  -1.369  0.00  0.00    -0.380 N 
ATOM     27  C   UNL     1      -7.379  -5.073  -1.480  0.00  0.00    +0.144 C 
ATOM     28  H   UNL     1      -9.331  -5.857  -2.056  0.00  0.00    +0.160 HD
ENDBRANCH  18  19
ENDBRANCH  17  18
ENDBRANCH   1  17
TORSDOF 6
