REMARK  Name = ZINC47956628
REMARK  11 active torsions:
REMARK  status: ('A' for Active; 'I' for Inactive)
REMARK    1  A    between atoms: C_1  and  C_2
REMARK    2  A    between atoms: C_4  and  C_29
REMARK    3  A    between atoms: N_5  and  C_7
REMARK    4  A    between atoms: C_7  and  C_8
REMARK    5  A    between atoms: C_8  and  C_10
REMARK    6  A    between atoms: C_8  and  C_11
REMARK    7  A    between atoms: C_11  and  N_12
REMARK    8  A    between atoms: N_15  and  C_16
REMARK    9  A    between atoms: C_16  and  C_17
REMARK   10  A    between atoms: C_17  and  C_19
REMARK   11  A    between atoms: C_17  and  N_24
REMARK                            x       y       z     vdW  Elec       q    Type
REMARK                         _______ _______ _______ _____ _____    ______ ____
ROOT
ATOM      1  N   UNL     1       2.904  -5.481   2.679  0.00  0.00    -0.299 N 
ATOM      2  C   UNL     1       3.171  -6.674   3.246  0.00  0.00    +0.300 C 
ATOM      3  O   UNL     1       2.263  -7.444   3.497  0.00  0.00    -0.253 OA
ATOM      4  N   UNL     1       4.442  -7.014   3.535  0.00  0.00    -0.301 N 
ATOM      5  H   UNL     1       3.628  -4.867   2.479  0.00  0.00    +0.150 HD
ATOM      6  H   UNL     1       5.166  -6.400   3.334  0.00  0.00    +0.150 HD
ENDROOT
BRANCH   1   7
ATOM      7  C   UNL     1       1.522  -5.111   2.365  0.00  0.00    +0.110 C 
BRANCH   7   8
ATOM      8  C   UNL     1       1.497  -3.717   1.734  0.00  0.00    +0.024 C 
ATOM      9  C   UNL     1       1.970  -2.685   2.759  0.00  0.00    +0.011 C 
BRANCH   8  10
ATOM     10  C   UNL     1       0.071  -3.383   1.292  0.00  0.00    +0.148 C 
BRANCH  10  15
ATOM     11  C   UNL     1      -0.190   1.548   0.390  0.00  0.00    +0.067 C 
ATOM     12  C   UNL     1      -0.050   0.059   0.210  0.00  0.00    +0.060 A 
ATOM     13  C   UNL     1       0.167  -0.603  -1.003  0.00  0.00    +0.047 A 
ATOM     14  C   UNL     1       0.235  -1.930  -0.747  0.00  0.00    +0.036 A 
ATOM     15  N   UNL     1       0.068  -2.102   0.581  0.00  0.00    -0.268 N 
ATOM     16  N   UNL     1      -0.104  -0.838   1.161  0.00  0.00    -0.176 NA
ATOM     17  C   UNL     1       0.458  -3.021  -1.762  0.00  0.00    +0.065 C 
ENDBRANCH  10  15
ENDBRANCH   8  10
ENDBRANCH   7   8
ENDBRANCH   1   7
BRANCH   4  18
ATOM     18  C   UNL     1       4.732  -8.311   4.151  0.00  0.00    +0.095 C 
BRANCH  18  19
ATOM     19  C   UNL     1       6.247  -8.502   4.250  0.00  0.00    -0.013 C 
BRANCH  19  20
ATOM     20  N   UNL     1       6.537  -9.741   4.985  0.00  0.00    +0.386 N 
ATOM     21  C   UNL     1       8.005  -9.930   5.109  0.00  0.00    -0.078 C 
ATOM     22  C   UNL     1       8.138 -10.885   6.322  0.00  0.00    -0.020 C 
ATOM     23  C   UNL     1       7.022 -10.393   7.273  0.00  0.00    -0.020 C 
ATOM     24  C   UNL     1       6.024  -9.645   6.369  0.00  0.00    -0.078 C 
ATOM     25  H   UNL     1       6.122 -10.530   4.514  0.00  0.00    -0.081 HD
ENDBRANCH  19  20
BRANCH  19  26
ATOM     26  C   UNL     1       6.834  -8.589   2.865  0.00  0.00    -0.022 A 
ATOM     27  C   UNL     1       7.469  -7.632   2.145  0.00  0.00    +0.009 A 
ATOM     28  C   UNL     1       7.931  -7.941   0.880  0.00  0.00    +0.008 A 
ATOM     29  C   UNL     1       7.736  -9.193   0.397  0.00  0.00    +0.045 A 
ATOM     30  S   UNL     1       6.882  -9.983   1.750  0.00  0.00    -0.103 S 
ENDBRANCH  19  26
ENDBRANCH  18  19
ENDBRANCH   4  18
TORSDOF 8
