REMARK  Name = ZINC63704821
REMARK  8 active torsions:
REMARK  status: ('A' for Active; 'I' for Inactive)
REMARK    1  A    between atoms: C_1  and  C_2
REMARK    2  A    between atoms: C_2  and  C_3
REMARK    3  A    between atoms: N_9  and  C_10
REMARK    4  A    between atoms: C_10  and  C_11
REMARK    5  A    between atoms: C_11  and  N_12
REMARK    6  A    between atoms: C_13  and  C_15
REMARK    7  A    between atoms: C_26  and  C_31
REMARK    8  A    between atoms: N_33  and  C_34
REMARK                            x       y       z     vdW  Elec       q    Type
REMARK                         _______ _______ _______ _____ _____    ______ ____
ROOT
ATOM      1  C   UNL     1      -2.301   5.602  -4.029  0.00  0.00    +0.039 A 
ATOM      2  C   UNL     1      -1.633   6.309  -3.025  0.00  0.00    +0.014 A 
ATOM      3  C   UNL     1      -1.800   7.661  -2.900  0.00  0.00    +0.016 A 
ATOM      4  C   UNL     1      -2.644   8.332  -3.784  0.00  0.00    +0.065 A 
ATOM      5  C   UNL     1      -3.317   7.637  -4.791  0.00  0.00    +0.062 A 
ATOM      6  C   UNL     1      -3.142   6.265  -4.920  0.00  0.00    +0.040 A 
ATOM      7  N   UNL     1      -4.169   8.322  -5.680  0.00  0.00    -0.284 N 
ATOM      8  C   UNL     1      -4.317   9.653  -5.535  0.00  0.00    +0.142 A 
ATOM      9  N   UNL     1      -3.693  10.339  -4.593  0.00  0.00    -0.193 NA
ATOM     10  C   UNL     1      -2.864   9.789  -3.698  0.00  0.00    +0.281 A 
ATOM     11  O   UNL     1      -2.312  10.464  -2.847  0.00  0.00    -0.265 OA
ATOM     12  C   UNL     1      -5.262  10.320  -6.545  0.00  0.00    +0.205 C 
ATOM     13  S   UNL     1      -5.774   8.865  -7.538  0.00  0.00    -0.079 S 
ATOM     14  C   UNL     1      -4.827   7.637  -6.666  0.00  0.00    +0.128 C 
ATOM     15  S   UNL     1      -4.754   5.958  -6.990  0.00  0.00    -0.025 S 
ENDROOT
BRANCH   1  17
ATOM     16  N   UNL     1      -1.297   3.492  -3.291  0.00  0.00    -0.313 N 
ATOM     17  C   UNL     1      -2.109   4.139  -4.150  0.00  0.00    +0.244 C 
ATOM     18  O   UNL     1      -2.684   3.521  -5.025  0.00  0.00    -0.270 OA
ATOM     19  H   UNL     1      -0.838   3.986  -2.593  0.00  0.00    +0.149 HD
BRANCH  16  20
ATOM     20  C   UNL     1      -1.107   2.045  -3.411  0.00  0.00    +0.086 C 
BRANCH  20  21
ATOM     21  C   UNL     1      -0.145   1.565  -2.322  0.00  0.00    -0.059 C 
BRANCH  21  27
ATOM     22  C   UNL     1       0.869  -0.365  -1.325  0.00  0.00    -0.069 C 
ATOM     23  C   UNL     1       1.002  -1.888  -1.401  0.00  0.00    -0.015 C 
ATOM     24  C   UNL     1       1.666  -2.271  -2.727  0.00  0.00    -0.003 C 
ATOM     25  C   UNL     1       0.838  -1.703  -3.883  0.00  0.00    -0.019 C 
ATOM     26  C   UNL     1       0.711  -0.187  -3.716  0.00  0.00    -0.078 C 
ATOM     27  N   UNL     1       0.045   0.113  -2.442  0.00  0.00    +0.383 N 
ATOM     28  H   UNL     1      -0.853  -0.345  -2.417  0.00  0.00    -0.081 HD
BRANCH  22  30
ATOM     29  C   UNL     1       1.093  -0.424   1.163  0.00  0.00    +0.002 C 
ATOM     30  C   UNL     1       0.207   0.023  -0.002  0.00  0.00    -0.019 C 
ENDBRANCH  22  30
ENDBRANCH  21  27
ENDBRANCH  20  21
ENDBRANCH  16  20
ENDBRANCH   1  17
BRANCH  12  31
ATOM     31  C   UNL     1      -6.443  10.950  -5.851  0.00  0.00    +0.234 C 
ATOM     32  O   UNL     1      -6.861  10.477  -4.815  0.00  0.00    -0.274 OA
ATOM     33  N   UNL     1      -7.034  12.038  -6.383  0.00  0.00    -0.311 N 
ATOM     34  H   UNL     1      -6.700  12.416  -7.211  0.00  0.00    +0.149 HD
BRANCH  33  35
ATOM     35  C   UNL     1      -8.181  12.651  -5.708  0.00  0.00    +0.073 C 
ATOM     36  C   UNL     1      -9.489  11.980  -6.177  0.00  0.00    +0.022 C 
ATOM     37  C   UNL     1     -10.510  13.143  -6.244  0.00  0.00    +0.002 C 
ATOM     38  C   UNL     1      -9.656  14.317  -6.782  0.00  0.00    +0.002 C 
ATOM     39  C   UNL     1      -8.287  14.137  -6.093  0.00  0.00    +0.022 C 
ENDBRANCH  33  35
ENDBRANCH  12  31
TORSDOF 7
