REMARK  Name = ZINC30725484
REMARK  7 active torsions:
REMARK  status: ('A' for Active; 'I' for Inactive)
REMARK    1  A    between atoms: C_1  and  C_2
REMARK    2  A    between atoms: C_2  and  C_3
REMARK    3  A    between atoms: C_2  and  C_4
REMARK    4  A    between atoms: C_2  and  C_5
REMARK    5  A    between atoms: C_12  and  C_16
REMARK    6  A    between atoms: N_18  and  N_19
REMARK    7  A    between atoms: C_20  and  C_21
REMARK                            x       y       z     vdW  Elec       q    Type
REMARK                         _______ _______ _______ _____ _____    ______ ____
ROOT
ATOM      1  C   UNL     1      -2.662   9.746  -2.541  0.00  0.00    -0.038 A 
ATOM      2  C   UNL     1      -1.510  10.319  -2.035  0.00  0.00    +0.008 A 
ATOM      3  C   UNL     1      -0.543   9.527  -1.444  0.00  0.00    +0.050 A 
ATOM      4  C   UNL     1      -0.727   8.155  -1.357  0.00  0.00    +0.162 A 
ATOM      5  C   UNL     1      -1.886   7.579  -1.863  0.00  0.00    +0.163 A 
ATOM      6  C   UNL     1      -2.852   8.379  -2.456  0.00  0.00    +0.053 A 
ATOM      7  O   UNL     1      -2.088   6.236  -1.784  0.00  0.00    -0.472 OA
ATOM      8  C   UNL     1      -0.938   5.426  -1.520  0.00  0.00    +0.297 C 
ATOM      9  C   UNL     1      -0.149   6.069  -0.371  0.00  0.00    +0.283 C 
ATOM     10  O   UNL     1       0.235   7.388  -0.775  0.00  0.00    -0.484 OA
ENDROOT
BRANCH   1  12
ATOM     11  C   UNL     1      -3.260  12.073  -3.151  0.00  0.00    +0.015 C 
ATOM     12  C   UNL     1      -3.712  10.612  -3.186  0.00  0.00    -0.013 C 
ATOM     13  C   UNL     1      -3.913  10.175  -4.638  0.00  0.00    +0.015 C 
ATOM     14  C   UNL     1      -5.031  10.468  -2.423  0.00  0.00    +0.015 C 
ENDBRANCH   1  12
BRANCH   8  15
ATOM     15  C   UNL     1      -1.373   4.039  -1.122  0.00  0.00    +0.276 C 
ATOM     16  O   UNL     1      -2.554   3.777  -1.027  0.00  0.00    -0.270 OA
ATOM     17  N   UNL     1      -0.450   3.088  -0.873  0.00  0.00    -0.204 N 
ATOM     18  H   UNL     1       0.617   3.300  -1.039  0.00  0.00    +0.177 HD
BRANCH  17  19
ATOM     19  N   UNL     1      -0.849   1.830  -0.404  0.00  0.00    -0.188 NA
ATOM     20  C   UNL     1       0.042   0.963  -0.033  0.00  0.00    +0.139 C 
BRANCH  20  21
ATOM     21  C   UNL     1       1.370   1.418   0.419  0.00  0.00    +0.014 A 
ATOM     22  C   UNL     1       1.557   2.741   0.829  0.00  0.00    +0.011 A 
ATOM     23  C   UNL     1       2.800   3.159   1.256  0.00  0.00    +0.002 A 
ATOM     24  C   UNL     1       3.865   2.275   1.268  0.00  0.00    +0.021 A 
ATOM     25  C   UNL     1       3.691   0.965   0.858  0.00  0.00    +0.060 A 
ATOM     26  C   UNL     1       2.449   0.530   0.433  0.00  0.00    +0.068 A 
ATOM     27 CL   UNL     1       2.231  -1.113  -0.080  0.00  0.00    -0.081 Cl
ATOM     28 CL   UNL     1       5.033  -0.135   0.878  0.00  0.00    -0.082 Cl
ENDBRANCH  20  21
ENDBRANCH  17  19
ENDBRANCH   8  15
TORSDOF 4
