REMARK  Name = ZINC06504837
REMARK  12 active torsions:
REMARK  status: ('A' for Active; 'I' for Inactive)
REMARK    1  A    between atoms: C_1  and  C_2
REMARK    2  A    between atoms: C_2  and  O_3
REMARK    3  A    between atoms: O_3  and  C_4
REMARK    4  A    between atoms: C_4  and  C_6
REMARK    5  A    between atoms: C_7  and  C_22
REMARK    6  A    between atoms: C_9  and  N_21
REMARK    7  A    between atoms: C_10  and  C_19
REMARK    8  A    between atoms: C_11  and  C_13
REMARK    9  A    between atoms: C_22  and  S_23
REMARK   10  A    between atoms: S_23  and  C_24
REMARK   11  A    between atoms: C_25  and  C_34
REMARK   12  A    between atoms: C_33  and  N_60
REMARK                            x       y       z     vdW  Elec       q    Type
REMARK                         _______ _______ _______ _____ _____    ______ ____
ROOT
ATOM      1  C   UNL     1      -2.397  -4.134  -1.159  0.00  0.00    +0.088 C 
ATOM      2  C   UNL     1      -1.918  -3.716   0.019  0.00  0.00    +0.128 C 
ATOM      3  O   UNL     1      -2.527  -3.996   1.180  0.00  0.00    -0.444 OA
ATOM      4  C   UNL     1      -3.417  -5.001   1.234  0.00  0.00    +0.198 C 
ATOM      5  C   UNL     1      -3.995  -5.504   0.117  0.00  0.00    +0.098 C 
ATOM      6  C   UNL     1      -3.661  -4.946  -1.241  0.00  0.00    +0.105 C 
ENDROOT
BRANCH   6   7
ATOM      7  C   UNL     1      -4.791  -4.069  -1.714  0.00  0.00    -0.034 A 
ATOM      8  C   UNL     1      -5.159  -2.958  -0.978  0.00  0.00    +0.004 A 
ATOM      9  C   UNL     1      -6.193  -2.151  -1.415  0.00  0.00    +0.000 A 
ATOM     10  C   UNL     1      -6.864  -2.460  -2.583  0.00  0.00    +0.000 A 
ATOM     11  C   UNL     1      -6.500  -3.573  -3.317  0.00  0.00    +0.000 A 
ATOM     12  C   UNL     1      -5.463  -4.378  -2.882  0.00  0.00    +0.004 A 
ENDBRANCH   6   7
BRANCH   4  13
ATOM     13  N   UNL     1      -3.745  -5.537   2.454  0.00  0.00    -0.328 N 
ATOM     14  H   UNL     1      -4.382  -6.265   2.509  0.00  0.00    +0.145 HD
ATOM     15  H   UNL     1      -3.338  -5.186   3.263  0.00  0.00    +0.145 HD
ENDBRANCH   4  13
BRANCH   1  16
ATOM     16  C   UNL     1      -1.702  -3.806  -2.350  0.00  0.00    +0.339 C 
ATOM     17  O   UNL     1      -0.987  -4.633  -2.884  0.00  0.00    -0.245 OA
BRANCH  16  18
ATOM     18  O   UNL     1      -1.833  -2.577  -2.891  0.00  0.00    -0.462 OA
BRANCH  18  20
ATOM     19  C   UNL     1      -1.375  -0.882  -4.552  0.00  0.00    +0.048 C 
ATOM     20  C   UNL     1      -1.103  -2.316  -4.091  0.00  0.00    +0.229 C 
ENDBRANCH  18  20
ENDBRANCH  16  18
ENDBRANCH   1  16
BRANCH   5  21
ATOM     21  C   UNL     1      -4.936  -6.578   0.229  0.00  0.00    +0.101 C 
ATOM     22  N   UNL     1      -5.682  -7.430   0.317  0.00  0.00    -0.191 NA
ENDBRANCH   5  21
BRANCH   2  23
ATOM     23  C   UNL     1      -0.646  -2.907   0.041  0.00  0.00    +0.150 C 
BRANCH  23  24
ATOM     24  S   UNL     1      -1.043  -1.167   0.343  0.00  0.00    -0.097 S 
BRANCH  24  25
ATOM     25  C   UNL     1       0.577  -0.475   0.319  0.00  0.00    +0.115 A 
ATOM     26  C   UNL     1       0.752   0.906   0.519  0.00  0.00    +0.084 A 
ATOM     27  C   UNL     1       2.049   1.425   0.491  0.00  0.00    +0.025 A 
ATOM     28  C   UNL     1       3.110   0.558   0.269  0.00  0.00    -0.041 A 
ATOM     29  C   UNL     1       2.863  -0.787   0.086  0.00  0.00    +0.042 A 
ATOM     30  N   UNL     1       1.623  -1.256   0.114  0.00  0.00    -0.244 NA
ATOM     31  C   UNL     1       3.986  -1.768  -0.145  0.00  0.00    +0.037 C 
ATOM     32  C   UNL     1       5.254  -1.022  -0.562  0.00  0.00    -0.073 C 
ATOM     33  C   UNL     1       4.504   1.127   0.230  0.00  0.00    -0.042 C 
ATOM     34  C   UNL     1       6.862   0.590   0.268  0.00  0.00    -0.096 C 
ATOM     35  N   UNL     1       5.492   0.053   0.424  0.00  0.00    +0.381 N 
ATOM     36  H   UNL     1       5.390  -0.331   1.371  0.00  0.00    -0.082 HD
BRANCH  26  37
ATOM     37  C   UNL     1      -0.374   1.763   0.740  0.00  0.00    +0.102 C 
ATOM     38  N   UNL     1      -1.268   2.442   0.916  0.00  0.00    -0.191 NA
ENDBRANCH  26  37
ENDBRANCH  24  25
ENDBRANCH  23  24
ENDBRANCH   2  23
TORSDOF 10
