REMARK  Name = ZINC13029897
REMARK  9 active torsions:
REMARK  status: ('A' for Active; 'I' for Inactive)
REMARK    1  A    between atoms: C_1  and  C_2
REMARK    2  A    between atoms: C_5  and  C_7
REMARK    3  A    between atoms: C_8  and  C_9
REMARK    4  A    between atoms: N_11  and  C_12
REMARK    5  A    between atoms: N_11  and  C_19
REMARK    6  A    between atoms: C_12  and  C_13
REMARK    7  A    between atoms: C_20  and  N_35
REMARK    8  A    between atoms: N_21  and  C_28
REMARK    9  A    between atoms: C_28  and  C_29
REMARK                            x       y       z     vdW  Elec       q    Type
REMARK                         _______ _______ _______ _____ _____    ______ ____
ROOT
ATOM      1  C   UNL     1       4.930  -0.183  -2.123  0.00  0.00    +0.140 A 
ATOM      2  C   UNL     1       6.234  -0.002  -1.709  0.00  0.00    +0.128 A 
ATOM      3  N   UNL     1       7.052   0.844  -2.421  0.00  0.00    -0.276 N 
ATOM      4  C   UNL     1       6.584   1.494  -3.502  0.00  0.00    +0.331 A 
ATOM      5  O   UNL     1       7.323   2.241  -4.115  0.00  0.00    -0.246 OA
ATOM      6  N   UNL     1       5.315   1.333  -3.917  0.00  0.00    -0.273 N 
ATOM      7  H   UNL     1       4.992   1.828  -4.723  0.00  0.00    +0.173 HD
ATOM      8  C   UNL     1       4.474   0.513  -3.258  0.00  0.00    +0.277 A 
ATOM      9  O   UNL     1       3.325   0.374  -3.643  0.00  0.00    -0.266 OA
ENDROOT
BRANCH   1  12
ATOM     10  C   UNL     1       3.601  -2.165  -2.007  0.00  0.00    +0.244 C 
ATOM     11  O   UNL     1       3.840  -2.378  -3.183  0.00  0.00    -0.270 OA
ATOM     12  N   UNL     1       4.067  -1.047  -1.416  0.00  0.00    -0.256 N 
BRANCH  10  14
ATOM     13  C   UNL     1       2.365  -4.217  -1.857  0.00  0.00    +0.020 C 
ATOM     14  C   UNL     1       2.834  -3.092  -1.262  0.00  0.00    +0.069 C 
BRANCH  13  19
ATOM     15  C   UNL     1      -0.493  -7.171   1.859  0.00  0.00    +0.051 C 
ATOM     16  C   UNL     1       0.222  -6.567   0.678  0.00  0.00    -0.013 A 
ATOM     17  C   UNL     1       0.327  -7.057  -0.586  0.00  0.00    +0.011 A 
ATOM     18  C   UNL     1       1.025  -6.341  -1.526  0.00  0.00    +0.016 A 
ATOM     19  C   UNL     1       1.598  -5.145  -1.112  0.00  0.00    +0.013 A 
ATOM     20  S   UNL     1       1.107  -5.079   0.602  0.00  0.00    -0.094 S 
ENDBRANCH  13  19
ENDBRANCH  10  14
BRANCH  12  21
ATOM     21  C   UNL     1       3.677  -0.729  -0.040  0.00  0.00    +0.149 C 
BRANCH  21  22
ATOM     22  C   UNL     1       2.368   0.018  -0.049  0.00  0.00    -0.030 A 
ATOM     23  C   UNL     1       1.175  -0.680  -0.079  0.00  0.00    +0.005 A 
ATOM     24  C   UNL     1      -0.026   0.005  -0.087  0.00  0.00    +0.000 A 
ATOM     25  C   UNL     1      -0.034   1.387  -0.065  0.00  0.00    +0.000 A 
ATOM     26  C   UNL     1       1.159   2.084  -0.035  0.00  0.00    +0.000 A 
ATOM     27  C   UNL     1       2.360   1.400  -0.027  0.00  0.00    +0.005 A 
ENDBRANCH  21  22
ENDBRANCH  12  21
ENDBRANCH   1  12
BRANCH   2  28
ATOM     28  N   UNL     1       6.710  -0.661  -0.601  0.00  0.00    -0.343 N 
ATOM     29  H   UNL     1       6.153  -1.313  -0.148  0.00  0.00    +0.144 HD
ATOM     30  H   UNL     1       7.604  -0.475  -0.273  0.00  0.00    +0.144 HD
ENDBRANCH   2  28
BRANCH   3  31
ATOM     31  C   UNL     1       8.440   1.042  -1.996  0.00  0.00    +0.163 C 
BRANCH  31  32
ATOM     32  C   UNL     1       8.509   2.191  -1.024  0.00  0.00    -0.028 A 
ATOM     33  C   UNL     1       8.715   3.477  -1.486  0.00  0.00    +0.005 A 
ATOM     34  C   UNL     1       8.773   4.532  -0.595  0.00  0.00    +0.000 A 
ATOM     35  C   UNL     1       8.635   4.299   0.761  0.00  0.00    +0.000 A 
ATOM     36  C   UNL     1       8.434   3.012   1.224  0.00  0.00    +0.000 A 
ATOM     37  C   UNL     1       8.370   1.958   0.332  0.00  0.00    +0.005 A 
ENDBRANCH  31  32
ENDBRANCH   3  31
TORSDOF 8
