REMARK  Name = ZINC23990006
REMARK  14 active torsions:
REMARK  status: ('A' for Active; 'I' for Inactive)
REMARK    1  A    between atoms: C_1  and  C_2
REMARK    2  A    between atoms: C_2  and  O_3
REMARK    3  A    between atoms: O_3  and  C_4
REMARK    4  A    between atoms: C_4  and  C_6
REMARK    5  A    between atoms: C_7  and  C_19
REMARK    6  A    between atoms: C_12  and  C_14
REMARK    7  A    between atoms: C_19  and  N_20
REMARK    8  A    between atoms: N_20  and  C_21
REMARK    9  A    between atoms: N_20  and  C_25
REMARK   10  A    between atoms: C_21  and  C_22
REMARK   11  A    between atoms: C_22  and  O_23
REMARK   12  A    between atoms: O_23  and  C_24
REMARK   13  A    between atoms: C_25  and  C_26
REMARK   14  A    between atoms: C_29  and  C_31
REMARK                            x       y       z     vdW  Elec       q    Type
REMARK                         _______ _______ _______ _____ _____    ______ ____
ROOT
ATOM      1  C   UNL     1       2.401   6.868  -0.634  0.00  0.00    +0.080 C 
ATOM      2  C   UNL     1       2.243   5.958  -1.620  0.00  0.00    +0.038 C 
ATOM      3  N   UNL     1       1.810   4.692  -1.348  0.00  0.00    -0.271 N 
ATOM      4  C   UNL     1       1.514   4.257  -0.117  0.00  0.00    +0.304 C 
ATOM      5  O   UNL     1       1.135   3.111   0.026  0.00  0.00    -0.252 OA
ATOM      6  N   UNL     1       1.622   5.048   0.968  0.00  0.00    -0.288 N 
ATOM      7  C   UNL     1       2.081   6.435   0.782  0.00  0.00    +0.150 C 
ATOM      8  H   UNL     1       1.688   3.966  -2.165  0.00  0.00    +0.156 HD
ATOM      9  H   UNL     1       1.376   4.680   1.975  0.00  0.00    +0.151 HD
ENDROOT
BRANCH   7  10
ATOM     10  C   UNL     1       3.319   6.631   1.619  0.00  0.00    +0.015 A 
ATOM     11  C   UNL     1       3.655   7.675   2.414  0.00  0.00    +0.013 A 
ATOM     12  C   UNL     1       4.857   7.638   3.097  0.00  0.00    +0.008 A 
ATOM     13  C   UNL     1       5.666   6.561   2.946  0.00  0.00    +0.045 A 
ATOM     14  S   UNL     1       4.723   5.546   1.819  0.00  0.00    -0.099 S 
ENDBRANCH   7  10
BRANCH   1  15
ATOM     15  C   UNL     1       2.849   8.180  -0.914  0.00  0.00    +0.339 C 
ATOM     16  O   UNL     1       3.176   8.482  -2.047  0.00  0.00    -0.245 OA
BRANCH  15  17
ATOM     17  O   UNL     1       2.915   9.096   0.074  0.00  0.00    -0.462 OA
BRANCH  17  19
ATOM     18  C   UNL     1       3.382  11.295   0.962  0.00  0.00    +0.048 C 
ATOM     19  C   UNL     1       3.377  10.401  -0.280  0.00  0.00    +0.229 C 
ENDBRANCH  17  19
ENDBRANCH  15  17
ENDBRANCH   1  15
BRANCH   2  20
ATOM     20  C   UNL     1       2.550   6.347  -3.043  0.00  0.00    +0.136 C 
BRANCH  20  21
ATOM     21  N   UNL     1       1.392   7.039  -3.623  0.00  0.00    -0.286 NA
BRANCH  21  22
ATOM     22  C   UNL     1       0.227   6.146  -3.695  0.00  0.00    +0.113 C 
BRANCH  22  23
ATOM     23  C   UNL     1       0.500   5.033  -4.709  0.00  0.00    +0.174 C 
BRANCH  23  24
ATOM     24  O   UNL     1       1.535   4.181  -4.213  0.00  0.00    -0.382 OA
ATOM     25  C   UNL     1       1.868   3.102  -5.089  0.00  0.00    +0.194 C 
ENDBRANCH  23  24
ENDBRANCH  22  23
ENDBRANCH  21  22
BRANCH  21  26
ATOM     26  C   UNL     1       1.715   7.591  -4.945  0.00  0.00    +0.182 C 
BRANCH  26  27
ATOM     27  C   UNL     1       0.598   8.494  -5.400  0.00  0.00    +0.232 A 
ATOM     28  N   UNL     1       0.504   9.774  -5.174  0.00  0.00    -0.111 NA
ATOM     29  N   UNL     1      -0.576  10.228  -5.706  0.00  0.00    -0.107 NA
ATOM     30  C   UNL     1      -1.216   9.242  -6.296  0.00  0.00    +0.255 A 
ATOM     31  O   UNL     1      -0.480   8.126  -6.116  0.00  0.00    -0.418 OA
BRANCH  30  32
ATOM     32  C   UNL     1      -2.491   9.339  -7.021  0.00  0.00    +0.076 A 
ATOM     33  C   UNL     1      -3.286  10.449  -7.242  0.00  0.00    +0.021 A 
ATOM     34  C   UNL     1      -4.449  10.289  -7.958  0.00  0.00    +0.008 A 
ATOM     35  C   UNL     1      -4.780   9.055  -8.422  0.00  0.00    +0.046 A 
ATOM     36  S   UNL     1      -3.415   8.057  -7.852  0.00  0.00    -0.092 S 
ENDBRANCH  30  32
ENDBRANCH  26  27
ENDBRANCH  21  26
ENDBRANCH  20  21
ENDBRANCH   2  20
TORSDOF 12
