REMARK  Name = ZINC36072562
REMARK  11 active torsions:
REMARK  status: ('A' for Active; 'I' for Inactive)
REMARK    1  A    between atoms: C_1  and  C_2
REMARK    2  A    between atoms: C_2  and  C_3
REMARK    3  A    between atoms: C_3  and  C_5
REMARK    4  A    between atoms: C_3  and  N_6
REMARK    5  A    between atoms: C_7  and  C_9
REMARK    6  A    between atoms: C_12  and  C_14
REMARK    7  A    between atoms: C_14  and  N_15
REMARK    8  A    between atoms: N_15  and  C_16
REMARK    9  A    between atoms: N_15  and  C_24
REMARK   10  A    between atoms: C_16  and  C_17
REMARK   11  A    between atoms: C_24  and  C_25
REMARK                            x       y       z     vdW  Elec       q    Type
REMARK                         _______ _______ _______ _____ _____    ______ ____
ROOT
ATOM      1  N   UNL     1       8.122   0.022  -0.154  0.00  0.00    +0.391 N 
ATOM      2  H   UNL     1       7.489  -0.572   0.360  0.00  0.00    -0.080 HD
ENDROOT
BRANCH   1   3
ATOM      3  C   UNL     1       7.385   1.175  -0.688  0.00  0.00    +0.020 C 
BRANCH   3   7
ATOM      4  C   UNL     1       4.242   0.034  -2.080  0.00  0.00    +0.163 A 
ATOM      5  C   UNL     1       5.022   0.018  -3.195  0.00  0.00    +0.230 A 
ATOM      6  O   UNL     1       6.245   0.428  -2.821  0.00  0.00    -0.449 OA
ATOM      7  C   UNL     1       6.217   0.690  -1.507  0.00  0.00    +0.179 A 
ATOM      8  N   UNL     1       5.021   0.463  -1.051  0.00  0.00    -0.210 NA
BRANCH   4  10
ATOM      9  N   UNL     1       2.165  -0.269  -0.827  0.00  0.00    -0.307 N 
ATOM     10  C   UNL     1       2.817  -0.339  -2.004  0.00  0.00    +0.266 C 
ATOM     11  O   UNL     1       2.231  -0.708  -3.003  0.00  0.00    -0.268 OA
ATOM     12  H   UNL     1       2.632   0.026  -0.030  0.00  0.00    +0.149 HD
BRANCH   9  13
ATOM     13  C   UNL     1       0.749  -0.639  -0.751  0.00  0.00    +0.070 C 
ATOM     14  C   UNL     1       0.627  -2.152  -0.562  0.00  0.00    +0.028 C 
BRANCH  13  16
ATOM     15  C   UNL     1       0.109   1.587   0.186  0.00  0.00    +0.005 C 
ATOM     16  C   UNL     1       0.098   0.077   0.434  0.00  0.00    +0.018 C 
ENDBRANCH  13  16
ENDBRANCH   9  13
ENDBRANCH   4  10
ENDBRANCH   3   7
ENDBRANCH   1   3
BRANCH   1  17
ATOM     17  C   UNL     1       9.188   0.493   0.740  0.00  0.00    -0.042 C 
BRANCH  17  18
ATOM     18  C   UNL     1       8.575   1.153   1.948  0.00  0.00    -0.064 A 
ATOM     19  C   UNL     1       8.409   2.525   1.976  0.00  0.00    +0.004 A 
ATOM     20  C   UNL     1       7.847   3.131   3.084  0.00  0.00    +0.038 A 
ATOM     21  C   UNL     1       7.449   2.364   4.165  0.00  0.00    +0.123 A 
ATOM     22  C   UNL     1       7.615   0.989   4.136  0.00  0.00    +0.038 A 
ATOM     23  C   UNL     1       8.173   0.385   3.025  0.00  0.00    +0.004 A 
ATOM     24  F   UNL     1       6.899   2.955   5.248  0.00  0.00    -0.205 F 
ENDBRANCH  17  18
ENDBRANCH   1  17
BRANCH   1  25
ATOM     25  C   UNL     1       8.714  -0.737  -1.264  0.00  0.00    -0.040 C 
BRANCH  25  26
ATOM     26  C   UNL     1       9.369  -1.983  -0.727  0.00  0.00    -0.044 A 
ATOM     27  C   UNL     1      10.744  -2.038  -0.592  0.00  0.00    +0.003 A 
ATOM     28  C   UNL     1      11.347  -3.180  -0.100  0.00  0.00    +0.002 A 
ATOM     29  C   UNL     1      10.575  -4.269   0.259  0.00  0.00    +0.021 A 
ATOM     30  C   UNL     1       9.200  -4.217   0.125  0.00  0.00    +0.059 A 
ATOM     31  C   UNL     1       8.595  -3.070  -0.363  0.00  0.00    +0.061 A 
ATOM     32 CL   UNL     1       6.869  -2.999  -0.524  0.00  0.00    -0.082 Cl
ATOM     33 CL   UNL     1       8.230  -5.585   0.575  0.00  0.00    -0.082 Cl
ENDBRANCH  25  26
ENDBRANCH   1  25
TORSDOF 9
