REMARK  Name = ZINC40155670
REMARK  6 active torsions:
REMARK  status: ('A' for Active; 'I' for Inactive)
REMARK    1  A    between atoms: C_1  and  C_2
REMARK    2  A    between atoms: C_2  and  N_3
REMARK    3  A    between atoms: N_3  and  C_4
REMARK    4  A    between atoms: N_3  and  C_21
REMARK    5  A    between atoms: C_4  and  C_5
REMARK    6  A    between atoms: C_9  and  C_18
REMARK                            x       y       z     vdW  Elec       q    Type
REMARK                         _______ _______ _______ _____ _____    ______ ____
ROOT
ATOM      1  C   UNL     1      -1.028  -2.241   1.488  0.00  0.00    +0.203 C 
ATOM      2  O   UNL     1      -0.594  -1.394   2.240  0.00  0.00    -0.277 OA
ATOM      3  N   UNL     1      -1.120  -3.522   1.897  0.00  0.00    -0.266 N 
ATOM      4  C   UNL     1      -1.566  -4.585   0.979  0.00  0.00    +0.168 C 
ATOM      5  C   UNL     1      -2.521  -5.500   1.759  0.00  0.00    +0.276 C 
ATOM      6  O   UNL     1      -1.833  -6.022   2.897  0.00  0.00    -0.476 OA
ATOM      7  C   UNL     1      -1.164  -5.145   3.691  0.00  0.00    +0.143 A 
ATOM      8  C   UNL     1      -0.789  -3.891   3.212  0.00  0.00    +0.078 A 
ATOM      9  C   UNL     1      -0.098  -3.010   4.027  0.00  0.00    +0.027 A 
ATOM     10  C   UNL     1       0.223  -3.377   5.322  0.00  0.00    +0.002 A 
ATOM     11  C   UNL     1      -0.145  -4.620   5.800  0.00  0.00    +0.004 A 
ATOM     12  C   UNL     1      -0.845  -5.503   4.992  0.00  0.00    +0.047 A 
ENDROOT
BRANCH   5  13
ATOM     13  C   UNL     1      -2.971  -6.632   0.873  0.00  0.00    +0.253 C 
ATOM     14  O   UNL     1      -2.659  -7.773   1.141  0.00  0.00    -0.272 OA
ATOM     15  N   UNL     1      -3.721  -6.378  -0.218  0.00  0.00    -0.326 N 
ATOM     16  H   UNL     1      -3.970  -5.466  -0.433  0.00  0.00    +0.145 HD
ATOM     17  H   UNL     1      -4.010  -7.107  -0.788  0.00  0.00    +0.145 HD
ENDBRANCH   5  13
BRANCH   1  18
ATOM     18  C   UNL     1      -1.463  -1.861   0.096  0.00  0.00    +0.019 C 
BRANCH  18  19
ATOM     19  N   UNL     1      -1.341  -0.408  -0.076  0.00  0.00    +0.387 N 
ATOM     20  H   UNL     1      -1.861   0.062   0.650  0.00  0.00    -0.081 HD
BRANCH  19  21
ATOM     21  C   UNL     1      -1.877  -0.023  -1.389  0.00  0.00    -0.062 C 
ATOM     22  C   UNL     1      -1.636   1.470  -1.620  0.00  0.00    -0.024 C 
ATOM     23  C   UNL     1      -2.339   2.276  -0.526  0.00  0.00    +0.005 C 
ATOM     24  C   UNL     1      -3.841   1.990  -0.568  0.00  0.00    -0.010 C 
ATOM     25  C   UNL     1      -4.399   2.391  -1.935  0.00  0.00    +0.007 C 
ATOM     26  C   UNL     1      -3.696   1.585  -3.029  0.00  0.00    -0.010 C 
ATOM     27  C   UNL     1      -2.194   1.871  -2.987  0.00  0.00    +0.005 C 
ATOM     28  C   UNL     1      -3.938   0.092  -2.797  0.00  0.00    +0.005 C 
ATOM     29  C   UNL     1      -3.379  -0.309  -1.430  0.00  0.00    -0.024 C 
ATOM     30  C   UNL     1      -4.082   0.497  -0.336  0.00  0.00    +0.005 C 
ENDBRANCH  19  21
BRANCH  19  32
ATOM     31  C   UNL     1       0.841  -0.638  -1.164  0.00  0.00    -0.017 C 
ATOM     32  C   UNL     1       0.074  -0.022   0.007  0.00  0.00    -0.081 C 
ENDBRANCH  19  32
ENDBRANCH  18  19
ENDBRANCH   1  18
TORSDOF 5
