REMARK  Name = ZINC36628740
REMARK  10 active torsions:
REMARK  status: ('A' for Active; 'I' for Inactive)
REMARK    1  A    between atoms: C_1  and  C_2
REMARK    2  A    between atoms: C_2  and  C_3
REMARK    3  A    between atoms: C_2  and  N_4
REMARK    4  A    between atoms: C_10  and  N_15
REMARK    5  A    between atoms: C_11  and  C_12
REMARK    6  A    between atoms: C_16  and  C_18
REMARK    7  A    between atoms: C_18  and  C_19
REMARK    8  A    between atoms: C_18  and  C_20
REMARK    9  A    between atoms: C_18  and  O_21
REMARK   10  A    between atoms: O_21  and  C_22
REMARK                            x       y       z     vdW  Elec       q    Type
REMARK                         _______ _______ _______ _____ _____    ______ ____
ROOT
ATOM      1  N   UNL     1       1.889   2.034   3.443  0.00  0.00    +0.384 N 
ATOM      2  C   UNL     1       3.232   1.441   3.401  0.00  0.00    -0.073 C 
ATOM      3  C   UNL     1       3.956   1.678   4.731  0.00  0.00    +0.018 C 
ATOM      4  C   UNL     1       3.041   1.204   5.852  0.00  0.00    -0.027 A 
ATOM      5  C   UNL     1       1.723   1.012   5.617  0.00  0.00    -0.021 A 
ATOM      6  S   UNL     1       1.068   0.472   7.167  0.00  0.00    -0.079 S 
ATOM      7  C   UNL     1       2.469   0.499   8.095  0.00  0.00    +0.084 A 
ATOM      8  C   UNL     1       3.452   0.924   7.213  0.00  0.00    +0.068 A 
ATOM      9  C   UNL     1       1.017   1.225   4.316  0.00  0.00    -0.035 C 
ATOM     10  H   UNL     1       1.948   2.974   3.806  0.00  0.00    -0.081 HD
ENDROOT
BRANCH   8  11
ATOM     11  C   UNL     1       4.845   1.083   7.640  0.00  0.00    +0.244 C 
ATOM     12  O   UNL     1       5.228   2.150   8.082  0.00  0.00    -0.270 OA
ATOM     13  N   UNL     1       5.702   0.047   7.542  0.00  0.00    -0.325 N 
ATOM     14  H   UNL     1       5.397  -0.803   7.190  0.00  0.00    +0.145 HD
ATOM     15  H   UNL     1       6.624   0.152   7.825  0.00  0.00    +0.145 HD
ENDBRANCH   8  11
BRANCH   7  16
ATOM     16  N   UNL     1       2.610   0.171   9.435  0.00  0.00    -0.276 N 
ATOM     17  C   UNL     1       1.538  -0.227  10.148  0.00  0.00    +0.261 C 
ATOM     18  O   UNL     1       0.449  -0.299   9.617  0.00  0.00    -0.271 OA
ATOM     19  H   UNL     1       3.480   0.229   9.859  0.00  0.00    +0.155 HD
BRANCH  17  20
ATOM     20  C   UNL     1       1.691  -0.583  11.604  0.00  0.00    +0.180 C 
ATOM     21  C   UNL     1       2.679  -1.742  11.744  0.00  0.00    +0.065 C 
ATOM     22  C   UNL     1       2.216   0.631  12.373  0.00  0.00    +0.065 C 
BRANCH  20  23
ATOM     23  O   UNL     1       0.422  -0.971  12.136  0.00  0.00    -0.477 OA
BRANCH  23  24
ATOM     24  C   UNL     1      -0.571  -0.045  12.100  0.00  0.00    +0.122 A 
ATOM     25  C   UNL     1      -0.366   1.170  11.463  0.00  0.00    +0.047 A 
ATOM     26  C   UNL     1      -1.377   2.111  11.428  0.00  0.00    +0.023 A 
ATOM     27  C   UNL     1      -2.594   1.842  12.029  0.00  0.00    +0.041 A 
ATOM     28  C   UNL     1      -2.801   0.631  12.666  0.00  0.00    +0.023 A 
ATOM     29  C   UNL     1      -1.794  -0.315  12.697  0.00  0.00    +0.047 A 
ATOM     30 CL   UNL     1      -3.863   3.026  11.985  0.00  0.00    -0.084 Cl
ENDBRANCH  23  24
ENDBRANCH  20  23
ENDBRANCH  17  20
ENDBRANCH   7  16
BRANCH   1  32
ATOM     31  C   UNL     1      -0.086   2.653   2.135  0.00  0.00    -0.014 C 
ATOM     32  C   UNL     1       1.327   2.068   2.087  0.00  0.00    -0.074 C 
ATOM     33  C   UNL     1       2.209   2.939   1.191  0.00  0.00    -0.014 C 
ENDBRANCH   1  32
TORSDOF 6
