REMARK  Name = ZINC03440551
REMARK  5 active torsions:
REMARK  status: ('A' for Active; 'I' for Inactive)
REMARK    1  A    between atoms: C_2  and  N_21
REMARK    2  A    between atoms: C_4  and  C_11
REMARK    3  A    between atoms: C_11  and  S_12
REMARK    4  A    between atoms: S_12  and  C_13
REMARK    5  A    between atoms: C_17  and  N_19
REMARK                            x       y       z     vdW  Elec       q    Type
REMARK                         _______ _______ _______ _____ _____    ______ ____
ROOT
ATOM      1  C   UNL     1       3.721  -0.695  -0.044  0.00  0.00    +0.116 C 
ENDROOT
BRANCH   1   5
ATOM      2  C   UNL     1      -0.017   1.378   0.010  0.00  0.00    +0.042 A 
ATOM      3  C   UNL     1       1.170   2.088   0.002  0.00  0.00    +0.127 A 
ATOM      4  C   UNL     1       2.379   1.417  -0.014  0.00  0.00    +0.040 A 
ATOM      5  C   UNL     1       2.403   0.036  -0.025  0.00  0.00    +0.007 A 
ATOM      6  C   UNL     1       1.213  -0.679  -0.017  0.00  0.00    +0.133 A 
ATOM      7  C   UNL     1       0.002  -0.004   0.002  0.00  0.00    +0.022 A 
ATOM      8  C   UNL     1      -1.298  -0.768   0.019  0.00  0.00    +0.202 C 
ATOM      9  O   UNL     1      -1.054  -2.125  -0.363  0.00  0.00    -0.339 OA
ATOM     10  C   UNL     1       0.044  -2.718   0.343  0.00  0.00    +0.394 C 
ATOM     11  O   UNL     1       1.246  -2.038  -0.031  0.00  0.00    -0.466 OA
BRANCH   3  12
ATOM     12  N   UNL     1       1.146   3.567   0.011  0.00  0.00    +0.056 N 
ATOM     13  O   UNL     1       0.089   4.155   0.025  0.00  0.00    -0.126 OA
ATOM     14  O   UNL     1       2.183   4.189   0.004  0.00  0.00    -0.126 OA
ENDBRANCH   3  12
ENDBRANCH   1   5
BRANCH   1  15
ATOM     15  S   UNL     1       4.268  -1.000   1.658  0.00  0.00    -0.081 S 
BRANCH  15  16
ATOM     16  C   UNL     1       5.800  -1.850   1.467  0.00  0.00    +0.192 A 
ATOM     17  N   UNL     1       6.255  -2.094   0.246  0.00  0.00    -0.207 NA
ATOM     18  C   UNL     1       7.408  -2.732   0.064  0.00  0.00    +0.122 A 
ATOM     19  C   UNL     1       8.138  -3.144   1.175  0.00  0.00    +0.086 A 
ATOM     20  C   UNL     1       7.629  -2.870   2.441  0.00  0.00    +0.122 A 
ATOM     21  N   UNL     1       6.471  -2.223   2.547  0.00  0.00    -0.207 NA
ATOM     22  N   UNL     1       7.877  -2.984  -1.217  0.00  0.00    -0.343 N 
ATOM     23  H   UNL     1       7.363  -2.695  -1.987  0.00  0.00    +0.144 HD
ATOM     24  H   UNL     1       8.718  -3.450  -1.342  0.00  0.00    +0.144 HD
BRANCH  20  25
ATOM     25  N   UNL     1       8.321  -3.261   3.576  0.00  0.00    -0.343 N 
ATOM     26  H   UNL     1       9.166  -3.730   3.492  0.00  0.00    +0.144 HD
ATOM     27  H   UNL     1       7.960  -3.067   4.456  0.00  0.00    +0.144 HD
ENDBRANCH  20  25
ENDBRANCH  15  16
ENDBRANCH   1  15
TORSDOF 5
