REMARK  Name = ZINC09663187
REMARK  11 active torsions:
REMARK  status: ('A' for Active; 'I' for Inactive)
REMARK    1  A    between atoms: C_1  and  O_2
REMARK    2  A    between atoms: O_2  and  C_3
REMARK    3  A    between atoms: C_8  and  O_9
REMARK    4  A    between atoms: O_9  and  C_10
REMARK    5  A    between atoms: C_11  and  C_32
REMARK    6  A    between atoms: C_15  and  C_16
REMARK    7  A    between atoms: C_15  and  N_62
REMARK    8  A    between atoms: C_23  and  O_30
REMARK    9  A    between atoms: C_24  and  O_28
REMARK   10  A    between atoms: O_28  and  C_29
REMARK   11  A    between atoms: O_30  and  C_31
REMARK                            x       y       z     vdW  Elec       q    Type
REMARK                         _______ _______ _______ _____ _____    ______ ____
ROOT
ATOM      1  C   UNL     1       2.383   1.423  -0.012  0.00  0.00    +0.162 A 
ATOM      2  C   UNL     1       2.397   0.039  -0.019  0.00  0.00    +0.053 A 
ATOM      3  C   UNL     1       1.207  -0.674  -0.014  0.00  0.00    -0.043 A 
ATOM      4  C   UNL     1       0.002  -0.004   0.002  0.00  0.00    -0.049 A 
ATOM      5  C   UNL     1      -0.017   1.383   0.010  0.00  0.00    +0.052 A 
ATOM      6  C   UNL     1       1.167   2.100   0.002  0.00  0.00    +0.162 A 
ATOM      7  C   UNL     1      -1.314  -0.737   0.015  0.00  0.00    +0.001 C 
ATOM      8  C   UNL     1      -0.072  -2.767   0.394  0.00  0.00    -0.072 C 
ATOM      9  C   UNL     1       1.275  -2.180  -0.029  0.00  0.00    +0.017 C 
ATOM     10  N   UNL     1      -1.120  -2.128  -0.427  0.00  0.00    +0.392 N 
ATOM     11  H   UNL     1      -0.824  -2.129  -1.410  0.00  0.00    -0.080 HD
ENDROOT
BRANCH   7  12
ATOM     12  C   UNL     1      -2.272  -0.055  -0.927  0.00  0.00    -0.019 A 
ATOM     13  C   UNL     1      -3.277   0.810  -0.646  0.00  0.00    +0.010 A 
ATOM     14  C   UNL     1      -4.034   1.319  -1.684  0.00  0.00    +0.008 A 
ATOM     15  C   UNL     1      -3.757   0.929  -2.952  0.00  0.00    +0.045 A 
ATOM     16  S   UNL     1      -2.384  -0.184  -2.705  0.00  0.00    -0.103 S 
ENDBRANCH   7  12
BRANCH   1  18
ATOM     17  C   UNL     1       4.760   1.355  -0.031  0.00  0.00    +0.277 C 
ATOM     18  O   UNL     1       3.551   2.118  -0.017  0.00  0.00    -0.491 OA
ENDBRANCH   1  18
BRANCH   6  19
ATOM     19  O   UNL     1       1.142   3.459   0.008  0.00  0.00    -0.491 OA
ATOM     20  C   UNL     1      -0.143   4.085   0.022  0.00  0.00    +0.277 C 
ENDBRANCH   6  19
BRANCH  10  21
ATOM     21  C   UNL     1      -2.390  -2.880  -0.305  0.00  0.00    -0.002 C 
BRANCH  21  22
ATOM     22  C   UNL     1      -2.229  -4.223  -0.969  0.00  0.00    +0.094 A 
ATOM     23  N   UNL     1      -3.292  -5.069  -0.981  0.00  0.00    -0.312 N 
ATOM     24  H   UNL     1      -4.126  -4.798  -0.566  0.00  0.00    +0.170 HD
ATOM     25  C   UNL     1      -3.199  -6.286  -1.565  0.00  0.00    +0.259 A 
ATOM     26  O   UNL     1      -4.144  -7.053  -1.581  0.00  0.00    -0.267 OA
ATOM     27  C   UNL     1      -1.913  -6.646  -2.177  0.00  0.00    +0.068 A 
ATOM     28  C   UNL     1      -1.717  -7.877  -2.804  0.00  0.00    +0.064 A 
ATOM     29  C   UNL     1      -0.490  -8.167  -3.364  0.00  0.00    +0.162 A 
ATOM     30  C   UNL     1       0.553  -7.235  -3.306  0.00  0.00    +0.164 A 
ATOM     31  C   UNL     1       0.371  -6.013  -2.688  0.00  0.00    +0.078 A 
ATOM     32  C   UNL     1      -0.863  -5.703  -2.117  0.00  0.00    +0.082 A 
ATOM     33  N   UNL     1      -1.082  -4.511  -1.506  0.00  0.00    -0.236 NA
BRANCH  30  34
ATOM     34  O   UNL     1       1.754  -7.536  -3.862  0.00  0.00    -0.491 OA
ATOM     35  C   UNL     1       2.778  -6.543  -3.771  0.00  0.00    +0.277 C 
ENDBRANCH  30  34
BRANCH  29  36
ATOM     36  O   UNL     1      -0.292  -9.365  -3.976  0.00  0.00    -0.491 OA
ATOM     37  C   UNL     1      -1.397 -10.271  -4.000  0.00  0.00    +0.277 C 
ENDBRANCH  29  36
ENDBRANCH  21  22
ENDBRANCH  10  21
TORSDOF 7
