REMARK  Name = ZINC08870815
REMARK  7 active torsions:
REMARK  status: ('A' for Active; 'I' for Inactive)
REMARK    1  A    between atoms: C_7  and  N_22
REMARK    2  A    between atoms: C_9  and  S_12
REMARK    3  A    between atoms: C_10  and  O_11
REMARK    4  A    between atoms: S_12  and  C_13
REMARK    5  A    between atoms: N_22  and  S_23
REMARK    6  A    between atoms: S_23  and  C_26
REMARK    7  A    between atoms: C_30  and  N_32
REMARK                            x       y       z     vdW  Elec       q    Type
REMARK                         _______ _______ _______ _____ _____    ______ ____
ROOT
ATOM      1  C   UNL     1       0.654   4.899  -5.490  0.00  0.00    +0.001 A 
ATOM      2  C   UNL     1      -0.385   4.401  -6.276  0.00  0.00    +0.001 A 
ATOM      3  C   UNL     1      -1.663   4.374  -5.810  0.00  0.00    +0.012 A 
ATOM      4  C   UNL     1      -1.944   4.855  -4.519  0.00  0.00    +0.026 A 
ATOM      5  C   UNL     1      -0.888   5.366  -3.723  0.00  0.00    +0.008 A 
ATOM      6  C   UNL     1       0.419   5.372  -4.236  0.00  0.00    +0.010 A 
ATOM      7  C   UNL     1      -1.164   5.844  -2.425  0.00  0.00    +0.057 A 
ATOM      8  C   UNL     1      -2.455   5.818  -1.948  0.00  0.00    +0.044 A 
ATOM      9  C   UNL     1      -3.497   5.320  -2.734  0.00  0.00    +0.061 A 
ATOM     10  C   UNL     1      -3.254   4.841  -4.008  0.00  0.00    +0.138 A 
ENDROOT
BRANCH  10  11
ATOM     11  O   UNL     1      -4.278   4.357  -4.763  0.00  0.00    -0.505 OA
ATOM     12  H   UNL     1      -4.711   5.025  -5.311  0.00  0.00    +0.292 HD
ENDBRANCH  10  11
BRANCH   7  13
ATOM     13  N   UNL     1      -0.132   6.345  -1.628  0.00  0.00    -0.216 N 
ATOM     14  H   UNL     1       0.599   6.837  -2.034  0.00  0.00    +0.174 HD
BRANCH  13  15
ATOM     15  S   UNL     1      -0.157   6.101   0.010  0.00  0.00    +0.072 S 
ATOM     16  O   UNL     1      -1.417   6.569   0.471  0.00  0.00    -0.150 OA
ATOM     17  O   UNL     1       1.073   6.602   0.514  0.00  0.00    -0.150 OA
BRANCH  15  18
ATOM     18  C   UNL     1      -0.139   4.359   0.277  0.00  0.00    +0.111 A 
ATOM     19  C   UNL     1       1.066   3.692   0.403  0.00  0.00    +0.029 A 
ATOM     20  C   UNL     1       1.081   2.326   0.613  0.00  0.00    +0.004 A 
ATOM     21  C   UNL     1      -0.109   1.627   0.697  0.00  0.00    +0.033 A 
ATOM     22  C   UNL     1      -1.313   2.293   0.566  0.00  0.00    +0.128 A 
ATOM     23  C   UNL     1      -1.328   3.660   0.361  0.00  0.00    +0.061 A 
BRANCH  22  24
ATOM     24  N   UNL     1      -2.587   1.544   0.650  0.00  0.00    +0.056 N 
ATOM     25  O   UNL     1      -2.574   0.340   0.835  0.00  0.00    -0.126 OA
ATOM     26  O   UNL     1      -3.648   2.131   0.535  0.00  0.00    -0.126 OA
ENDBRANCH  22  24
ENDBRANCH  15  18
ENDBRANCH  13  15
ENDBRANCH   7  13
BRANCH   9  27
ATOM     27  S   UNL     1      -5.139   5.302  -2.095  0.00  0.00    -0.027 S 
BRANCH  27  28
ATOM     28  C   UNL     1      -5.823   6.669  -2.971  0.00  0.00    +0.263 A 
ATOM     29  N   UNL     1      -5.149   7.469  -3.759  0.00  0.00    -0.203 NA
ATOM     30  C   UNL     1      -6.000   8.403  -4.263  0.00  0.00    +0.110 A 
ATOM     31  C   UNL     1      -5.840   9.480  -5.137  0.00  0.00    +0.031 A 
ATOM     32  C   UNL     1      -6.925  10.267  -5.457  0.00  0.00    +0.002 A 
ATOM     33  C   UNL     1      -8.173   9.994  -4.918  0.00  0.00    +0.004 A 
ATOM     34  C   UNL     1      -8.345   8.932  -4.054  0.00  0.00    +0.048 A 
ATOM     35  C   UNL     1      -7.265   8.131  -3.720  0.00  0.00    +0.156 A 
ATOM     36  O   UNL     1      -7.113   7.048  -2.924  0.00  0.00    -0.430 OA
ENDBRANCH  27  28
ENDBRANCH   9  27
TORSDOF 7
