REMARK  Name = ZINC33050321
REMARK  4 active torsions:
REMARK  status: ('A' for Active; 'I' for Inactive)
REMARK    1  A    between atoms: C_1  and  C_2
REMARK    2  A    between atoms: C_9  and  C_11
REMARK    3  A    between atoms: C_11  and  C_12
REMARK    4  A    between atoms: C_12  and  N_13
REMARK                            x       y       z     vdW  Elec       q    Type
REMARK                         _______ _______ _______ _____ _____    ______ ____
ROOT
ATOM      1  N   UNL     1       0.390   3.310  -0.066  0.00  0.00    -0.224 N 
ATOM      2  C   UNL     1      -0.938   3.547  -0.081  0.00  0.00    +0.247 C 
ATOM      3  O   UNL     1      -1.491   4.626  -0.082  0.00  0.00    -0.273 OA
ATOM      4  C   UNL     1      -1.591   2.184  -0.100  0.00  0.00    +0.113 C 
ATOM      5  C   UNL     1      -2.459   1.994   1.139  0.00  0.00    +0.035 C 
ATOM      6  C   UNL     1      -3.081   0.595   1.118  0.00  0.00    +0.003 C 
ATOM      7  C   UNL     1      -3.926   0.434  -0.147  0.00  0.00    +0.000 C 
ATOM      8  C   UNL     1      -3.039   0.606  -1.382  0.00  0.00    +0.003 C 
ATOM      9  C   UNL     1      -2.417   2.005  -1.370  0.00  0.00    +0.035 C 
ATOM     10  N   UNL     1      -0.461   1.247  -0.086  0.00  0.00    -0.285 N 
ATOM     11  C   UNL     1       0.656   1.998  -0.069  0.00  0.00    +0.309 C 
ATOM     12  O   UNL     1       1.781   1.537  -0.057  0.00  0.00    -0.252 OA
ATOM     13  H   UNL     1      -0.646   0.162  -0.090  0.00  0.00    +0.151 HD
ENDROOT
BRANCH   1  14
ATOM     14  C   UNL     1       1.413   4.358  -0.049  0.00  0.00    +0.127 C 
BRANCH  14  15
ATOM     15  C   UNL     1       1.787   4.729  -1.485  0.00  0.00    +0.115 C 
BRANCH  15  23
ATOM     16  C   UNL     1       4.341   8.045  -1.240  0.00  0.00    +0.030 C 
ATOM     17  C   UNL     1       4.257   7.432  -2.640  0.00  0.00    +0.099 C 
ATOM     18  C   UNL     1       3.739   8.477  -3.628  0.00  0.00    +0.182 C 
ATOM     19  O   UNL     1       3.484   7.851  -4.888  0.00  0.00    -0.376 OA
ATOM     20  C   UNL     1       2.474   6.840  -4.845  0.00  0.00    +0.179 C 
ATOM     21  C   UNL     1       2.932   5.707  -3.918  0.00  0.00    +0.136 C 
ATOM     22  N   UNL     1       3.325   6.294  -2.627  0.00  0.00    -0.294 N 
ATOM     23  C   UNL     1       2.840   5.807  -1.468  0.00  0.00    +0.217 C 
ATOM     24  O   UNL     1       3.251   6.236  -0.411  0.00  0.00    -0.276 OA
ENDBRANCH  15  23
ENDBRANCH  14  15
ENDBRANCH   1  14
TORSDOF 3
