REMARK  Name = ZINC35746554
REMARK  16 active torsions:
REMARK  status: ('A' for Active; 'I' for Inactive)
REMARK    1  A    between atoms: C_1  and  C_2
REMARK    2  A    between atoms: C_2  and  O_3
REMARK    3  A    between atoms: O_3  and  C_4
REMARK    4  A    between atoms: C_4  and  C_6
REMARK    5  A    between atoms: C_7  and  C_39
REMARK    6  A    between atoms: C_13  and  C_17
REMARK    7  A    between atoms: C_17  and  N_18
REMARK    8  A    between atoms: N_18  and  C_19
REMARK    9  A    between atoms: N_18  and  C_26
REMARK   10  A    between atoms: C_19  and  C_20
REMARK   11  A    between atoms: C_26  and  C_27
REMARK   12  A    between atoms: C_27  and  C_29
REMARK   13  A    between atoms: C_27  and  O_38
REMARK   14  A    between atoms: C_29  and  O_30
REMARK   15  A    between atoms: O_30  and  C_31
REMARK   16  A    between atoms: C_31  and  C_32
REMARK                            x       y       z     vdW  Elec       q    Type
REMARK                         _______ _______ _______ _____ _____    ______ ____
ROOT
ATOM      1  N   UNL     1       5.155  -2.898   8.042  0.00  0.00    +0.389 N 
ATOM      2  H   UNL     1       5.640  -2.151   7.568  0.00  0.00    -0.081 HD
ENDROOT
BRANCH   1   3
ATOM      3  C   UNL     1       5.312  -4.144   7.279  0.00  0.00    -0.003 C 
BRANCH   3  11
ATOM      4  C   UNL     1       3.073  -1.825   1.838  0.00  0.00    +0.102 A 
ATOM      5  C   UNL     1       3.510  -3.105   2.025  0.00  0.00    -0.015 A 
ATOM      6  C   UNL     1       3.984  -3.501   3.277  0.00  0.00    +0.076 A 
ATOM      7  C   UNL     1       4.502  -4.819   3.708  0.00  0.00    +0.260 A 
ATOM      8  O   UNL     1       4.561  -5.753   2.927  0.00  0.00    -0.267 OA
ATOM      9  N   UNL     1       4.906  -4.960   4.986  0.00  0.00    -0.312 N 
ATOM     10  H   UNL     1       5.247  -5.818   5.284  0.00  0.00    +0.170 HD
ATOM     11  C   UNL     1       4.846  -3.928   5.863  0.00  0.00    +0.094 A 
ATOM     12  N   UNL     1       4.395  -2.753   5.516  0.00  0.00    -0.229 NA
ATOM     13  C   UNL     1       3.971  -2.507   4.283  0.00  0.00    +0.116 A 
ATOM     14  S   UNL     1       3.316  -1.086   3.444  0.00  0.00    -0.062 S 
ATOM     15  C   UNL     1       3.481  -4.088   0.883  0.00  0.00    +0.046 C 
BRANCH   4  16
ATOM     16  C   UNL     1       2.543  -1.210   0.619  0.00  0.00    +0.346 C 
ATOM     17  O   UNL     1       2.444  -1.866  -0.400  0.00  0.00    -0.244 OA
BRANCH  16  18
ATOM     18  O   UNL     1       2.163   0.085   0.628  0.00  0.00    -0.461 OA
BRANCH  18  20
ATOM     19  C   UNL     1       1.280   2.089  -0.393  0.00  0.00    +0.048 C 
ATOM     20  C   UNL     1       1.655   0.620  -0.596  0.00  0.00    +0.229 C 
ENDBRANCH  18  20
ENDBRANCH  16  18
ENDBRANCH   4  16
ENDBRANCH   3  11
ENDBRANCH   1   3
BRANCH   1  21
ATOM     21  C   UNL     1       3.728  -2.566   8.149  0.00  0.00    -0.042 C 
BRANCH  21  22
ATOM     22  C   UNL     1       2.982  -3.737   8.735  0.00  0.00    -0.064 A 
ATOM     23  C   UNL     1       2.441  -4.699   7.902  0.00  0.00    +0.002 A 
ATOM     24  C   UNL     1       1.757  -5.773   8.439  0.00  0.00    +0.000 A 
ATOM     25  C   UNL     1       1.614  -5.885   9.810  0.00  0.00    +0.000 A 
ATOM     26  C   UNL     1       2.155  -4.924  10.642  0.00  0.00    +0.000 A 
ATOM     27  C   UNL     1       2.843  -3.852  10.105  0.00  0.00    +0.002 A 
ENDBRANCH  21  22
ENDBRANCH   1  21
BRANCH   1  28
ATOM     28  C   UNL     1       5.719  -3.073   9.387  0.00  0.00    -0.044 C 
BRANCH  28  29
ATOM     29  C   UNL     1       5.896  -1.704  10.047  0.00  0.00    +0.124 C 
BRANCH  29  30
ATOM     30  O   UNL     1       4.613  -1.128  10.300  0.00  0.00    -0.391 OA
ATOM     31  H   UNL     1       4.100  -1.591  10.977  0.00  0.00    +0.210 HD
ENDBRANCH  29  30
BRANCH  29  32
ATOM     32  C   UNL     1       6.650  -1.869  11.368  0.00  0.00    +0.189 C 
BRANCH  32  33
ATOM     33  O   UNL     1       6.917  -0.582  11.928  0.00  0.00    -0.373 OA
BRANCH  33  34
ATOM     34  C   UNL     1       7.622  -0.623  13.171  0.00  0.00    +0.195 C 
BRANCH  34  35
ATOM     35  C   UNL     1       7.848   0.781  13.667  0.00  0.00    -0.022 A 
ATOM     36  C   UNL     1       8.991   1.468  13.300  0.00  0.00    +0.006 A 
ATOM     37  C   UNL     1       9.199   2.757  13.755  0.00  0.00    +0.000 A 
ATOM     38  C   UNL     1       8.264   3.359  14.576  0.00  0.00    +0.000 A 
ATOM     39  C   UNL     1       7.121   2.673  14.942  0.00  0.00    +0.000 A 
ATOM     40  C   UNL     1       6.911   1.386  14.483  0.00  0.00    +0.006 A 
ENDBRANCH  34  35
ENDBRANCH  33  34
ENDBRANCH  32  33
ENDBRANCH  29  32
ENDBRANCH  28  29
ENDBRANCH   1  28
TORSDOF 14
