REMARK  Name = ZINC36624362
REMARK  7 active torsions:
REMARK  status: ('A' for Active; 'I' for Inactive)
REMARK    1  A    between atoms: C_3  and  C_6
REMARK    2  A    between atoms: C_6  and  C_8
REMARK    3  A    between atoms: C_6  and  N_27
REMARK    4  A    between atoms: C_8  and  N_9
REMARK    5  A    between atoms: C_10  and  C_12
REMARK    6  A    between atoms: C_16  and  N_18
REMARK    7  A    between atoms: C_19  and  C_21
REMARK                            x       y       z     vdW  Elec       q    Type
REMARK                         _______ _______ _______ _____ _____    ______ ____
ROOT
ATOM      1  N   UNL     1       5.659   1.963   0.415  0.00  0.00    -0.313 N 
ATOM      2  C   UNL     1       6.270   1.838   1.610  0.00  0.00    +0.244 C 
ATOM      3  O   UNL     1       5.633   1.489   2.584  0.00  0.00    -0.270 OA
ATOM      4  H   UNL     1       6.168   2.242  -0.363  0.00  0.00    +0.149 HD
ENDROOT
BRANCH   2   5
ATOM      5  C   UNL     1       7.714   2.127   1.736  0.00  0.00    +0.039 A 
ATOM      6  C   UNL     1       8.447   2.534   0.619  0.00  0.00    +0.014 A 
ATOM      7  C   UNL     1       9.794   2.803   0.738  0.00  0.00    +0.022 A 
ATOM      8  C   UNL     1      10.425   2.670   1.963  0.00  0.00    +0.062 A 
ATOM      9  C   UNL     1       9.704   2.265   3.081  0.00  0.00    +0.053 A 
ATOM     10  C   UNL     1       8.348   1.999   2.972  0.00  0.00    +0.037 A 
ATOM     11 CL   UNL     1      12.121   3.010   2.103  0.00  0.00    -0.082 Cl
BRANCH   9  12
ATOM     12  N   UNL     1      10.345   2.131   4.317  0.00  0.00    -0.280 N 
ATOM     13  C   UNL     1       9.685   2.427   5.454  0.00  0.00    +0.255 C 
ATOM     14  O   UNL     1       8.506   2.724   5.414  0.00  0.00    -0.269 OA
ATOM     15  H   UNL     1      11.265   1.826   4.355  0.00  0.00    +0.155 HD
BRANCH  13  16
ATOM     16  C   UNL     1      10.388   2.390   6.740  0.00  0.00    +0.074 A 
ATOM     17  C   UNL     1       9.899   2.651   8.011  0.00  0.00    +0.021 A 
ATOM     18  C   UNL     1      10.808   2.534   9.036  0.00  0.00    +0.008 A 
ATOM     19  C   UNL     1      12.085   2.181   8.747  0.00  0.00    +0.046 A 
ATOM     20  S   UNL     1      12.092   1.991   7.078  0.00  0.00    -0.092 S 
ENDBRANCH  13  16
ENDBRANCH   9  12
ENDBRANCH   2   5
BRANCH   1  21
ATOM     21  C   UNL     1       4.228   1.677   0.290  0.00  0.00    +0.094 C 
BRANCH  21  22
ATOM     22  C   UNL     1       3.815   1.774  -1.180  0.00  0.00    -0.013 C 
BRANCH  22  23
ATOM     23  N   UNL     1       2.411   1.365  -1.322  0.00  0.00    +0.386 N 
ATOM     24  C   UNL     1       2.045   1.279  -2.759  0.00  0.00    -0.078 C 
ATOM     25  C   UNL     1       0.815   0.337  -2.755  0.00  0.00    -0.020 C 
ATOM     26  C   UNL     1       1.172  -0.695  -1.661  0.00  0.00    -0.020 C 
ATOM     27  C   UNL     1       2.217   0.005  -0.774  0.00  0.00    -0.078 C 
ATOM     28  H   UNL     1       1.808   2.021  -0.848  0.00  0.00    -0.081 HD
ENDBRANCH  22  23
BRANCH  22  31
ATOM     29  C   UNL     1       4.916   5.088  -2.701  0.00  0.00    +0.008 A 
ATOM     30  C   UNL     1       4.981   3.746  -2.376  0.00  0.00    +0.009 A 
ATOM     31  C   UNL     1       3.975   3.195  -1.654  0.00  0.00    -0.022 A 
ATOM     32  S   UNL     1       2.888   4.591  -1.410  0.00  0.00    -0.103 S 
ATOM     33  C   UNL     1       3.848   5.814  -2.287  0.00  0.00    +0.045 A 
ENDBRANCH  22  31
ENDBRANCH  21  22
ENDBRANCH   1  21
TORSDOF 7
