REMARK  Name = ZINC03304425
REMARK  9 active torsions:
REMARK  status: ('A' for Active; 'I' for Inactive)
REMARK    1  A    between atoms: C_1  and  N_57
REMARK    2  A    between atoms: C_2  and  N_57
REMARK    3  A    between atoms: C_3  and  C_5
REMARK    4  A    between atoms: C_3  and  C_25
REMARK    5  A    between atoms: C_3  and  N_57
REMARK    6  A    between atoms: C_5  and  N_6
REMARK    7  A    between atoms: C_7  and  C_9
REMARK    8  A    between atoms: C_9  and  C_10
REMARK    9  A    between atoms: C_10  and  N_11
REMARK                            x       y       z     vdW  Elec       q    Type
REMARK                         _______ _______ _______ _____ _____    ______ ____
ROOT
ATOM      1  N   UNL     1       0.248   0.220  -0.609  0.00  0.00    -0.316 N 
ATOM      2  C   UNL     1      -1.032   0.614  -0.761  0.00  0.00    +0.214 C 
ATOM      3  O   UNL     1      -1.320   1.788  -0.674  0.00  0.00    -0.276 OA
ATOM      4  H   UNL     1       0.477  -0.720  -0.679  0.00  0.00    +0.149 HD
ENDROOT
BRANCH   1   5
ATOM      5  C   UNL     1       1.293   1.212  -0.345  0.00  0.00    +0.093 C 
BRANCH   5   6
ATOM      6  C   UNL     1       2.620   0.497  -0.084  0.00  0.00    -0.021 C 
BRANCH   6   7
ATOM      7  C   UNL     1       2.500  -0.346   1.159  0.00  0.00    -0.059 A 
ATOM      8  C   UNL     1       2.616   0.240   2.406  0.00  0.00    +0.002 A 
ATOM      9  C   UNL     1       2.502  -0.533   3.546  0.00  0.00    +0.000 A 
ATOM     10  C   UNL     1       2.282  -1.893   3.440  0.00  0.00    +0.000 A 
ATOM     11  C   UNL     1       2.170  -2.480   2.193  0.00  0.00    +0.000 A 
ATOM     12  C   UNL     1       2.280  -1.707   1.053  0.00  0.00    +0.002 A 
ENDBRANCH   6   7
BRANCH   6  15
ATOM     13  C   UNL     1       4.985   0.842   0.303  0.00  0.00    -0.096 C 
ATOM     14  C   UNL     1       3.734   2.427  -1.032  0.00  0.00    -0.096 C 
ATOM     15  N   UNL     1       3.678   1.508   0.124  0.00  0.00    +0.382 N 
ATOM     16  H   UNL     1       3.461   2.049   0.970  0.00  0.00    -0.082 HD
ENDBRANCH   6  15
ENDBRANCH   5   6
ENDBRANCH   1   5
BRANCH   2  17
ATOM     17  C   UNL     1      -2.107  -0.406  -1.039  0.00  0.00    +0.115 C 
BRANCH  17  18
ATOM     18  C   UNL     1      -3.458   0.299  -1.167  0.00  0.00    +0.120 C 
BRANCH  18  19
ATOM     19  N   UNL     1      -4.503  -0.693  -1.437  0.00  0.00    -0.298 N 
ATOM     20  C   UNL     1      -4.807  -1.015  -2.764  0.00  0.00    +0.048 A 
ATOM     21  C   UNL     1      -4.801  -0.032  -3.741  0.00  0.00    +0.024 A 
ATOM     22  C   UNL     1      -5.104  -0.358  -5.052  0.00  0.00    +0.002 A 
ATOM     23  C   UNL     1      -5.415  -1.659  -5.396  0.00  0.00    +0.001 A 
ATOM     24  C   UNL     1      -5.417  -2.659  -4.423  0.00  0.00    +0.017 A 
ATOM     25  C   UNL     1      -5.117  -2.335  -3.114  0.00  0.00    +0.034 A 
ATOM     26  S   UNL     1      -5.125  -3.571  -1.853  0.00  0.00    -0.086 S 
ATOM     27  C   UNL     1      -5.531  -2.636  -0.411  0.00  0.00    +0.034 A 
ATOM     28  C   UNL     1      -5.171  -1.287  -0.361  0.00  0.00    +0.048 A 
ATOM     29  C   UNL     1      -5.482  -0.542   0.766  0.00  0.00    +0.024 A 
ATOM     30  C   UNL     1      -6.145  -1.136   1.826  0.00  0.00    +0.002 A 
ATOM     31  C   UNL     1      -6.500  -2.471   1.771  0.00  0.00    +0.001 A 
ATOM     32  C   UNL     1      -6.192  -3.225   0.650  0.00  0.00    +0.017 A 
ENDBRANCH  18  19
ENDBRANCH  17  18
ENDBRANCH   2  17
TORSDOF 7
