REMARK  Name = ZINC38658965
REMARK  10 active torsions:
REMARK  status: ('A' for Active; 'I' for Inactive)
REMARK    1  A    between atoms: C_1  and  O_2
REMARK    2  A    between atoms: O_2  and  C_3
REMARK    3  A    between atoms: C_7  and  C_11
REMARK    4  A    between atoms: C_8  and  O_9
REMARK    5  A    between atoms: O_9  and  C_10
REMARK    6  A    between atoms: C_16  and  O_25
REMARK    7  A    between atoms: C_20  and  N_24
REMARK    8  A    between atoms: C_21  and  C_22
REMARK    9  A    between atoms: O_25  and  C_26
REMARK   10  A    between atoms: C_26  and  C_28
REMARK                            x       y       z     vdW  Elec       q    Type
REMARK                         _______ _______ _______ _____ _____    ______ ____
ROOT
ATOM      1  C   UNL     1      -2.410  -4.287  -0.091  0.00  0.00    +0.102 C 
ATOM      2  C   UNL     1      -2.938  -4.910   1.174  0.00  0.00    +0.008 A 
ATOM      3  C   UNL     1      -2.077  -5.130   2.235  0.00  0.00    +0.012 A 
ATOM      4  C   UNL     1      -2.543  -5.700   3.403  0.00  0.00    +0.047 A 
ATOM      5  C   UNL     1      -3.880  -6.055   3.516  0.00  0.00    +0.135 A 
ATOM      6  C   UNL     1      -4.745  -5.836   2.456  0.00  0.00    +0.093 A 
ATOM      7  C   UNL     1      -4.274  -5.262   1.282  0.00  0.00    +0.138 A 
ATOM      8  O   UNL     1      -5.133  -5.054   0.254  0.00  0.00    -0.441 OA
ATOM      9  C   UNL     1      -4.659  -4.874  -0.990  0.00  0.00    +0.199 C 
ATOM     10  C   UNL     1      -3.378  -4.511  -1.219  0.00  0.00    +0.098 C 
ENDROOT
BRANCH   1  15
ATOM     11  C   UNL     1      -0.825  -0.854   0.070  0.00  0.00    +0.162 A 
ATOM     12  C   UNL     1      -1.888  -0.084   0.514  0.00  0.00    +0.049 A 
ATOM     13  C   UNL     1      -3.114  -0.675   0.759  0.00  0.00    +0.004 A 
ATOM     14  C   UNL     1      -3.281  -2.034   0.563  0.00  0.00    +0.008 A 
ATOM     15  C   UNL     1      -2.224  -2.807   0.121  0.00  0.00    +0.011 A 
ATOM     16  C   UNL     1      -0.995  -2.220  -0.133  0.00  0.00    +0.166 A 
BRANCH  11  18
ATOM     17  C   UNL     1       0.483   1.133   0.058  0.00  0.00    +0.277 C 
ATOM     18  O   UNL     1       0.381  -0.274  -0.172  0.00  0.00    -0.491 OA
ENDBRANCH  11  18
BRANCH  16  19
ATOM     19  O   UNL     1       0.044  -2.978  -0.574  0.00  0.00    -0.491 OA
ATOM     20  C   UNL     1       0.891  -3.559   0.420  0.00  0.00    +0.277 C 
ENDBRANCH  16  19
ENDBRANCH   1  15
BRANCH   9  21
ATOM     21  N   UNL     1      -5.500  -5.065  -2.058  0.00  0.00    -0.328 N 
ATOM     22  H   UNL     1      -6.422  -5.325  -1.908  0.00  0.00    +0.145 HD
ATOM     23  H   UNL     1      -5.172  -4.939  -2.962  0.00  0.00    +0.145 HD
ENDBRANCH   9  21
BRANCH  10  24
ATOM     24  C   UNL     1      -2.934  -4.334  -2.569  0.00  0.00    +0.101 C 
ATOM     25  N   UNL     1      -2.583  -4.194  -3.640  0.00  0.00    -0.191 NA
ENDBRANCH  10  24
BRANCH   5  26
ATOM     26  O   UNL     1      -4.340  -6.617   4.664  0.00  0.00    -0.422 OA
BRANCH  26  27
ATOM     27  C   UNL     1      -4.418  -5.840   5.762  0.00  0.00    +0.347 C 
ATOM     28  O   UNL     1      -4.184  -4.650   5.682  0.00  0.00    -0.244 OA
BRANCH  27  29
ATOM     29  C   UNL     1      -4.786  -6.433   7.062  0.00  0.00    +0.094 A 
ATOM     30  C   UNL     1      -5.050  -7.802   7.160  0.00  0.00    +0.018 A 
ATOM     31  C   UNL     1      -5.393  -8.350   8.377  0.00  0.00    +0.001 A 
ATOM     32  C   UNL     1      -5.478  -7.548   9.503  0.00  0.00    +0.003 A 
ATOM     33  C   UNL     1      -5.219  -6.193   9.417  0.00  0.00    +0.039 A 
ATOM     34  C   UNL     1      -4.868  -5.629   8.204  0.00  0.00    +0.137 A 
ATOM     35  F   UNL     1      -4.610  -4.306   8.121  0.00  0.00    -0.205 F 
ENDBRANCH  27  29
ENDBRANCH  26  27
ENDBRANCH   5  26
TORSDOF 8
