REMARK  Name = ZINC01234677
REMARK  7 active torsions:
REMARK  status: ('A' for Active; 'I' for Inactive)
REMARK    1  A    between atoms: C_3  and  N_26
REMARK    2  A    between atoms: C_6  and  C_7
REMARK    3  A    between atoms: C_10  and  C_12
REMARK    4  A    between atoms: N_13  and  N_14
REMARK    5  A    between atoms: C_15  and  C_17
REMARK    6  A    between atoms: C_17  and  O_18
REMARK    7  A    between atoms: O_18  and  C_19
REMARK                            x       y       z     vdW  Elec       q    Type
REMARK                         _______ _______ _______ _____ _____    ______ ____
ROOT
ATOM      1  C   UNL     1      -1.637   4.564   0.041  0.00  0.00    +0.176 C 
ATOM      2  N   UNL     1      -2.949   4.368   0.052  0.00  0.00    -0.185 NA
ENDROOT
BRANCH   1   6
ATOM      3  C   UNL     1      -0.017   1.413   0.010  0.00  0.00    +0.136 A 
ATOM      4  C   UNL     1       1.129   2.247   0.003  0.00  0.00    +0.050 A 
ATOM      5  C   UNL     1       0.698   3.534   0.014  0.00  0.00    +0.051 A 
ATOM      6  C   UNL     1      -0.772   3.478   0.027  0.00  0.00    +0.148 A 
ATOM      7  O   UNL     1      -1.125   2.174   0.019  0.00  0.00    -0.454 OA
BRANCH   3  13
ATOM      8  C   UNL     1       1.228  -0.697  -0.019  0.00  0.00    +0.014 A 
ATOM      9  C   UNL     1       1.235  -2.063  -0.021  0.00  0.00    +0.033 A 
ATOM     10  C   UNL     1       0.040  -2.768  -0.013  0.00  0.00    +0.126 A 
ATOM     11  C   UNL     1      -1.174  -2.096   0.002  0.00  0.00    +0.033 A 
ATOM     12  C   UNL     1      -1.205  -0.730   0.010  0.00  0.00    +0.014 A 
ATOM     13  C   UNL     1       0.002  -0.004   0.002  0.00  0.00    +0.017 A 
BRANCH  10  14
ATOM     14  N   UNL     1       0.060  -4.248  -0.021  0.00  0.00    +0.056 N 
ATOM     15  O   UNL     1      -1.072  -4.922  -0.014  0.00  0.00    -0.126 OA
ATOM     16  O   UNL     1       1.209  -4.891  -0.036  0.00  0.00    -0.126 OA
ENDBRANCH  10  14
ENDBRANCH   3  13
ENDBRANCH   1   6
BRANCH   2  17
ATOM     17  N   UNL     1      -3.753   5.377   0.065  0.00  0.00    -0.204 N 
ATOM     18  C   UNL     1      -5.086   5.177   0.076  0.00  0.00    +0.270 C 
ATOM     19  O   UNL     1      -5.528   4.053   0.074  0.00  0.00    -0.270 OA
ATOM     20  H   UNL     1      -3.397   6.279   0.066  0.00  0.00    +0.177 HD
BRANCH  18  21
ATOM     21  C   UNL     1      -6.024   6.356   0.091  0.00  0.00    +0.326 C 
BRANCH  21  22
ATOM     22  O   UNL     1      -7.375   5.890   0.101  0.00  0.00    -0.483 OA
BRANCH  22  23
ATOM     23  C   UNL     1      -8.353   6.833   0.115  0.00  0.00    +0.121 A 
ATOM     24  C   UNL     1      -8.020   8.180   0.124  0.00  0.00    +0.046 A 
ATOM     25  C   UNL     1      -9.016   9.137   0.134  0.00  0.00    +0.018 A 
ATOM     26  C   UNL     1     -10.345   8.753   0.144  0.00  0.00    +0.014 A 
ATOM     27  C   UNL     1     -10.679   7.411   0.140  0.00  0.00    +0.018 A 
ATOM     28  C   UNL     1      -9.687   6.451   0.125  0.00  0.00    +0.046 A 
ATOM     29  I   UNL     1     -11.853  10.207   0.166  0.00  0.00    -0.044 I 
ENDBRANCH  22  23
ENDBRANCH  21  22
ENDBRANCH  18  21
ENDBRANCH   2  17
TORSDOF 7
