REMARK  Name = ZINC00676406
REMARK  6 active torsions:
REMARK  status: ('A' for Active; 'I' for Inactive)
REMARK    1  A    between atoms: C_5  and  C_6
REMARK    2  A    between atoms: N_8  and  C_9
REMARK    3  A    between atoms: C_9  and  N_11
REMARK    4  A    between atoms: N_11  and  C_12
REMARK    5  A    between atoms: C_12  and  C_13
REMARK    6  A    between atoms: C_13  and  C_14
REMARK                            x       y       z     vdW  Elec       q    Type
REMARK                         _______ _______ _______ _____ _____    ______ ____
ROOT
ATOM      1  C   UNL     1      -2.092  -3.026   0.007  0.00  0.00    +0.137 C 
ATOM      2  S   UNL     1      -3.665  -2.350   0.027  0.00  0.00    -0.018 S 
ENDROOT
BRANCH   1   5
ATOM      3  C   UNL     1      -1.171  -0.880   0.009  0.00  0.00    +0.285 C 
ATOM      4  O   UNL     1      -2.289  -0.401   0.023  0.00  0.00    -0.266 OA
ATOM      5  N   UNL     1      -1.012  -2.219   0.001  0.00  0.00    -0.261 N 
ATOM      6  H   UNL     1      -0.121  -2.602  -0.011  0.00  0.00    +0.157 HD
BRANCH   3  11
ATOM      7  C   UNL     1      -0.017   1.363   0.009  0.00  0.00    +0.056 A 
ATOM      8  C   UNL     1       1.321   1.784  -0.001  0.00  0.00    +0.058 A 
ATOM      9  C   UNL     1       2.090   0.671  -0.014  0.00  0.00    +0.171 A 
ATOM     10  O   UNL     1       1.291  -0.404  -0.012  0.00  0.00    -0.444 OA
ATOM     11  C   UNL     1       0.002  -0.004   0.002  0.00  0.00    +0.191 A 
ATOM     12 BR   UNL     1       3.981   0.638  -0.033  0.00  0.00    -0.008 Br
ENDBRANCH   3  11
ENDBRANCH   1   5
BRANCH   1  13
ATOM     13  N   UNL     1      -1.933  -4.364  -0.002  0.00  0.00    -0.326 N 
ATOM     14  H   UNL     1      -1.042  -4.747  -0.013  0.00  0.00    +0.148 HD
BRANCH  13  15
ATOM     15  C   UNL     1      -3.107  -5.241   0.006  0.00  0.00    +0.107 C 
BRANCH  15  16
ATOM     16  C   UNL     1      -2.652  -6.702  -0.007  0.00  0.00    +0.049 C 
BRANCH  16  17
ATOM     17  C   UNL     1      -3.859  -7.604   0.001  0.00  0.00    -0.072 C 
ATOM     18  C   UNL     1      -4.294  -8.045  -1.136  0.00  0.00    -0.028 C 
ATOM     19  C   UNL     1      -5.489  -8.940  -1.289  0.00  0.00    +0.027 C 
ATOM     20  C   UNL     1      -5.840  -9.584   0.054  0.00  0.00    +0.004 C 
ATOM     21  C   UNL     1      -5.896  -8.482   1.120  0.00  0.00    +0.005 C 
ATOM     22  C   UNL     1      -4.479  -7.939   1.326  0.00  0.00    +0.030 C 
ENDBRANCH  16  17
ENDBRANCH  15  16
ENDBRANCH  13  15
ENDBRANCH   1  13
TORSDOF 6
