REMARK  Name = ZINC09041967
REMARK  8 active torsions:
REMARK  status: ('A' for Active; 'I' for Inactive)
REMARK    1  A    between atoms: C_1  and  C_2
REMARK    2  A    between atoms: N_13  and  C_16
REMARK    3  A    between atoms: C_16  and  C_17
REMARK    4  A    between atoms: N_19  and  N_20
REMARK    5  A    between atoms: C_21  and  C_22
REMARK    6  A    between atoms: C_25  and  O_30
REMARK    7  A    between atoms: C_26  and  O_28
REMARK    8  A    between atoms: O_28  and  C_29
REMARK                            x       y       z     vdW  Elec       q    Type
REMARK                         _______ _______ _______ _____ _____    ______ ____
ROOT
ATOM      1  C   UNL     1       7.480   1.862   0.509  0.00  0.00    +0.246 C 
ENDROOT
BRANCH   1  13
ATOM      2  C   UNL     1      -1.395  -0.538   0.322  0.00  0.00    +0.008 C 
ATOM      3  C   UNL     1       0.002  -0.004   0.002  0.00  0.00    -0.009 C 
ATOM      4  C   UNL     1       0.996  -0.487   1.062  0.00  0.00    +0.008 C 
ATOM      5  C   UNL     1       2.424  -0.172   0.617  0.00  0.00    +0.037 C 
ATOM      6  C   UNL     1       2.516   1.309   0.261  0.00  0.00    -0.023 A 
ATOM      7  C   UNL     1       1.395   2.025  -0.000  0.00  0.00    -0.004 A 
ATOM      8  S   UNL     1       1.966   3.667  -0.357  0.00  0.00    -0.071 S 
ATOM      9  C   UNL     1       3.699   3.392  -0.155  0.00  0.00    +0.138 A 
ATOM     10  C   UNL     1       3.776   2.023   0.185  0.00  0.00    +0.079 A 
ATOM     11  C   UNL     1       5.085   1.476   0.419  0.00  0.00    +0.279 A 
ATOM     12  O   UNL     1       5.256   0.307   0.718  0.00  0.00    -0.265 OA
ATOM     13  N   UNL     1       6.115   2.346   0.286  0.00  0.00    -0.201 N 
ATOM     14  N   UNL     1       5.925   3.686  -0.056  0.00  0.00    -0.061 NA
ATOM     15  N   UNL     1       4.751   4.194  -0.270  0.00  0.00    -0.123 NA
ATOM     16  C   UNL     1      -0.019   1.531   0.011  0.00  0.00    +0.046 C 
ENDBRANCH   1  13
BRANCH   1  17
ATOM     17  C   UNL     1       8.053   1.360  -0.791  0.00  0.00    +0.254 C 
ATOM     18  O   UNL     1       7.388   1.402  -1.804  0.00  0.00    -0.272 OA
ATOM     19  N   UNL     1       9.306   0.864  -0.828  0.00  0.00    -0.205 N 
ATOM     20  H   UNL     1       9.838   0.830  -0.018  0.00  0.00    +0.177 HD
BRANCH  19  21
ATOM     21  N   UNL     1       9.839   0.397  -2.036  0.00  0.00    -0.188 NA
ATOM     22  C   UNL     1      11.046  -0.081  -2.072  0.00  0.00    +0.138 C 
BRANCH  22  23
ATOM     23  C   UNL     1      11.607  -0.572  -3.344  0.00  0.00    -0.002 A 
ATOM     24  C   UNL     1      10.840  -0.529  -4.511  0.00  0.00    +0.013 A 
ATOM     25  C   UNL     1      11.368  -0.984  -5.700  0.00  0.00    +0.050 A 
ATOM     26  C   UNL     1      12.658  -1.495  -5.739  0.00  0.00    +0.158 A 
ATOM     27  C   UNL     1      13.426  -1.546  -4.579  0.00  0.00    +0.162 A 
ATOM     28  C   UNL     1      12.905  -1.087  -3.384  0.00  0.00    +0.058 A 
BRANCH  27  29
ATOM     29  O   UNL     1      14.690  -2.048  -4.621  0.00  0.00    -0.491 OA
ATOM     30  C   UNL     1      15.421  -2.069  -3.394  0.00  0.00    +0.277 C 
ENDBRANCH  27  29
BRANCH  26  31
ATOM     31  O   UNL     1      13.172  -1.948  -6.913  0.00  0.00    -0.503 OA
ATOM     32  H   UNL     1      13.006  -2.885  -7.080  0.00  0.00    +0.292 HD
ENDBRANCH  26  31
ENDBRANCH  22  23
ENDBRANCH  19  21
ENDBRANCH   1  17
TORSDOF 6
