REMARK  Name = ZINC09124696
REMARK  12 active torsions:
REMARK  status: ('A' for Active; 'I' for Inactive)
REMARK    1  A    between atoms: C_1  and  C_2
REMARK    2  A    between atoms: C_2  and  O_3
REMARK    3  A    between atoms: O_3  and  C_4
REMARK    4  A    between atoms: C_6  and  C_11
REMARK    5  A    between atoms: C_9  and  O_10
REMARK    6  A    between atoms: C_14  and  C_26
REMARK    7  A    between atoms: N_21  and  C_22
REMARK    8  A    between atoms: C_22  and  C_23
REMARK    9  A    between atoms: C_23  and  C_24
REMARK   10  A    between atoms: C_24  and  O_25
REMARK   11  A    between atoms: C_29  and  C_33
REMARK   12  A    between atoms: C_31  and  O_32
REMARK                            x       y       z     vdW  Elec       q    Type
REMARK                         _______ _______ _______ _____ _____    ______ ____
ROOT
ATOM      1  C   UNL     1      -0.229  -4.969   0.477  0.00  0.00    +0.141 C 
ATOM      2  C   UNL     1       0.864  -5.512   1.356  0.00  0.00    +0.035 A 
ATOM      3  C   UNL     1       1.862  -5.251   2.241  0.00  0.00    +0.075 A 
ATOM      4  N   UNL     1       2.410  -6.456   2.579  0.00  0.00    -0.276 N 
ATOM      5  H   UNL     1       3.147  -6.578   3.197  0.00  0.00    +0.189 HD
ATOM      6  N   UNL     1       1.805  -7.403   1.955  0.00  0.00    -0.168 NA
ATOM      7  C   UNL     1       0.850  -6.915   1.189  0.00  0.00    +0.153 A 
ATOM      8  C   UNL     1      -0.222  -7.245   0.232  0.00  0.00    +0.268 C 
ATOM      9  O   UNL     1      -0.503  -8.370  -0.133  0.00  0.00    -0.268 OA
ATOM     10  N   UNL     1      -0.846  -6.127  -0.179  0.00  0.00    -0.285 N 
ENDROOT
BRANCH   3  11
ATOM     11  C   UNL     1       2.274  -3.921   2.741  0.00  0.00    +0.043 A 
ATOM     12  C   UNL     1       3.537  -3.418   2.432  0.00  0.00    +0.034 A 
ATOM     13  C   UNL     1       3.917  -2.176   2.901  0.00  0.00    +0.045 A 
ATOM     14  C   UNL     1       3.047  -1.428   3.678  0.00  0.00    -0.029 A 
ATOM     15  C   UNL     1       1.793  -1.919   3.990  0.00  0.00    +0.050 A 
ATOM     16  C   UNL     1       1.397  -3.161   3.522  0.00  0.00    +0.126 A 
ATOM     17  C   UNL     1       3.470  -0.074   4.186  0.00  0.00    +0.045 C 
ATOM     18 CL   UNL     1       5.489  -1.549   2.516  0.00  0.00    -0.083 Cl
BRANCH  16  19
ATOM     19  O   UNL     1       0.162  -3.641   3.823  0.00  0.00    -0.506 OA
ATOM     20  H   UNL     1       0.129  -4.155   4.641  0.00  0.00    +0.292 HD
ENDBRANCH  16  19
ENDBRANCH   3  11
BRANCH   1  23
ATOM     21  C   UNL     1       0.777  -1.811  -1.336  0.00  0.00    +0.162 A 
ATOM     22  C   UNL     1       0.243  -2.669  -0.388  0.00  0.00    +0.055 A 
ATOM     23  C   UNL     1       0.352  -4.037  -0.555  0.00  0.00    -0.019 A 
ATOM     24  C   UNL     1       0.992  -4.552  -1.667  0.00  0.00    +0.009 A 
ATOM     25  C   UNL     1       1.526  -3.702  -2.616  0.00  0.00    +0.049 A 
ATOM     26  C   UNL     1       1.416  -2.330  -2.458  0.00  0.00    +0.158 A 
BRANCH  26  27
ATOM     27  O   UNL     1       1.936  -1.492  -3.394  0.00  0.00    -0.503 OA
ATOM     28  H   UNL     1       2.856  -1.241  -3.231  0.00  0.00    +0.292 HD
ENDBRANCH  26  27
BRANCH  21  29
ATOM     29  O   UNL     1       0.671  -0.465  -1.174  0.00  0.00    -0.489 OA
BRANCH  29  31
ATOM     30  C   UNL     1      -0.019   1.526   0.010  0.00  0.00    +0.048 C 
ATOM     31  C   UNL     1       0.002  -0.004   0.002  0.00  0.00    +0.226 C 
ENDBRANCH  29  31
ENDBRANCH  21  29
ENDBRANCH   1  23
BRANCH  10  32
ATOM     32  C   UNL     1      -1.961  -6.073  -1.128  0.00  0.00    +0.111 C 
BRANCH  32  33
ATOM     33  C   UNL     1      -1.413  -5.934  -2.550  0.00  0.00    +0.047 C 
BRANCH  33  34
ATOM     34  C   UNL     1      -2.577  -5.877  -3.542  0.00  0.00    +0.157 C 
BRANCH  34  35
ATOM     35  O   UNL     1      -2.066  -5.747  -4.870  0.00  0.00    -0.395 OA
ATOM     36  H   UNL     1      -2.750  -5.705  -5.552  0.00  0.00    +0.209 HD
ENDBRANCH  34  35
ENDBRANCH  33  34
ENDBRANCH  32  33
ENDBRANCH  10  32
TORSDOF 10
