REMARK  Name = ZINC36347506
REMARK  4 active torsions:
REMARK  status: ('A' for Active; 'I' for Inactive)
REMARK    1  A    between atoms: C_3  and  C_10
REMARK    2  A    between atoms: C_5  and  N_7
REMARK    3  A    between atoms: C_10  and  N_11
REMARK    4  A    between atoms: C_20  and  C_22
REMARK                            x       y       z     vdW  Elec       q    Type
REMARK                         _______ _______ _______ _____ _____    ______ ____
ROOT
ATOM      1  N   UNL     1       4.044   2.549   1.444  0.00  0.00    +0.391 N 
ATOM      2  C   UNL     1       4.153   1.250   2.114  0.00  0.00    -0.075 C 
ATOM      3  C   UNL     1       4.654   1.411   3.543  0.00  0.00    +0.003 C 
ATOM      4  C   UNL     1       4.125   2.722   4.133  0.00  0.00    +0.119 C 
ATOM      5  N   UNL     1       5.065   3.802   3.811  0.00  0.00    -0.352 N 
ATOM      6  C   UNL     1       5.534   4.749   4.670  0.00  0.00    +0.086 A 
ATOM      7  C   UNL     1       6.359   5.568   3.985  0.00  0.00    +0.019 A 
ATOM      8  C   UNL     1       6.405   5.105   2.655  0.00  0.00    +0.021 A 
ATOM      9  C   UNL     1       5.610   4.020   2.577  0.00  0.00    +0.009 A 
ATOM     10  C   UNL     1       5.369   3.178   1.348  0.00  0.00    +0.011 C 
ATOM     11  H   UNL     1       3.428   3.146   1.974  0.00  0.00    -0.080 HD
ENDROOT
BRANCH  10  12
ATOM     12  C   UNL     1       5.423   4.051   0.121  0.00  0.00    -0.054 A 
ATOM     13  C   UNL     1       4.522   5.090  -0.029  0.00  0.00    +0.002 A 
ATOM     14  C   UNL     1       4.571   5.891  -1.154  0.00  0.00    +0.002 A 
ATOM     15  C   UNL     1       5.521   5.655  -2.130  0.00  0.00    +0.020 A 
ATOM     16  C   UNL     1       6.423   4.616  -1.981  0.00  0.00    +0.041 A 
ATOM     17  C   UNL     1       6.377   3.818  -0.851  0.00  0.00    +0.022 A 
ATOM     18 CL   UNL     1       7.615   4.319  -3.206  0.00  0.00    -0.084 Cl
ENDBRANCH  10  12
BRANCH   1  19
ATOM     19  C   UNL     1       3.497   2.357   0.095  0.00  0.00    -0.042 C 
BRANCH  19  22
ATOM     20  C   UNL     1      -0.264   2.140   0.351  0.00  0.00    +0.002 A 
ATOM     21  C   UNL     1       1.017   2.653   0.261  0.00  0.00    +0.002 A 
ATOM     22  C   UNL     1       2.101   1.798   0.193  0.00  0.00    -0.062 A 
ATOM     23  C   UNL     1       1.904   0.430   0.216  0.00  0.00    +0.034 A 
ATOM     24  C   UNL     1       0.624  -0.083   0.307  0.00  0.00    +0.126 A 
ATOM     25  C   UNL     1      -0.460   0.772   0.373  0.00  0.00    +0.033 A 
BRANCH  24  26
ATOM     26  N   UNL     1       0.413  -1.548   0.331  0.00  0.00    +0.056 N 
ATOM     27  O   UNL     1       1.361  -2.296   0.271  0.00  0.00    -0.126 OA
ATOM     28  O   UNL     1      -0.707  -1.996   0.410  0.00  0.00    -0.126 OA
ENDBRANCH  24  26
ENDBRANCH  19  22
ENDBRANCH   1  19
TORSDOF 4
