REMARK  Name = ZINC12033629
REMARK  6 active torsions:
REMARK  status: ('A' for Active; 'I' for Inactive)
REMARK    1  A    between atoms: C_5  and  C_6
REMARK    2  A    between atoms: N_8  and  C_9
REMARK    3  A    between atoms: C_10  and  N_27
REMARK    4  A    between atoms: C_12  and  S_17
REMARK    5  A    between atoms: S_17  and  C_18
REMARK    6  A    between atoms: C_18  and  C_19
REMARK                            x       y       z     vdW  Elec       q    Type
REMARK                         _______ _______ _______ _____ _____    ______ ____
ROOT
ATOM      1  C   UNL     1       1.538   6.851   0.083  0.00  0.00    +0.139 A 
ATOM      2  C   UNL     1       0.855   8.060   0.170  0.00  0.00    +0.146 A 
ATOM      3  N   UNL     1       1.542   9.207   0.230  0.00  0.00    -0.207 NA
ATOM      4  C   UNL     1       2.858   9.216   0.197  0.00  0.00    +0.171 A 
ATOM      5  N   UNL     1       3.575   8.061   0.106  0.00  0.00    -0.300 N 
ATOM      6  H   UNL     1       4.544   8.094   0.084  0.00  0.00    +0.171 HD
ATOM      7  C   UNL     1       2.940   6.872   0.048  0.00  0.00    +0.275 A 
ATOM      8  O   UNL     1       3.575   5.832  -0.032  0.00  0.00    -0.266 OA
ENDROOT
BRANCH   1  11
ATOM      9  C   UNL     1       1.035   4.694   0.971  0.00  0.00    +0.284 C 
ATOM     10  O   UNL     1       1.883   4.864   1.828  0.00  0.00    -0.266 OA
ATOM     11  N   UNL     1       0.836   5.632   0.024  0.00  0.00    -0.272 N 
ATOM     12  H   UNL     1       0.208   5.468  -0.697  0.00  0.00    +0.155 HD
BRANCH   9  17
ATOM     13  C   UNL     1       0.329   2.442   1.865  0.00  0.00    +0.056 A 
ATOM     14  C   UNL     1      -0.624   1.484   1.488  0.00  0.00    +0.058 A 
ATOM     15  C   UNL     1      -1.251   1.958   0.387  0.00  0.00    +0.171 A 
ATOM     16  O   UNL     1      -0.737   3.157   0.081  0.00  0.00    -0.444 OA
ATOM     17  C   UNL     1       0.230   3.469   0.969  0.00  0.00    +0.191 A 
ATOM     18 BR   UNL     1      -2.629   1.076  -0.561  0.00  0.00    -0.008 Br
ENDBRANCH   9  17
ENDBRANCH   1  11
BRANCH   2  19
ATOM     19  N   UNL     1      -0.528   8.076   0.201  0.00  0.00    -0.341 N 
ATOM     20  H   UNL     1      -1.024   7.244   0.162  0.00  0.00    +0.144 HD
ATOM     21  H   UNL     1      -1.002   8.921   0.262  0.00  0.00    +0.144 HD
ENDBRANCH   2  19
BRANCH   4  22
ATOM     22  S   UNL     1       3.711  10.756   0.272  0.00  0.00    -0.078 S 
BRANCH  22  23
ATOM     23  C   UNL     1       2.304  11.890   0.379  0.00  0.00    +0.173 C 
BRANCH  23  24
ATOM     24  C   UNL     1       2.807  13.309   0.455  0.00  0.00    +0.226 C 
ATOM     25  O   UNL     1       3.999  13.531   0.438  0.00  0.00    -0.275 OA
ATOM     26  N   UNL     1       1.931  14.330   0.541  0.00  0.00    -0.301 N 
ATOM     27  C   UNL     1       0.484  14.076   0.556  0.00  0.00    +0.108 C 
ATOM     28  C   UNL     1      -0.120  14.764   1.790  0.00  0.00    +0.019 C 
ATOM     29  C   UNL     1       0.258  16.247   1.776  0.00  0.00    +0.003 C 
ATOM     30  C   UNL     1       1.781  16.388   1.843  0.00  0.00    +0.019 C 
ATOM     31  C   UNL     1       2.406  15.718   0.616  0.00  0.00    +0.108 C 
ENDBRANCH  23  24
ENDBRANCH  22  23
ENDBRANCH   4  22
TORSDOF 6
