REMARK  Name = ZINC39655077
REMARK  4 active torsions:
REMARK  status: ('A' for Active; 'I' for Inactive)
REMARK    1  A    between atoms: C_3  and  C_6
REMARK    2  A    between atoms: C_6  and  N_7
REMARK    3  A    between atoms: C_8  and  C_10
REMARK    4  A    between atoms: C_21  and  C_23
REMARK                            x       y       z     vdW  Elec       q    Type
REMARK                         _______ _______ _______ _____ _____    ______ ____
ROOT
ATOM      1  C   UNL     1       5.944   0.555   2.996  0.00  0.00    +0.100 C 
ATOM      2  C   UNL     1       5.378  -0.663   3.758  0.00  0.00    +0.121 C 
ATOM      3  N   UNL     1       6.423  -1.705   3.627  0.00  0.00    -0.300 N 
ATOM      4  C   UNL     1       7.701  -0.966   3.767  0.00  0.00    +0.115 C 
ATOM      5  C   UNL     1       7.469   0.355   3.007  0.00  0.00    -0.004 C 
ATOM      6  C   UNL     1       8.148   1.511   3.736  0.00  0.00    -0.010 C 
ATOM      7  C   UNL     1       9.666   1.319   3.683  0.00  0.00    -0.082 C 
ATOM      8  N   UNL     1      10.107   1.270   2.284  0.00  0.00    +0.379 N 
ATOM      9  C   UNL     1       9.522   0.102   1.615  0.00  0.00    -0.082 C 
ATOM     10  C   UNL     1       7.997   0.242   1.580  0.00  0.00    -0.010 C 
ATOM     11  C   UNL     1       6.252  -3.027   3.427  0.00  0.00    +0.219 C 
ATOM     12  O   UNL     1       7.216  -3.757   3.341  0.00  0.00    -0.275 OA
ATOM     13  H   UNL     1       9.811   2.111   1.810  0.00  0.00    -0.086 HD
ATOM     14  H   UNL     1      11.114   1.206   2.252  0.00  0.00    -0.086 HD
ENDROOT
BRANCH  11  15
ATOM     15  C   UNL     1       4.862  -3.597   3.310  0.00  0.00    +0.079 C 
ATOM     16  C   UNL     1       4.943  -5.114   3.097  0.00  0.00    +0.017 C 
ATOM     17  C   UNL     1       3.536  -5.638   2.804  0.00  0.00    +0.027 C 
ATOM     18  C   UNL     1       2.568  -5.120   3.827  0.00  0.00    -0.031 C 
ATOM     19  C   UNL     1       2.806  -4.113   4.606  0.00  0.00    -0.030 C 
ATOM     20  C   UNL     1       4.084  -3.326   4.599  0.00  0.00    +0.039 C 
ENDBRANCH  11  15
BRANCH   1  22
ATOM     21  N   UNL     1       5.297   1.746   0.926  0.00  0.00    -0.308 N 
ATOM     22  C   UNL     1       5.428   0.575   1.580  0.00  0.00    +0.219 C 
ATOM     23  O   UNL     1       5.130  -0.464   1.029  0.00  0.00    -0.275 OA
ATOM     24  H   UNL     1       5.535   2.576   1.366  0.00  0.00    +0.149 HD
BRANCH  21  25
ATOM     25  C   UNL     1       4.795   1.764  -0.450  0.00  0.00    +0.178 C 
BRANCH  25  28
ATOM     26  C   UNL     1       5.266   5.134  -1.866  0.00  0.00    +0.041 A 
ATOM     27  C   UNL     1       5.740   3.833  -1.581  0.00  0.00    +0.046 A 
ATOM     28  C   UNL     1       4.745   3.186  -0.948  0.00  0.00    +0.122 A 
ATOM     29  O   UNL     1       3.700   4.021  -0.835  0.00  0.00    -0.466 OA
ATOM     30  C   UNL     1       4.010   5.204  -1.389  0.00  0.00    +0.195 A 
ENDBRANCH  25  28
ENDBRANCH  21  25
ENDBRANCH   1  22
TORSDOF 4
