REMARK  Name = ZINC15675844
REMARK  7 active torsions:
REMARK  status: ('A' for Active; 'I' for Inactive)
REMARK    1  A    between atoms: C_1  and  C_2
REMARK    2  A    between atoms: C_11  and  C_23
REMARK    3  A    between atoms: C_11  and  C_24
REMARK    4  A    between atoms: N_12  and  C_15
REMARK    5  A    between atoms: C_15  and  C_16
REMARK    6  A    between atoms: C_16  and  N_77
REMARK    7  A    between atoms: N_26  and  C_27
REMARK                            x       y       z     vdW  Elec       q    Type
REMARK                         _______ _______ _______ _____ _____    ______ ____
ROOT
ATOM      1  C   UNL     1       4.284  -6.563   7.847  0.00  0.00    +0.086 C 
ATOM      2  C   UNL     1       3.735  -5.383   7.086  0.00  0.00    +0.105 A 
ATOM      3  C   UNL     1       2.448  -4.996   7.077  0.00  0.00    +0.071 A 
ATOM      4  C   UNL     1       2.358  -3.854   6.245  0.00  0.00    +0.088 A 
ATOM      5  C   UNL     1       3.652  -3.608   5.786  0.00  0.00    +0.154 A 
ATOM      6  O   UNL     1       4.457  -4.555   6.312  0.00  0.00    -0.458 OA
ATOM      7  C   UNL     1       3.600  -2.477   4.958  0.00  0.00    +0.079 A 
ATOM      8  C   UNL     1       2.307  -2.045   4.935  0.00  0.00    +0.109 A 
ATOM      9  N   UNL     1       1.537  -2.907   5.713  0.00  0.00    -0.331 N 
ATOM     10  C   UNL     1       0.088  -2.730   5.850  0.00  0.00    +0.157 C 
ATOM     11  C   UNL     1      -0.246  -1.240   5.723  0.00  0.00    +0.128 C 
ATOM     12  N   UNL     1       0.409  -0.620   4.578  0.00  0.00    -0.282 N 
ATOM     13  C   UNL     1       1.689  -0.908   4.242  0.00  0.00    +0.264 C 
ATOM     14  O   UNL     1       2.295  -0.258   3.409  0.00  0.00    -0.268 OA
ATOM     15  C   UNL     1      -1.761  -1.085   5.571  0.00  0.00    +0.043 C 
ENDROOT
BRANCH  11  16
ATOM     16  C   UNL     1       0.190  -0.529   6.978  0.00  0.00    +0.238 C 
ATOM     17  O   UNL     1      -0.590  -0.386   7.896  0.00  0.00    -0.273 OA
ATOM     18  N   UNL     1       1.446  -0.053   7.081  0.00  0.00    -0.311 N 
ATOM     19  H   UNL     1       2.070  -0.168   6.347  0.00  0.00    +0.149 HD
BRANCH  18  20
ATOM     20  C   UNL     1       1.871   0.638   8.301  0.00  0.00    +0.073 C 
ATOM     21  C   UNL     1       1.475   2.114   8.215  0.00  0.00    +0.022 C 
ATOM     22  C   UNL     1       1.547   2.743   9.608  0.00  0.00    +0.002 C 
ATOM     23  C   UNL     1       0.915   1.796  10.629  0.00  0.00    +0.000 C 
ATOM     24  C   UNL     1       1.996   1.274  11.578  0.00  0.00    +0.000 C 
ATOM     25  C   UNL     1       2.828   0.207  10.864  0.00  0.00    +0.000 C 
ATOM     26  C   UNL     1       3.789   0.882   9.883  0.00  0.00    +0.002 C 
ATOM     27  C   UNL     1       3.389   0.524   8.450  0.00  0.00    +0.022 C 
ENDBRANCH  18  20
ENDBRANCH  11  16
BRANCH  12  28
ATOM     28  C   UNL     1      -0.337   0.347   3.770  0.00  0.00    +0.091 C 
BRANCH  28  29
ATOM     29  C   UNL     1      -1.060  -0.384   2.637  0.00  0.00    -0.060 C 
BRANCH  29  36
ATOM     30  C   UNL     1      -1.902   0.033   0.397  0.00  0.00    -0.079 C 
ATOM     31  C   UNL     1      -3.174  -0.762   0.279  0.00  0.00    -0.019 C 
ATOM     32  C   UNL     1      -4.291   0.167  -0.241  0.00  0.00    -0.002 C 
ATOM     33  C   UNL     1      -4.832   1.021   0.810  0.00  0.00    -0.002 C 
ATOM     34  C   UNL     1      -3.760   1.952   1.414  0.00  0.00    -0.019 C 
ATOM     35  C   UNL     1      -2.923   1.155   2.377  0.00  0.00    -0.079 C 
ATOM     36  N   UNL     1      -1.659   0.630   1.756  0.00  0.00    +0.381 N 
ATOM     37  H   UNL     1      -1.000   1.411   1.653  0.00  0.00    -0.082 HD
ENDBRANCH  29  36
ENDBRANCH  28  29
ENDBRANCH  12  28
TORSDOF 5
