REMARK  Name = ZINC15947279
REMARK  6 active torsions:
REMARK  status: ('A' for Active; 'I' for Inactive)
REMARK    1  A    between atoms: C_1  and  C_2
REMARK    2  A    between atoms: C_2  and  N_3
REMARK    3  A    between atoms: C_11  and  O_26
REMARK    4  A    between atoms: C_13  and  C_16
REMARK    5  A    between atoms: C_19  and  O_23
REMARK    6  A    between atoms: O_23  and  C_24
REMARK                            x       y       z     vdW  Elec       q    Type
REMARK                         _______ _______ _______ _____ _____    ______ ____
ROOT
ATOM      1  N   UNL     1       0.713  -0.491   1.192  0.00  0.00    +0.383 N 
ATOM      2  C   UNL     1       0.840  -1.952   1.122  0.00  0.00    -0.074 C 
ATOM      3  C   UNL     1       1.836  -2.447   2.176  0.00  0.00    +0.018 C 
ATOM      4  C   UNL     1       1.420  -1.870   3.522  0.00  0.00    -0.027 A 
ATOM      5  C   UNL     1       0.567  -0.818   3.574  0.00  0.00    -0.021 A 
ATOM      6  S   UNL     1       0.364  -0.488   5.301  0.00  0.00    -0.080 S 
ATOM      7  C   UNL     1       1.352  -1.667   5.923  0.00  0.00    +0.080 A 
ATOM      8  C   UNL     1       1.862  -2.354   4.814  0.00  0.00    +0.067 A 
ATOM      9  C   UNL     1       2.780  -3.492   5.077  0.00  0.00    +0.220 C 
ATOM     10  N   UNL     1       3.250  -3.624   6.288  0.00  0.00    -0.223 NA
ATOM     11  C   UNL     1       2.987  -2.698   7.382  0.00  0.00    +0.224 C 
ATOM     12  N   UNL     1       1.695  -2.008   7.211  0.00  0.00    -0.313 N 
ATOM     13  C   UNL     1      -0.043  -0.117   2.402  0.00  0.00    -0.035 C 
ATOM     14  H   UNL     1       1.120  -1.805   7.965  0.00  0.00    +0.149 HD
ATOM     15  H   UNL     1       1.631  -0.075   1.228  0.00  0.00    -0.081 HD
ENDROOT
BRANCH  11  16
ATOM     16  C   UNL     1       4.089  -1.671   7.433  0.00  0.00    -0.003 A 
ATOM     17  C   UNL     1       3.824  -0.397   7.901  0.00  0.00    +0.026 A 
ATOM     18  C   UNL     1       4.832   0.547   7.948  0.00  0.00    +0.061 A 
ATOM     19  C   UNL     1       6.112   0.216   7.525  0.00  0.00    +0.148 A 
ATOM     20  C   UNL     1       6.375  -1.064   7.056  0.00  0.00    +0.061 A 
ATOM     21  C   UNL     1       5.364  -2.006   7.016  0.00  0.00    +0.026 A 
ATOM     22 BR   UNL     1       8.117  -1.520   6.479  0.00  0.00    -0.046 Br
ATOM     23 BR   UNL     1       4.468   2.289   8.587  0.00  0.00    -0.046 Br
BRANCH  19  24
ATOM     24  O   UNL     1       7.105   1.142   7.570  0.00  0.00    -0.493 OA
ATOM     25  C   UNL     1       7.873   1.212   8.773  0.00  0.00    +0.277 C 
ENDBRANCH  19  24
ENDBRANCH  11  16
BRANCH   1  27
ATOM     26  C   UNL     1      -0.019   1.526   0.010  0.00  0.00    -0.017 C 
ATOM     27  C   UNL     1       0.002  -0.004   0.002  0.00  0.00    -0.082 C 
ENDBRANCH   1  27
BRANCH   9  28
ATOM     28  O   UNL     1       3.117  -4.361   4.096  0.00  0.00    -0.492 OA
ATOM     29  H   UNL     1       3.720  -5.061   4.382  0.00  0.00    +0.294 HD
ENDBRANCH   9  28
TORSDOF 4
