REMARK  Name = ZINC15834906
REMARK  15 active torsions:
REMARK  status: ('A' for Active; 'I' for Inactive)
REMARK    1  A    between atoms: C_1  and  C_2
REMARK    2  A    between atoms: C_2  and  C_3
REMARK    3  A    between atoms: C_3  and  C_4
REMARK    4  A    between atoms: C_4  and  N_5
REMARK    5  A    between atoms: C_8  and  C_15
REMARK    6  A    between atoms: C_9  and  O_14
REMARK    7  A    between atoms: C_18  and  C_21
REMARK    8  A    between atoms: C_24  and  O_31
REMARK    9  A    between atoms: C_25  and  O_29
REMARK   10  A    between atoms: C_26  and  O_27
REMARK   11  A    between atoms: O_27  and  C_28
REMARK   12  A    between atoms: O_29  and  C_30
REMARK   13  A    between atoms: O_31  and  C_32
REMARK   14  A    between atoms: C_33  and  C_35
REMARK   15  A    between atoms: C_35  and  C_36
REMARK                            x       y       z     vdW  Elec       q    Type
REMARK                         _______ _______ _______ _____ _____    ______ ____
ROOT
ATOM      1  C   UNL     1      -2.187   0.580   4.296  0.00  0.00    +0.079 C 
ATOM      2  N   UNL     1      -2.218  -0.680   4.570  0.00  0.00    -0.181 NA
ATOM      3  N   UNL     1      -1.625  -1.488   3.602  0.00  0.00    -0.185 N 
ATOM      4  C   UNL     1      -1.119  -0.634   2.515  0.00  0.00    +0.140 C 
ATOM      5  C   UNL     1      -1.490   0.792   2.966  0.00  0.00    +0.087 C 
ATOM      6  C   UNL     1      -1.529  -2.831   3.653  0.00  0.00    +0.235 C 
ATOM      7  O   UNL     1      -0.989  -3.435   2.750  0.00  0.00    -0.274 OA
ENDROOT
BRANCH   1  11
ATOM      8  N   UNL     1      -3.872   2.340   7.130  0.00  0.00    -0.288 N 
ATOM      9  C   UNL     1      -3.379   1.339   6.374  0.00  0.00    +0.267 A 
ATOM     10  O   UNL     1      -3.477   0.182   6.744  0.00  0.00    -0.267 OA
ATOM     11  C   UNL     1      -2.740   1.647   5.143  0.00  0.00    +0.122 A 
ATOM     12  C   UNL     1      -2.654   2.980   4.753  0.00  0.00    +0.206 A 
ATOM     13  N   UNL     1      -3.180   3.947   5.566  0.00  0.00    -0.306 N 
ATOM     14  H   UNL     1      -3.124   4.879   5.302  0.00  0.00    +0.171 HD
ATOM     15  C   UNL     1      -3.773   3.619   6.727  0.00  0.00    +0.163 A 
ATOM     16  S   UNL     1      -4.420   4.858   7.715  0.00  0.00    -0.013 S 
BRANCH  12  17
ATOM     17  O   UNL     1      -2.059   3.315   3.591  0.00  0.00    -0.493 OA
ATOM     18  H   UNL     1      -2.027   4.256   3.369  0.00  0.00    +0.294 HD
ENDBRANCH  12  17
BRANCH   8  19
ATOM     19  C   UNL     1      -4.528   2.031   8.403  0.00  0.00    +0.127 C 
BRANCH  19  20
ATOM     20  C   UNL     1      -6.022   1.806   8.165  0.00  0.00    +0.021 C 
BRANCH  20  22
ATOM     21  C   UNL     1      -8.202   1.259   9.257  0.00  0.00    +0.004 C 
ATOM     22  C   UNL     1      -6.707   1.483   9.495  0.00  0.00    -0.002 C 
ENDBRANCH  20  22
ENDBRANCH  19  20
ENDBRANCH   8  19
ENDBRANCH   1  11
BRANCH   4  23
ATOM     23  C   UNL     1      -1.801  -0.973   1.214  0.00  0.00    +0.021 A 
ATOM     24  C   UNL     1      -3.027  -1.612   1.224  0.00  0.00    +0.013 A 
ATOM     25  C   UNL     1      -3.654  -1.930   0.034  0.00  0.00    +0.050 A 
ATOM     26  C   UNL     1      -3.058  -1.603  -1.175  0.00  0.00    +0.165 A 
ATOM     27  C   UNL     1      -1.828  -0.956  -1.189  0.00  0.00    +0.204 A 
ATOM     28  C   UNL     1      -1.201  -0.638   0.010  0.00  0.00    +0.170 A 
BRANCH  28  29
ATOM     29  O   UNL     1       0.002  -0.004   0.002  0.00  0.00    -0.491 OA
ATOM     30  C   UNL     1      -0.017   1.425   0.010  0.00  0.00    +0.277 C 
ENDBRANCH  28  29
BRANCH  27  31
ATOM     31  O   UNL     1      -1.240  -0.634  -2.373  0.00  0.00    -0.488 OA
ATOM     32  C   UNL     1      -0.366  -1.607  -2.949  0.00  0.00    +0.277 C 
ENDBRANCH  27  31
BRANCH  26  33
ATOM     33  O   UNL     1      -3.676  -1.916  -2.346  0.00  0.00    -0.491 OA
ATOM     34  C   UNL     1      -4.937  -2.582  -2.256  0.00  0.00    +0.277 C 
ENDBRANCH  26  33
ENDBRANCH   4  23
BRANCH   6  35
ATOM     35  C   UNL     1      -2.092  -3.582   4.831  0.00  0.00    +0.094 C 
ATOM     36  C   UNL     1      -1.853  -5.082   4.642  0.00  0.00    +0.013 C 
ENDBRANCH   6  35
TORSDOF 10
