REMARK  Name = ZINC10233079
REMARK  8 active torsions:
REMARK  status: ('A' for Active; 'I' for Inactive)
REMARK    1  A    between atoms: C_1  and  C_2
REMARK    2  A    between atoms: N_16  and  C_26
REMARK    3  A    between atoms: C_17  and  C_19
REMARK    4  A    between atoms: C_26  and  C_27
REMARK    5  A    between atoms: C_27  and  C_28
REMARK    6  A    between atoms: C_28  and  N_52
REMARK    7  A    between atoms: C_29  and  N_52
REMARK    8  A    between atoms: C_30  and  N_52
REMARK                            x       y       z     vdW  Elec       q    Type
REMARK                         _______ _______ _______ _____ _____    ______ ____
ROOT
ATOM      1  C   UNL     1      -6.173   1.186  -7.108  0.00  0.00    +0.045 C 
ATOM      2  C   UNL     1      -5.239   0.990  -5.941  0.00  0.00    -0.029 A 
ATOM      3  C   UNL     1      -5.605   1.443  -4.693  0.00  0.00    +0.051 A 
ATOM      4  C   UNL     1      -4.750   1.266  -3.609  0.00  0.00    +0.140 A 
ATOM      5  C   UNL     1      -3.517   0.622  -3.812  0.00  0.00    +0.066 A 
ATOM      6  C   UNL     1      -3.157   0.168  -5.079  0.00  0.00    +0.035 A 
ATOM      7  C   UNL     1      -4.020   0.354  -6.138  0.00  0.00    +0.045 A 
ATOM      8 CL   UNL     1      -3.582  -0.207  -7.721  0.00  0.00    -0.083 Cl
ATOM      9  C   UNL     1      -2.626   0.445  -2.648  0.00  0.00    +0.199 A 
ATOM     10  O   UNL     1      -1.543  -0.103  -2.749  0.00  0.00    -0.287 OA
ATOM     11  C   UNL     1      -3.109   0.963  -1.365  0.00  0.00    +0.072 A 
ATOM     12  C   UNL     1      -4.320   1.568  -1.294  0.00  0.00    +0.199 A 
ATOM     13  O   UNL     1      -5.097   1.706  -2.386  0.00  0.00    -0.450 OA
ATOM     14  C   UNL     1      -4.550   1.990   0.110  0.00  0.00    +0.283 C 
ATOM     15  O   UNL     1      -5.544   2.562   0.510  0.00  0.00    -0.267 OA
ATOM     16  N   UNL     1      -3.499   1.649   0.876  0.00  0.00    -0.284 N 
ATOM     17  C   UNL     1      -2.513   0.980   0.019  0.00  0.00    +0.145 C 
ENDROOT
BRANCH  17  18
ATOM     18  C   UNL     1      -1.218   1.751   0.017  0.00  0.00    -0.020 A 
ATOM     19  C   UNL     1      -1.237   3.133   0.030  0.00  0.00    +0.006 A 
ATOM     20  C   UNL     1      -0.051   3.842   0.023  0.00  0.00    +0.003 A 
ATOM     21  C   UNL     1       1.157   3.169   0.008  0.00  0.00    +0.038 A 
ATOM     22  C   UNL     1       1.177   1.785   0.000  0.00  0.00    +0.124 A 
ATOM     23  C   UNL     1      -0.013   1.076   0.008  0.00  0.00    +0.044 A 
ATOM     24  F   UNL     1       2.356   1.126  -0.014  0.00  0.00    -0.205 F 
ENDBRANCH  17  18
BRANCH  16  25
ATOM     25  C   UNL     1      -3.362   1.899   2.313  0.00  0.00    +0.107 C 
BRANCH  25  26
ATOM     26  C   UNL     1      -2.696   3.259   2.532  0.00  0.00    +0.000 C 
BRANCH  26  27
ATOM     27  C   UNL     1      -2.553   3.521   4.033  0.00  0.00    -0.078 C 
BRANCH  27  30
ATOM     28  C   UNL     1      -2.779   5.918   3.779  0.00  0.00    -0.097 C 
ATOM     29  C   UNL     1      -1.544   5.010   5.654  0.00  0.00    -0.097 C 
ATOM     30  N   UNL     1      -1.889   4.827   4.228  0.00  0.00    +0.376 N 
ATOM     31  H   UNL     1      -1.027   4.849   3.671  0.00  0.00    -0.083 HD
ENDBRANCH  27  30
ENDBRANCH  26  27
ENDBRANCH  25  26
ENDBRANCH  16  25
TORSDOF 5
