REMARK  Name = ZINC39964769
REMARK  9 active torsions:
REMARK  status: ('A' for Active; 'I' for Inactive)
REMARK    1  A    between atoms: C_1  and  C_2
REMARK    2  A    between atoms: C_7  and  C_12
REMARK    3  A    between atoms: C_12  and  C_27
REMARK    4  A    between atoms: C_13  and  C_14
REMARK    5  A    between atoms: C_17  and  O_21
REMARK    6  A    between atoms: O_21  and  C_22
REMARK    7  A    between atoms: C_22  and  C_23
REMARK    8  A    between atoms: C_23  and  O_25
REMARK    9  A    between atoms: O_25  and  C_26
REMARK                            x       y       z     vdW  Elec       q    Type
REMARK                         _______ _______ _______ _____ _____    ______ ____
ROOT
ATOM      1  C   UNL     1       1.312  -5.058   1.981  0.00  0.00    +0.072 C 
ATOM      2  C   UNL     1       1.217  -6.213   2.672  0.00  0.00    +0.026 C 
ENDROOT
BRANCH   1   9
ATOM      3  C   UNL     1       0.140   1.240  -0.815  0.00  0.00    +0.044 C 
ATOM      4  C   UNL     1       0.045  -0.243  -0.564  0.00  0.00    -0.048 A 
ATOM      5  C   UNL     1      -0.234  -1.095  -1.647  0.00  0.00    +0.005 A 
ATOM      6  C   UNL     1      -0.337  -2.433  -1.513  0.00  0.00    +0.027 A 
ATOM      7  C   UNL     1      -0.153  -3.044  -0.189  0.00  0.00    +0.060 A 
ATOM      8  N   UNL     1      -0.194  -4.276   0.230  0.00  0.00    -0.359 N 
ATOM      9  C   UNL     1       0.072  -4.259   1.674  0.00  0.00    +0.216 C 
ATOM     10  N   UNL     1       0.273  -2.852   2.041  0.00  0.00    -0.359 N 
ATOM     11  C   UNL     1       0.143  -2.143   0.958  0.00  0.00    +0.061 A 
ATOM     12  C   UNL     1       0.236  -0.701   0.690  0.00  0.00    +0.030 A 
ATOM     13  H   UNL     1      -0.368  -5.061  -0.312  0.00  0.00    +0.162 HD
ATOM     14  H   UNL     1       0.468  -2.513   2.929  0.00  0.00    +0.162 HD
ENDBRANCH   1   9
BRANCH   2  15
ATOM     15  C   UNL     1      -0.105  -6.781   2.976  0.00  0.00    -0.023 A 
ATOM     16  C   UNL     1      -1.140  -6.693   2.037  0.00  0.00    +0.011 A 
ATOM     17  C   UNL     1      -2.375  -7.227   2.326  0.00  0.00    +0.047 A 
ATOM     18  C   UNL     1      -2.597  -7.853   3.547  0.00  0.00    +0.134 A 
ATOM     19  C   UNL     1      -1.573  -7.943   4.483  0.00  0.00    +0.056 A 
ATOM     20  C   UNL     1      -0.331  -7.417   4.202  0.00  0.00    +0.026 A 
ATOM     21  I   UNL     1      -1.917  -8.887   6.321  0.00  0.00    -0.040 I 
BRANCH  18  22
ATOM     22  O   UNL     1      -3.818  -8.377   3.827  0.00  0.00    -0.480 OA
BRANCH  22  23
ATOM     23  C   UNL     1      -4.825  -8.249   2.821  0.00  0.00    +0.349 C 
BRANCH  23  24
ATOM     24  C   UNL     1      -6.103  -8.884   3.306  0.00  0.00    +0.345 C 
ATOM     25  O   UNL     1      -6.146  -9.395   4.400  0.00  0.00    -0.247 OA
BRANCH  24  26
ATOM     26  O   UNL     1      -7.192  -8.884   2.522  0.00  0.00    -0.466 OA
ATOM     27  C   UNL     1      -8.368  -9.504   3.045  0.00  0.00    +0.280 C 
ENDBRANCH  24  26
ENDBRANCH  23  24
ENDBRANCH  22  23
ENDBRANCH  18  22
ENDBRANCH   2  15
BRANCH   1  28
ATOM     28  C   UNL     1       2.592  -4.591   1.540  0.00  0.00    +0.099 C 
ATOM     29  N   UNL     1       3.607  -4.221   1.189  0.00  0.00    -0.191 NA
ENDBRANCH   1  28
TORSDOF 7
