REMARK  Name = ZINC67613058
REMARK  5 active torsions:
REMARK  status: ('A' for Active; 'I' for Inactive)
REMARK    1  A    between atoms: C_4  and  C_7
REMARK    2  A    between atoms: C_10  and  N_12
REMARK    3  A    between atoms: N_15  and  N_16
REMARK    4  A    between atoms: C_17  and  C_19
REMARK    5  A    between atoms: C_24  and  O_25
REMARK                            x       y       z     vdW  Elec       q    Type
REMARK                         _______ _______ _______ _____ _____    ______ ____
ROOT
ATOM      1  N   UNL     1       5.398  -1.752   1.581  0.00  0.00    -0.295 N 
ATOM      2  C   UNL     1       5.669  -2.128   2.847  0.00  0.00    +0.316 C 
ATOM      3  O   UNL     1       4.760  -2.383   3.613  0.00  0.00    -0.251 OA
ATOM      4  N   UNL     1       6.948  -2.221   3.263  0.00  0.00    -0.218 N 
ATOM      5  H   UNL     1       6.123  -1.549   0.970  0.00  0.00    +0.151 HD
ATOM      6  H   UNL     1       7.143  -2.491   4.174  0.00  0.00    +0.174 HD
ENDROOT
BRANCH   4   7
ATOM      7  N   UNL     1       7.995  -1.926   2.380  0.00  0.00    -0.229 N 
ATOM      8  C   UNL     1       9.273  -2.019   2.796  0.00  0.00    +0.264 C 
ATOM      9  O   UNL     1       9.518  -2.358   3.937  0.00  0.00    -0.269 OA
ATOM     10  H   UNL     1       7.799  -1.656   1.469  0.00  0.00    +0.173 HD
BRANCH   8  11
ATOM     11  C   UNL     1      10.376  -1.709   1.866  0.00  0.00    +0.079 A 
ATOM     12  C   UNL     1      10.099  -1.314   0.555  0.00  0.00    +0.017 A 
ATOM     13  C   UNL     1      11.133  -1.025  -0.309  0.00  0.00    +0.001 A 
ATOM     14  C   UNL     1      12.448  -1.125   0.117  0.00  0.00    +0.004 A 
ATOM     15  C   UNL     1      12.736  -1.516   1.410  0.00  0.00    +0.046 A 
ATOM     16  C   UNL     1      11.707  -1.804   2.294  0.00  0.00    +0.129 A 
BRANCH  16  17
ATOM     17  O   UNL     1      11.988  -2.182   3.566  0.00  0.00    -0.506 OA
ATOM     18  H   UNL     1      12.091  -3.136   3.680  0.00  0.00    +0.292 HD
ENDBRANCH  16  17
ENDBRANCH   8  11
ENDBRANCH   4   7
BRANCH   1  21
ATOM     19  C   UNL     1       3.711  -0.707  -0.038  0.00  0.00    +0.041 C 
ATOM     20  C   UNL     1       3.671  -2.222  -0.251  0.00  0.00    +0.033 C 
ATOM     21  C   UNL     1       4.008  -1.652   1.129  0.00  0.00    +0.083 C 
BRANCH  19  25
ATOM     22  C   UNL     1      -0.017   1.378   0.010  0.00  0.00    +0.000 A 
ATOM     23  C   UNL     1       1.171   2.086   0.002  0.00  0.00    +0.000 A 
ATOM     24  C   UNL     1       2.377   1.411  -0.013  0.00  0.00    +0.004 A 
ATOM     25  C   UNL     1       2.396   0.029  -0.020  0.00  0.00    -0.042 A 
ATOM     26  C   UNL     1       1.208  -0.679  -0.012  0.00  0.00    +0.004 A 
ATOM     27  C   UNL     1       0.002  -0.004   0.002  0.00  0.00    +0.000 A 
ENDBRANCH  19  25
ENDBRANCH   1  21
TORSDOF 5
