REMARK  Name = ZINC24250218
REMARK  7 active torsions:
REMARK  status: ('A' for Active; 'I' for Inactive)
REMARK    1  A    between atoms: C_1  and  C_2
REMARK    2  A    between atoms: C_2  and  O_3
REMARK    3  A    between atoms: O_3  and  C_4
REMARK    4  A    between atoms: C_9  and  N_10
REMARK    5  A    between atoms: N_10  and  S_11
REMARK    6  A    between atoms: S_11  and  C_14
REMARK    7  A    between atoms: C_17  and  N_20
REMARK                            x       y       z     vdW  Elec       q    Type
REMARK                         _______ _______ _______ _____ _____    ______ ____
ROOT
ATOM      1  C   UNL     1      -4.818   5.483  -0.034  0.00  0.00    +0.109 A 
ATOM      2  C   UNL     1      -4.492   4.144  -0.144  0.00  0.00    +0.031 A 
ATOM      3  C   UNL     1      -3.168   3.758  -0.223  0.00  0.00    +0.030 A 
ATOM      4  C   UNL     1      -2.164   4.717  -0.190  0.00  0.00    +0.069 A 
ATOM      5  C   UNL     1      -2.495   6.061  -0.072  0.00  0.00    +0.030 A 
ATOM      6  C   UNL     1      -3.821   6.440  -0.000  0.00  0.00    +0.031 A 
ENDROOT
BRANCH   4   7
ATOM      7  N   UNL     1      -0.822   4.329  -0.269  0.00  0.00    -0.196 N 
ATOM      8  C   UNL     1      -0.361   3.336   0.518  0.00  0.00    +0.292 A 
ATOM      9  O   UNL     1      -1.111   2.773   1.300  0.00  0.00    -0.264 OA
ATOM     10  C   UNL     1       0.991   2.954   0.431  0.00  0.00    +0.127 A 
ATOM     11  C   UNL     1       1.810   3.599  -0.451  0.00  0.00    +0.084 A 
ATOM     12  C   UNL     1       1.295   4.628  -1.254  0.00  0.00    +0.155 A 
ATOM     13  N   UNL     1       0.040   4.978  -1.161  0.00  0.00    -0.170 NA
ATOM     14 CL   UNL     1       3.481   3.147  -0.579  0.00  0.00    -0.080 Cl
ATOM     15 CL   UNL     1       1.610   1.679   1.433  0.00  0.00    -0.076 Cl
ENDBRANCH   4   7
BRANCH   1  16
ATOM     16  S   UNL     1      -6.508   5.971   0.066  0.00  0.00    +0.072 S 
ATOM     17  O   UNL     1      -6.570   7.317  -0.385  0.00  0.00    -0.150 OA
ATOM     18  O   UNL     1      -7.267   4.931  -0.534  0.00  0.00    -0.150 OA
BRANCH  16  19
ATOM     19  N   UNL     1      -6.918   5.990   1.671  0.00  0.00    -0.213 N 
ATOM     20  H   UNL     1      -7.722   5.336   2.041  0.00  0.00    +0.174 HD
BRANCH  19  26
ATOM     21  C   UNL     1      -5.985   6.425   3.861  0.00  0.00    +0.143 A 
ATOM     22  C   UNL     1      -5.317   7.269   4.732  0.00  0.00    +0.047 A 
ATOM     23  C   UNL     1      -4.905   8.518   4.306  0.00  0.00    +0.004 A 
ATOM     24  C   UNL     1      -5.160   8.930   3.011  0.00  0.00    +0.002 A 
ATOM     25  C   UNL     1      -5.823   8.092   2.134  0.00  0.00    +0.028 A 
ATOM     26  C   UNL     1      -6.243   6.838   2.555  0.00  0.00    +0.090 A 
BRANCH  21  27
ATOM     27  O   UNL     1      -6.389   5.195   4.278  0.00  0.00    -0.490 OA
BRANCH  27  29
ATOM     28  C   UNL     1      -6.619   3.430   5.913  0.00  0.00    +0.048 C 
ATOM     29  C   UNL     1      -6.091   4.838   5.629  0.00  0.00    +0.226 C 
ENDBRANCH  27  29
ENDBRANCH  21  27
ENDBRANCH  19  26
ENDBRANCH  16  19
ENDBRANCH   1  16
TORSDOF 6
