REMARK  Name = ZINC12899611
REMARK  7 active torsions:
REMARK  status: ('A' for Active; 'I' for Inactive)
REMARK    1  A    between atoms: C_1  and  C_2
REMARK    2  A    between atoms: C_12  and  C_13
REMARK    3  A    between atoms: C_13  and  C_14
REMARK    4  A    between atoms: N_16  and  C_17
REMARK    5  A    between atoms: C_22  and  C_23
REMARK    6  A    between atoms: C_27  and  C_35
REMARK    7  A    between atoms: C_28  and  C_29
REMARK                            x       y       z     vdW  Elec       q    Type
REMARK                         _______ _______ _______ _____ _____    ______ ____
ROOT
ATOM      1  C   UNL     1       0.065  -2.973   0.035  0.00  0.00    +0.045 C 
ATOM      2  C   UNL     1       1.327  -2.149   0.011  0.00  0.00    -0.029 A 
ATOM      3  C   UNL     1       1.269  -0.684   0.025  0.00  0.00    +0.022 A 
ATOM      4  C   UNL     1       0.044  -0.017   0.060  0.00  0.00    +0.024 A 
ATOM      5  C   UNL     1       0.025   1.368   0.071  0.00  0.00    +0.029 A 
ATOM      6  C   UNL     1       1.228   2.101   0.048  0.00  0.00    +0.139 A 
ATOM      7  C   UNL     1       2.443   1.432   0.013  0.00  0.00    +0.093 A 
ATOM      8  C   UNL     1       2.474   0.048   0.001  0.00  0.00    +0.143 A 
ATOM      9  O   UNL     1       3.656  -0.609  -0.033  0.00  0.00    -0.422 OA
ATOM     10  C   UNL     1       3.713  -1.950  -0.046  0.00  0.00    +0.341 A 
ATOM     11  O   UNL     1       4.801  -2.496  -0.078  0.00  0.00    -0.245 OA
ATOM     12  C   UNL     1       2.546  -2.743  -0.024  0.00  0.00    +0.049 A 
ATOM     13  O   UNL     1       0.903   3.410   0.066  0.00  0.00    -0.459 OA
ATOM     14  C   UNL     1      -0.429   3.580   0.100  0.00  0.00    +0.111 A 
ATOM     15  C   UNL     1      -1.050   2.379   0.100  0.00  0.00    +0.031 A 
ATOM     16  C   UNL     1      -1.129   4.914   0.127  0.00  0.00    +0.087 C 
ENDROOT
BRANCH  15  17
ATOM     17  C   UNL     1      -2.511   2.128   0.125  0.00  0.00    -0.014 A 
ATOM     18  C   UNL     1      -3.136   1.522  -0.963  0.00  0.00    +0.008 A 
ATOM     19  C   UNL     1      -4.495   1.286  -0.931  0.00  0.00    +0.001 A 
ATOM     20  C   UNL     1      -5.239   1.661   0.173  0.00  0.00    +0.000 A 
ATOM     21  C   UNL     1      -4.625   2.268   1.254  0.00  0.00    +0.001 A 
ATOM     22  C   UNL     1      -3.266   2.504   1.236  0.00  0.00    +0.008 A 
ENDBRANCH  15  17
BRANCH  12  23
ATOM     23  C   UNL     1       2.655  -4.246  -0.040  0.00  0.00    +0.138 C 
BRANCH  23  24
ATOM     24  C   UNL     1       2.656  -4.735  -1.465  0.00  0.00    +0.222 C 
ATOM     25  O   UNL     1       2.576  -3.941  -2.378  0.00  0.00    -0.275 OA
ATOM     26  N   UNL     1       2.745  -6.054  -1.725  0.00  0.00    -0.285 N 
ATOM     27  H   UNL     1       2.873  -6.684  -0.998  0.00  0.00    +0.155 HD
BRANCH  26  28
ATOM     28  C   UNL     1       2.653  -6.514  -3.037  0.00  0.00    +0.046 A 
ATOM     29  C   UNL     1       3.181  -5.762  -4.078  0.00  0.00    +0.024 A 
ATOM     30  C   UNL     1       3.093  -6.221  -5.376  0.00  0.00    +0.002 A 
ATOM     31  C   UNL     1       2.470  -7.427  -5.653  0.00  0.00    +0.001 A 
ATOM     32  C   UNL     1       1.935  -8.184  -4.633  0.00  0.00    +0.015 A 
ATOM     33  C   UNL     1       2.021  -7.735  -3.313  0.00  0.00    +0.058 A 
BRANCH  33  34
ATOM     34  C   UNL     1       1.450  -8.540  -2.217  0.00  0.00    +0.243 C 
ATOM     35  O   UNL     1       1.439  -8.101  -1.083  0.00  0.00    -0.270 OA
ATOM     36  N   UNL     1       0.942  -9.762  -2.472  0.00  0.00    -0.325 N 
ATOM     37  H   UNL     1       0.952 -10.112  -3.376  0.00  0.00    +0.145 HD
ATOM     38  H   UNL     1       0.567 -10.292  -1.751  0.00  0.00    +0.145 HD
ENDBRANCH  33  34
ENDBRANCH  26  28
ENDBRANCH  23  24
ENDBRANCH  12  23
TORSDOF 5
