REMARK  Name = ZINC15008843
REMARK  14 active torsions:
REMARK  status: ('A' for Active; 'I' for Inactive)
REMARK    1  A    between atoms: C_1  and  C_2
REMARK    2  A    between atoms: C_3  and  C_8
REMARK    3  A    between atoms: N_5  and  C_7
REMARK    4  A    between atoms: C_8  and  N_9
REMARK    5  A    between atoms: N_9  and  C_10
REMARK    6  A    between atoms: N_9  and  C_11
REMARK    7  A    between atoms: C_11  and  C_13
REMARK    8  A    between atoms: C_11  and  C_21
REMARK    9  A    between atoms: C_13  and  C_14
REMARK   10  A    between atoms: N_24  and  C_27
REMARK   11  A    between atoms: C_27  and  C_28
REMARK   12  A    between atoms: C_30  and  O_35
REMARK   13  A    between atoms: C_33  and  O_34
REMARK   14  A    between atoms: O_35  and  C_36
REMARK                            x       y       z     vdW  Elec       q    Type
REMARK                         _______ _______ _______ _____ _____    ______ ____
ROOT
ATOM      1  C   UNL     1       4.665   4.631   5.928  0.00  0.00    +0.064 C 
ENDROOT
BRANCH   1   2
ATOM      2  C   UNL     1       3.695   4.952   4.789  0.00  0.00    +0.003 C 
ATOM      3  C   UNL     1       4.346   4.602   3.448  0.00  0.00    -0.014 C 
ATOM      4  C   UNL     1       3.350   4.869   2.318  0.00  0.00    -0.078 C 
ATOM      5  N   UNL     1       2.144   4.057   2.524  0.00  0.00    +0.382 N 
ATOM      6  C   UNL     1       1.475   4.410   3.783  0.00  0.00    -0.078 C 
ATOM      7  C   UNL     1       2.415   4.128   4.957  0.00  0.00    -0.014 C 
ATOM      8  H   UNL     1       2.456   3.005   2.593  0.00  0.00    -0.081 HD
BRANCH   5   9
ATOM      9  C   UNL     1       1.223   4.184   1.386  0.00  0.00    -0.039 C 
BRANCH   9  10
ATOM     10  C   UNL     1       0.124   3.160   1.513  0.00  0.00    -0.019 A 
ATOM     11  C   UNL     1      -1.141   3.551   1.907  0.00  0.00    +0.051 A 
ATOM     12  C   UNL     1      -2.153   2.610   2.024  0.00  0.00    +0.121 A 
ATOM     13  C   UNL     1      -1.895   1.276   1.741  0.00  0.00    +0.049 A 
ATOM     14  C   UNL     1      -0.629   0.885   1.353  0.00  0.00    +0.049 A 
ATOM     15  C   UNL     1       0.383   1.827   1.236  0.00  0.00    +0.118 A 
BRANCH  15  16
ATOM     16  O   UNL     1       1.628   1.442   0.849  0.00  0.00    -0.507 OA
ATOM     17  H   UNL     1       1.834   0.384   0.629  0.00  0.00    +0.292 HD
ENDBRANCH  15  16
BRANCH  12  18
ATOM     18  O   UNL     1      -3.398   2.994   2.411  0.00  0.00    -0.495 OA
ATOM     19  C   UNL     1      -4.391   1.972   2.511  0.00  0.00    +0.277 C 
ENDBRANCH  12  18
ENDBRANCH   9  10
ENDBRANCH   5   9
ENDBRANCH   1   2
BRANCH   1  20
ATOM     20  N   UNL     1       4.091   5.084   7.202  0.00  0.00    -0.298 NA
ATOM     21  C   UNL     1       3.316   4.012   7.841  0.00  0.00    +0.105 C 
BRANCH  20  22
ATOM     22  C   UNL     1       3.270   6.287   7.012  0.00  0.00    +0.123 C 
BRANCH  22  25
ATOM     23  C   UNL     1       4.841   8.182   9.007  0.00  0.00    +0.068 C 
ATOM     24  C   UNL     1       3.465   7.609   9.230  0.00  0.00    +0.064 A 
ATOM     25  C   UNL     1       2.772   6.772   8.349  0.00  0.00    +0.007 A 
ATOM     26  C   UNL     1       1.579   6.471   8.912  0.00  0.00    +0.113 A 
ATOM     27  N   UNL     1       1.517   7.100  10.104  0.00  0.00    -0.274 N 
ATOM     28  N   UNL     1       2.711   7.811  10.280  0.00  0.00    -0.176 NA
ATOM     29  C   UNL     1       0.398   7.048  11.048  0.00  0.00    +0.172 C 
ENDBRANCH  22  25
ENDBRANCH  20  22
ENDBRANCH   1  20
BRANCH   1  30
ATOM     30  C   UNL     1       5.994   5.348   5.684  0.00  0.00    +0.057 C 
BRANCH  30  31
ATOM     31  C   UNL     1       7.001   4.904   6.713  0.00  0.00    -0.011 A 
ATOM     32  C   UNL     1       7.210   5.664   7.848  0.00  0.00    +0.006 A 
ATOM     33  C   UNL     1       8.130   5.254   8.795  0.00  0.00    +0.000 A 
ATOM     34  C   UNL     1       8.850   4.090   8.602  0.00  0.00    +0.003 A 
ATOM     35  C   UNL     1       8.647   3.332   7.465  0.00  0.00    +0.038 A 
ATOM     36  C   UNL     1       7.722   3.739   6.518  0.00  0.00    +0.127 A 
ATOM     37  F   UNL     1       7.523   2.998   5.406  0.00  0.00    -0.205 F 
ENDBRANCH  30  31
ENDBRANCH   1  30
TORSDOF 10
