REMARK  Name = ZINC16951207
REMARK  4 active torsions:
REMARK  status: ('A' for Active; 'I' for Inactive)
REMARK    1  A    between atoms: C_1  and  C_2
REMARK    2  A    between atoms: C_3  and  N_15
REMARK    3  A    between atoms: C_4  and  C_9
REMARK    4  A    between atoms: N_16  and  C_17
REMARK                            x       y       z     vdW  Elec       q    Type
REMARK                         _______ _______ _______ _____ _____    ______ ____
ROOT
ATOM      1  C   UNL     1      -2.269   4.265   0.269  0.00  0.00    +0.068 C 
ATOM      2  C   UNL     1      -3.545   3.472   0.148  0.00  0.00    +0.071 A 
ATOM      3  C   UNL     1      -3.506   2.111  -0.185  0.00  0.00    +0.133 A 
ATOM      4  C   UNL     1      -4.732   1.414  -0.278  0.00  0.00    +0.103 A 
ATOM      5  N   UNL     1      -5.863   2.075  -0.052  0.00  0.00    -0.212 NA
ATOM      6  C   UNL     1      -5.846   3.363   0.254  0.00  0.00    +0.213 A 
ATOM      7  N   UNL     1      -4.714   4.050   0.350  0.00  0.00    -0.218 NA
ATOM      8  N   UNL     1      -7.044   4.012   0.481  0.00  0.00    -0.327 N 
ATOM      9  H   UNL     1      -7.050   5.082   0.737  0.00  0.00    +0.145 HD
ATOM     10  H   UNL     1      -7.992   3.459   0.406  0.00  0.00    +0.145 HD
ENDROOT
BRANCH   4  11
ATOM     11  C   UNL     1      -4.755  -0.026  -0.621  0.00  0.00    +0.003 A 
ATOM     12  C   UNL     1      -3.824  -0.548  -1.520  0.00  0.00    +0.010 A 
ATOM     13  C   UNL     1      -3.848  -1.892  -1.831  0.00  0.00    +0.001 A 
ATOM     14  C   UNL     1      -4.800  -2.720  -1.263  0.00  0.00    +0.000 A 
ATOM     15  C   UNL     1      -5.730  -2.207  -0.376  0.00  0.00    +0.001 A 
ATOM     16  C   UNL     1      -5.713  -0.866  -0.052  0.00  0.00    +0.010 A 
ENDBRANCH   4  11
BRANCH   3  17
ATOM     17  N   UNL     1      -2.321   1.477  -0.406  0.00  0.00    -0.145 NA
ATOM     18  N   UNL     1      -1.438   2.013  -1.179  0.00  0.00    -0.148 NA
BRANCH  18  19
ATOM     19  C   UNL     1      -0.249   1.377  -1.402  0.00  0.00    +0.100 A 
ATOM     20  C   UNL     1       0.014   0.146  -0.794  0.00  0.00    +0.031 A 
ATOM     21  C   UNL     1       1.214  -0.492  -1.027  0.00  0.00    +0.002 A 
ATOM     22  C   UNL     1       2.157   0.082  -1.862  0.00  0.00    +0.001 A 
ATOM     23  C   UNL     1       1.905   1.300  -2.468  0.00  0.00    +0.017 A 
ATOM     24  C   UNL     1       0.709   1.952  -2.244  0.00  0.00    +0.045 A 
ATOM     25 BR   UNL     1       0.365   3.616  -3.073  0.00  0.00    -0.048 Br
ENDBRANCH  18  19
ENDBRANCH   3  17
TORSDOF 3
