REMARK  Name = ZINC27346276
REMARK  11 active torsions:
REMARK  status: ('A' for Active; 'I' for Inactive)
REMARK    1  A    between atoms: C_1  and  C_2
REMARK    2  A    between atoms: C_5  and  C_8
REMARK    3  A    between atoms: C_8  and  C_32
REMARK    4  A    between atoms: N_11  and  C_15
REMARK    5  A    between atoms: C_15  and  C_16
REMARK    6  A    between atoms: N_18  and  C_19
REMARK    7  A    between atoms: C_19  and  C_20
REMARK    8  A    between atoms: C_20  and  C_22
REMARK    9  A    between atoms: C_20  and  N_29
REMARK   10  A    between atoms: N_29  and  C_30
REMARK   11  A    between atoms: N_29  and  C_31
REMARK                            x       y       z     vdW  Elec       q    Type
REMARK                         _______ _______ _______ _____ _____    ______ ____
ROOT
ATOM      1  C   UNL     1      -2.424  -6.247  -4.889  0.00  0.00    +0.213 C 
ENDROOT
BRANCH   1   5
ATOM      2  C   UNL     1       0.541  -4.010  -4.908  0.00  0.00    +0.135 C 
ATOM      3  C   UNL     1      -0.295  -5.123  -5.509  0.00  0.00    +0.251 C 
ATOM      4  O   UNL     1      -0.063  -5.749  -6.520  0.00  0.00    -0.272 OA
ATOM      5  N   UNL     1      -1.351  -5.271  -4.684  0.00  0.00    -0.215 N 
ATOM      6  C   UNL     1      -1.299  -4.415  -3.657  0.00  0.00    +0.310 C 
ATOM      7  O   UNL     1      -2.139  -4.359  -2.781  0.00  0.00    -0.252 OA
ATOM      8  N   UNL     1      -0.211  -3.624  -3.702  0.00  0.00    -0.281 N 
ATOM      9  C   UNL     1       1.933  -4.524  -4.537  0.00  0.00    +0.047 C 
ATOM     10  H   UNL     1       0.166  -2.822  -3.051  0.00  0.00    +0.152 HD
BRANCH   2  15
ATOM     11  C   UNL     1       0.932   0.443  -8.570  0.00  0.00    +0.044 C 
ATOM     12  C   UNL     1       0.831  -0.719  -7.615  0.00  0.00    -0.050 A 
ATOM     13  C   UNL     1       0.686  -2.004  -8.103  0.00  0.00    +0.004 A 
ATOM     14  C   UNL     1       0.598  -3.070  -7.227  0.00  0.00    +0.006 A 
ATOM     15  C   UNL     1       0.643  -2.849  -5.863  0.00  0.00    -0.015 A 
ATOM     16  C   UNL     1       0.782  -1.563  -5.375  0.00  0.00    +0.006 A 
ATOM     17  C   UNL     1       0.876  -0.498  -6.251  0.00  0.00    +0.004 A 
ENDBRANCH   2  15
ENDBRANCH   1   5
BRANCH   1  18
ATOM     18  C   UNL     1      -2.066  -7.539  -4.200  0.00  0.00    +0.231 C 
ATOM     19  O   UNL     1      -1.018  -7.634  -3.598  0.00  0.00    -0.274 OA
ATOM     20  N   UNL     1      -2.911  -8.588  -4.253  0.00  0.00    -0.315 N 
ATOM     21  H   UNL     1      -3.862  -8.501  -4.799  0.00  0.00    +0.149 HD
BRANCH  20  22
ATOM     22  C   UNL     1      -2.562  -9.843  -3.584  0.00  0.00    +0.093 C 
BRANCH  22  23
ATOM     23  C   UNL     1      -3.775 -10.776  -3.587  0.00  0.00    -0.020 C 
BRANCH  23  24
ATOM     24  C   UNL     1      -3.381 -12.114  -3.016  0.00  0.00    -0.041 A 
ATOM     25  C   UNL     1      -3.755 -12.453  -1.729  0.00  0.00    +0.003 A 
ATOM     26  C   UNL     1      -3.397 -13.682  -1.207  0.00  0.00    +0.000 A 
ATOM     27  C   UNL     1      -2.657 -14.569  -1.967  0.00  0.00    +0.001 A 
ATOM     28  C   UNL     1      -2.279 -14.228  -3.252  0.00  0.00    +0.020 A 
ATOM     29  C   UNL     1      -2.640 -13.000  -3.777  0.00  0.00    +0.043 A 
ATOM     30 CL   UNL     1      -2.164 -12.572  -5.391  0.00  0.00    -0.083 Cl
ENDBRANCH  23  24
BRANCH  23  31
ATOM     31  N   UNL     1      -4.845 -10.191  -2.769  0.00  0.00    +0.382 N 
ATOM     32  C   UNL     1      -4.296  -9.536  -1.574  0.00  0.00    -0.096 C 
ATOM     33  C   UNL     1      -5.657  -9.253  -3.557  0.00  0.00    -0.096 C 
ATOM     34  H   UNL     1      -5.501 -11.008  -2.435  0.00  0.00    -0.082 HD
ENDBRANCH  23  31
ENDBRANCH  22  23
ENDBRANCH  20  22
ENDBRANCH   1  18
TORSDOF 7
