REMARK  Name = ZINC66872465
REMARK  11 active torsions:
REMARK  status: ('A' for Active; 'I' for Inactive)
REMARK    1  A    between atoms: C_1  and  C_2
REMARK    2  A    between atoms: C_2  and  C_3
REMARK    3  A    between atoms: C_2  and  C_4
REMARK    4  A    between atoms: C_2  and  O_5
REMARK    5  A    between atoms: O_5  and  C_6
REMARK    6  A    between atoms: N_8  and  C_9
REMARK    7  A    between atoms: N_14  and  C_16
REMARK    8  A    between atoms: C_16  and  C_17
REMARK    9  A    between atoms: C_17  and  C_18
REMARK   10  A    between atoms: N_20  and  C_21
REMARK   11  A    between atoms: C_21  and  C_22
REMARK                            x       y       z     vdW  Elec       q    Type
REMARK                         _______ _______ _______ _____ _____    ______ ____
ROOT
ATOM      1  C   UNL     1       4.035  -0.071  -2.601  0.00  0.00    +0.060 C 
ATOM      2  C   UNL     1       4.955  -1.037  -1.848  0.00  0.00    +0.019 C 
ATOM      3  C   UNL     1       6.412  -0.642  -2.104  0.00  0.00    -0.017 C 
ATOM      4  C   UNL     1       6.678  -0.644  -3.611  0.00  0.00    -0.079 C 
ATOM      5  N   UNL     1       5.787   0.317  -4.270  0.00  0.00    +0.381 N 
ATOM      6  C   UNL     1       4.389  -0.093  -4.090  0.00  0.00    -0.056 C 
ATOM      7  H   UNL     1       5.922   1.232  -3.866  0.00  0.00    -0.082 HD
ENDROOT
BRANCH   1  10
ATOM      8  C   UNL     1       1.952  -0.085  -1.337  0.00  0.00    +0.401 C 
ATOM      9  O   UNL     1       2.488   0.619  -0.503  0.00  0.00    -0.226 OA
ATOM     10  N   UNL     1       2.641  -0.485  -2.424  0.00  0.00    -0.280 N 
ATOM     11  H   UNL     1       2.213  -1.047  -3.089  0.00  0.00    +0.152 HD
BRANCH   8  12
ATOM     12  O   UNL     1       0.671  -0.465  -1.174  0.00  0.00    -0.445 OA
BRANCH  12  14
ATOM     13  C   UNL     1      -0.019   1.526   0.010  0.00  0.00    +0.055 C 
ATOM     14  C   UNL     1       0.002  -0.004   0.002  0.00  0.00    +0.107 C 
ATOM     15  C   UNL     1       0.742  -0.511   1.242  0.00  0.00    +0.055 C 
ATOM     16  C   UNL     1      -1.433  -0.534   0.013  0.00  0.00    +0.055 C 
ENDBRANCH  12  14
ENDBRANCH   8  12
ENDBRANCH   1  10
BRANCH   5  17
ATOM     17  C   UNL     1       6.099   0.368  -5.705  0.00  0.00    -0.070 C 
BRANCH  17  18
ATOM     18  C   UNL     1       7.511   0.925  -5.899  0.00  0.00    +0.077 C 
BRANCH  18  19
ATOM     19  C   UNL     1       7.832   0.978  -7.371  0.00  0.00    +0.211 C 
ATOM     20  O   UNL     1       7.012   0.606  -8.184  0.00  0.00    -0.276 OA
ATOM     21  N   UNL     1       9.030   1.437  -7.784  0.00  0.00    -0.315 N 
ATOM     22  H   UNL     1       9.685   1.734  -7.133  0.00  0.00    +0.149 HD
BRANCH  21  23
ATOM     23  C   UNL     1       9.341   1.488  -9.214  0.00  0.00    +0.107 C 
BRANCH  23  24
ATOM     24  C   UNL     1      10.753   2.045  -9.409  0.00  0.00    +0.006 C 
ATOM     25  C   UNL     1      10.799   3.498  -8.932  0.00  0.00    +0.005 C 
ATOM     26  C   UNL     1      12.210   4.055  -9.127  0.00  0.00    +0.000 C 
ATOM     27  C   UNL     1      12.583   3.992 -10.610  0.00  0.00    +0.000 C 
ATOM     28  C   UNL     1      12.538   2.539 -11.086  0.00  0.00    +0.000 C 
ATOM     29  C   UNL     1      11.126   1.982 -10.891  0.00  0.00    +0.005 C 
ENDBRANCH  23  24
ENDBRANCH  21  23
ENDBRANCH  18  19
ENDBRANCH  17  18
ENDBRANCH   5  17
TORSDOF 8
