REMARK  Name = ZINC09507005
REMARK  9 active torsions:
REMARK  status: ('A' for Active; 'I' for Inactive)
REMARK    1  A    between atoms: C_1  and  C_2
REMARK    2  A    between atoms: C_2  and  C_34
REMARK    3  A    between atoms: C_13  and  C_15
REMARK    4  A    between atoms: C_15  and  O_16
REMARK    5  A    between atoms: O_16  and  C_17
REMARK    6  A    between atoms: C_17  and  C_19
REMARK    7  A    between atoms: C_24  and  N_25
REMARK    8  A    between atoms: N_25  and  S_26
REMARK    9  A    between atoms: S_26  and  C_29
REMARK                            x       y       z     vdW  Elec       q    Type
REMARK                         _______ _______ _______ _____ _____    ______ ____
ROOT
ATOM      1  O   UNL     1      -2.730  -2.870  -2.963  0.00  0.00    -0.452 OA
ENDROOT
BRANCH   1   2
ATOM      2  C   UNL     1      -2.150  -3.547  -3.974  0.00  0.00    +0.341 C 
ATOM      3  O   UNL     1      -1.054  -3.214  -4.379  0.00  0.00    -0.245 OA
BRANCH   2   4
ATOM      4  C   UNL     1      -2.844  -4.693  -4.587  0.00  0.00    +0.081 A 
ATOM      5  C   UNL     1      -4.105  -5.080  -4.124  0.00  0.00    +0.017 A 
ATOM      6  C   UNL     1      -4.749  -6.152  -4.702  0.00  0.00    +0.001 A 
ATOM      7  C   UNL     1      -4.154  -6.850  -5.741  0.00  0.00    +0.002 A 
ATOM      8  C   UNL     1      -2.911  -6.480  -6.210  0.00  0.00    +0.025 A 
ATOM      9  C   UNL     1      -2.247  -5.398  -5.644  0.00  0.00    +0.062 A 
BRANCH   9  10
ATOM     10  N   UNL     1      -0.998  -5.020  -6.117  0.00  0.00    -0.215 N 
ATOM     11  H   UNL     1      -0.328  -4.683  -5.502  0.00  0.00    +0.174 HD
BRANCH  10  12
ATOM     12  S   UNL     1      -0.652  -5.144  -7.731  0.00  0.00    +0.079 S 
ATOM     13  O   UNL     1       0.631  -4.562  -7.918  0.00  0.00    -0.149 OA
ATOM     14  O   UNL     1      -0.942  -6.484  -8.107  0.00  0.00    -0.149 OA
BRANCH  12  15
ATOM     15  C   UNL     1      -1.799  -4.120  -8.591  0.00  0.00    +0.146 A 
ATOM     16  C   UNL     1      -1.690  -2.812  -8.927  0.00  0.00    +0.036 A 
ATOM     17  C   UNL     1      -2.729  -2.206  -9.610  0.00  0.00    +0.010 A 
ATOM     18  C   UNL     1      -3.825  -2.939  -9.922  0.00  0.00    +0.047 A 
ATOM     19  S   UNL     1      -3.404  -4.539  -9.251  0.00  0.00    -0.077 S 
ENDBRANCH  12  15
ENDBRANCH  10  12
ENDBRANCH   9  10
ENDBRANCH   2   4
ENDBRANCH   1   2
BRANCH   1  20
ATOM     20  C   UNL     1      -1.987  -1.753  -2.407  0.00  0.00    +0.328 C 
BRANCH  20  33
ATOM     21  C   UNL     1      -4.691   0.128   0.197  0.00  0.00    +0.042 C 
ATOM     22  C   UNL     1      -3.322   0.806   0.125  0.00  0.00    +0.113 C 
ATOM     23  C   UNL     1      -3.493   2.247  -0.284  0.00  0.00    +0.241 C 
ATOM     24  O   UNL     1      -4.500   2.845   0.033  0.00  0.00    -0.273 OA
ATOM     25  N   UNL     1      -2.538   2.879  -0.987  0.00  0.00    -0.282 N 
ATOM     26  C   UNL     1      -1.392   2.198  -1.413  0.00  0.00    +0.055 A 
ATOM     27  C   UNL     1      -0.291   2.892  -1.891  0.00  0.00    +0.025 A 
ATOM     28  C   UNL     1       0.827   2.199  -2.316  0.00  0.00    +0.002 A 
ATOM     29  C   UNL     1       0.855   0.817  -2.267  0.00  0.00    +0.002 A 
ATOM     30  C   UNL     1      -0.239   0.116  -1.789  0.00  0.00    +0.025 A 
ATOM     31  C   UNL     1      -1.362   0.803  -1.366  0.00  0.00    +0.059 A 
ATOM     32  N   UNL     1      -2.485   0.121  -0.872  0.00  0.00    -0.253 N 
ATOM     33  C   UNL     1      -2.787  -1.121  -1.297  0.00  0.00    +0.258 C 
ATOM     34  O   UNL     1      -3.702  -1.732  -0.785  0.00  0.00    -0.271 OA
ATOM     35  C   UNL     1      -2.645   0.738   1.496  0.00  0.00    +0.042 C 
ATOM     36  H   UNL     1      -2.650   3.816  -1.212  0.00  0.00    +0.155 HD
ENDBRANCH  20  33
ENDBRANCH   1  20
TORSDOF 7
