REMARK  Name = ZINC13063815
REMARK  10 active torsions:
REMARK  status: ('A' for Active; 'I' for Inactive)
REMARK    1  A    between atoms: C_1  and  C_2
REMARK    2  A    between atoms: C_2  and  C_3
REMARK    3  A    between atoms: C_3  and  C_5
REMARK    4  A    between atoms: C_3  and  N_63
REMARK    5  A    between atoms: N_9  and  C_10
REMARK    6  A    between atoms: C_15  and  C_16
REMARK    7  A    between atoms: C_15  and  N_63
REMARK    8  A    between atoms: C_21  and  C_22
REMARK    9  A    between atoms: C_21  and  N_63
REMARK   10  A    between atoms: C_27  and  C_34
REMARK                            x       y       z     vdW  Elec       q    Type
REMARK                         _______ _______ _______ _____ _____    ______ ____
ROOT
ATOM      1  N   UNL     1      -1.161   1.647  -0.987  0.00  0.00    +0.392 N 
ATOM      2  H   UNL     1      -1.846   1.231  -0.345  0.00  0.00    -0.080 HD
ENDROOT
BRANCH   1   3
ATOM      3  C   UNL     1      -1.388   3.107  -1.049  0.00  0.00    +0.003 C 
BRANCH   3   4
ATOM      4  C   UNL     1      -0.543   3.726  -2.133  0.00  0.00    +0.138 A 
ATOM      5  N   UNL     1      -0.412   3.298  -3.364  0.00  0.00    -0.115 NA
ATOM      6  N   UNL     1       0.391   4.096  -3.980  0.00  0.00    -0.023 NA
ATOM      7  N   UNL     1       0.782   5.017  -3.171  0.00  0.00    -0.044 NA
ATOM      8  N   UNL     1       0.228   4.824  -2.021  0.00  0.00    -0.228 N 
BRANCH   8   9
ATOM      9  C   UNL     1       0.405   5.645  -0.821  0.00  0.00    +0.111 C 
ATOM     10  C   UNL     1      -0.001   7.104  -1.114  0.00  0.00    +0.027 C 
ATOM     11  C   UNL     1       1.020   7.950  -0.311  0.00  0.00    +0.002 C 
ATOM     12  C   UNL     1       2.335   7.149  -0.478  0.00  0.00    +0.002 C 
ATOM     13  C   UNL     1       1.889   5.673  -0.416  0.00  0.00    +0.027 C 
ENDBRANCH   8   9
ENDBRANCH   3   4
BRANCH   3  15
ATOM     14  C   UNL     1      -3.717   2.853  -0.180  0.00  0.00    +0.002 C 
ATOM     15  C   UNL     1      -2.867   3.364  -1.346  0.00  0.00    -0.011 C 
ENDBRANCH   3  15
ENDBRANCH   1   3
BRANCH   1  16
ATOM     16  C   UNL     1       0.200   1.369  -0.483  0.00  0.00    -0.034 C 
BRANCH  16  17
ATOM     17  C   UNL     1       0.239   1.663   0.994  0.00  0.00    -0.027 A 
ATOM     18  C   UNL     1       0.003   0.830   2.038  0.00  0.00    +0.009 A 
ATOM     19  C   UNL     1       0.098   1.325   3.325  0.00  0.00    +0.008 A 
ATOM     20  C   UNL     1       0.424   2.628   3.506  0.00  0.00    +0.045 A 
ATOM     21  S   UNL     1       0.616   3.198   1.825  0.00  0.00    -0.103 S 
ENDBRANCH  16  17
ENDBRANCH   1  16
BRANCH   1  22
ATOM     22  C   UNL     1      -1.335   1.051  -2.328  0.00  0.00    -0.036 C 
BRANCH  22  23
ATOM     23  C   UNL     1      -1.589  -0.426  -2.171  0.00  0.00    +0.001 A 
ATOM     24  C   UNL     1      -2.861  -0.892  -2.128  0.00  0.00    +0.017 A 
ATOM     25  C   UNL     1      -3.073  -2.333  -1.974  0.00  0.00    -0.001 A 
ATOM     26  C   UNL     1      -4.362  -2.873  -1.924  0.00  0.00    +0.010 A 
ATOM     27  C   UNL     1      -4.526  -4.221  -1.780  0.00  0.00    +0.004 A 
ATOM     28  C   UNL     1      -3.425  -5.061  -1.683  0.00  0.00    -0.048 A 
ATOM     29  C   UNL     1      -2.145  -4.551  -1.730  0.00  0.00    +0.029 A 
ATOM     30  C   UNL     1      -1.954  -3.180  -1.876  0.00  0.00    +0.049 A 
ATOM     31  N   UNL     1      -0.685  -2.643  -1.927  0.00  0.00    -0.322 N 
ATOM     32  H   UNL     1       0.085  -3.229  -1.859  0.00  0.00    +0.169 HD
ATOM     33  C   UNL     1      -0.500  -1.319  -2.074  0.00  0.00    +0.251 A 
ATOM     34  O   UNL     1       0.635  -0.880  -2.119  0.00  0.00    -0.268 OA
ATOM     35  C   UNL     1      -3.630  -6.545  -1.525  0.00  0.00    +0.044 C 
ENDBRANCH  22  23
ENDBRANCH   1  22
TORSDOF 8
