REMARK  Name = ZINC38140497
REMARK  10 active torsions:
REMARK  status: ('A' for Active; 'I' for Inactive)
REMARK    1  A    between atoms: C_1  and  C_2
REMARK    2  A    between atoms: N_8  and  C_9
REMARK    3  A    between atoms: C_9  and  C_10
REMARK    4  A    between atoms: C_10  and  C_11
REMARK    5  A    between atoms: C_11  and  N_12
REMARK    6  A    between atoms: C_13  and  C_15
REMARK    7  A    between atoms: C_15  and  N_16
REMARK    8  A    between atoms: C_19  and  S_27
REMARK    9  A    between atoms: S_27  and  N_30
REMARK   10  A    between atoms: C_33  and  C_36
REMARK                            x       y       z     vdW  Elec       q    Type
REMARK                         _______ _______ _______ _____ _____    ______ ____
ROOT
ATOM      1  N   UNL     1       0.735   0.351   9.713  0.00  0.00    -0.261 N 
ATOM      2  C   UNL     1       1.130   1.622  10.121  0.00  0.00    +0.052 A 
ATOM      3  C   UNL     1       1.718   2.484   9.202  0.00  0.00    +0.053 A 
ATOM      4  C   UNL     1       2.120   3.746   9.592  0.00  0.00    +0.107 A 
ATOM      5  C   UNL     1       1.944   4.167  10.898  0.00  0.00    +0.030 A 
ATOM      6  C   UNL     1       1.359   3.321  11.822  0.00  0.00    +0.018 A 
ATOM      7  C   UNL     1       0.952   2.054  11.436  0.00  0.00    +0.030 A 
ATOM      8  S   UNL     1       0.194   0.968  12.603  0.00  0.00    -0.114 S 
ATOM      9  C   UNL     1      -0.911  -0.026  11.556  0.00  0.00    +0.170 C 
ATOM     10  C   UNL     1      -0.173  -0.420  10.306  0.00  0.00    +0.230 C 
ATOM     11  O   UNL     1      -0.415  -1.502   9.813  0.00  0.00    -0.274 OA
ENDROOT
BRANCH   4  12
ATOM     12  S   UNL     1       2.864   4.829   8.417  0.00  0.00    +0.061 S 
ATOM     13  O   UNL     1       3.649   5.753   9.157  0.00  0.00    -0.153 OA
ATOM     14  O   UNL     1       3.414   4.006   7.398  0.00  0.00    -0.153 OA
BRANCH  12  15
ATOM     15  N   UNL     1       1.644   5.701   7.714  0.00  0.00    -0.177 NA
ATOM     16  C   UNL     1       0.969   5.205   6.507  0.00  0.00    +0.110 C 
ATOM     17  C   UNL     1       1.021   6.293   5.430  0.00  0.00    +0.020 C 
ATOM     18  C   UNL     1       0.432   7.589   5.992  0.00  0.00    -0.012 C 
ATOM     19  C   UNL     1       1.265   8.053   7.189  0.00  0.00    +0.020 C 
ATOM     20  C   UNL     1       1.212   6.982   8.289  0.00  0.00    +0.110 C 
ATOM     21  C   UNL     1       0.450   8.669   4.909  0.00  0.00    +0.007 C 
ENDBRANCH  12  15
ENDBRANCH   4  12
BRANCH   1  22
ATOM     22  C   UNL     1       1.377  -0.187   8.511  0.00  0.00    +0.209 C 
BRANCH  22  24
ATOM     23  N   UNL     1       0.983  -0.177   6.069  0.00  0.00    -0.314 N 
ATOM     24  C   UNL     1       0.579   0.209   7.295  0.00  0.00    +0.231 C 
ATOM     25  O   UNL     1      -0.427   0.876   7.421  0.00  0.00    -0.274 OA
ATOM     26  H   UNL     1       1.787  -0.710   5.968  0.00  0.00    +0.149 HD
BRANCH  23  27
ATOM     27  C   UNL     1       0.207   0.209   4.887  0.00  0.00    +0.102 C 
BRANCH  27  28
ATOM     28  C   UNL     1       0.877  -0.353   3.631  0.00  0.00    +0.000 C 
BRANCH  28  29
ATOM     29  C   UNL     1       0.067   0.050   2.397  0.00  0.00    -0.077 C 
BRANCH  29  36
ATOM     30  C   UNL     1      -0.019   1.526   0.010  0.00  0.00    -0.013 C 
ATOM     31  C   UNL     1       0.002  -0.004   0.002  0.00  0.00    -0.072 C 
ATOM     32  C   UNL     1       0.717  -0.497  -1.258  0.00  0.00    -0.016 C 
ATOM     33  C   UNL     1       0.735  -2.028  -1.262  0.00  0.00    -0.003 C 
ATOM     34  C   UNL     1       1.410  -2.524   0.020  0.00  0.00    -0.019 C 
ATOM     35  C   UNL     1       0.669  -1.956   1.232  0.00  0.00    -0.078 C 
ATOM     36  N   UNL     1       0.711  -0.490   1.192  0.00  0.00    +0.381 N 
ATOM     37  H   UNL     1       1.671  -0.182   1.159  0.00  0.00    -0.081 HD
ENDBRANCH  29  36
ENDBRANCH  28  29
ENDBRANCH  27  28
ENDBRANCH  23  27
ENDBRANCH  22  24
ENDBRANCH   1  22
TORSDOF 8
