REMARK  Name = ZINC23428050
REMARK  11 active torsions:
REMARK  status: ('A' for Active; 'I' for Inactive)
REMARK    1  A    between atoms: C_1  and  C_2
REMARK    2  A    between atoms: C_2  and  N_3
REMARK    3  A    between atoms: C_7  and  C_9
REMARK    4  A    between atoms: C_9  and  N_10
REMARK    5  A    between atoms: C_11  and  C_13
REMARK    6  A    between atoms: C_13  and  C_14
REMARK    7  A    between atoms: C_14  and  C_15
REMARK    8  A    between atoms: C_18  and  C_28
REMARK    9  A    between atoms: N_19  and  C_20
REMARK   10  A    between atoms: C_23  and  O_26
REMARK   11  A    between atoms: O_26  and  C_27
REMARK                            x       y       z     vdW  Elec       q    Type
REMARK                         _______ _______ _______ _____ _____    ______ ____
ROOT
ATOM      1  C   UNL     1       1.574  -3.504   1.050  0.00  0.00    +0.025 A 
ATOM      2  C   UNL     1       1.251  -4.776   0.729  0.00  0.00    +0.024 A 
ATOM      3  C   UNL     1       0.350  -4.729  -0.348  0.00  0.00    +0.028 A 
ATOM      4  C   UNL     1       0.146  -3.417  -0.651  0.00  0.00    +0.054 A 
ATOM      5  N   UNL     1       0.899  -2.662   0.214  0.00  0.00    -0.313 N 
ENDROOT
BRANCH   4   6
ATOM      6  C   UNL     1      -0.731  -2.897  -1.722  0.00  0.00    -0.001 A 
ATOM      7  C   UNL     1      -1.728  -3.708  -2.267  0.00  0.00    +0.011 A 
ATOM      8  C   UNL     1      -2.547  -3.216  -3.261  0.00  0.00    +0.020 A 
ATOM      9  C   UNL     1      -2.374  -1.924  -3.728  0.00  0.00    +0.041 A 
ATOM     10  C   UNL     1      -1.384  -1.116  -3.195  0.00  0.00    +0.020 A 
ATOM     11  C   UNL     1      -0.562  -1.595  -2.196  0.00  0.00    +0.011 A 
ATOM     12 CL   UNL     1      -3.404  -1.314  -4.986  0.00  0.00    -0.084 Cl
ENDBRANCH   4   6
BRANCH   5  13
ATOM     13  C   UNL     1       0.968  -1.261   0.233  0.00  0.00    +0.047 A 
ATOM     14  C   UNL     1      -0.136  -0.517   0.627  0.00  0.00    +0.030 A 
ATOM     15  C   UNL     1      -0.068   0.862   0.645  0.00  0.00    +0.047 A 
ATOM     16  C   UNL     1       1.103   1.504   0.268  0.00  0.00    +0.120 A 
ATOM     17  C   UNL     1       2.206   0.761  -0.127  0.00  0.00    +0.047 A 
ATOM     18  C   UNL     1       2.139  -0.618  -0.145  0.00  0.00    +0.030 A 
BRANCH  16  19
ATOM     19  O   UNL     1       1.169   2.862   0.285  0.00  0.00    -0.495 OA
ATOM     20  C   UNL     1       2.405   3.456  -0.115  0.00  0.00    +0.277 C 
ENDBRANCH  16  19
ENDBRANCH   5  13
BRANCH   1  21
ATOM     21  C   UNL     1       2.519  -3.086   2.147  0.00  0.00    +0.063 C 
BRANCH  21  22
ATOM     22  C   UNL     1       3.955  -3.107   1.619  0.00  0.00    +0.102 C 
BRANCH  22  24
ATOM     23  N   UNL     1       6.225  -2.632   2.480  0.00  0.00    -0.317 N 
ATOM     24  C   UNL     1       4.899  -2.688   2.716  0.00  0.00    +0.213 C 
ATOM     25  O   UNL     1       4.466  -2.401   3.813  0.00  0.00    -0.276 OA
ATOM     26  H   UNL     1       6.617  -2.893   1.486  0.00  0.00    +0.149 HD
BRANCH  23  27
ATOM     27  C   UNL     1       7.143  -2.226   3.546  0.00  0.00    +0.089 C 
BRANCH  27  32
ATOM     28  N   UNL     1       8.839  -3.828   2.735  0.00  0.00    +0.382 N 
ATOM     29  C   UNL     1      10.211  -4.173   3.150  0.00  0.00    -0.078 C 
ATOM     30  C   UNL     1      10.823  -2.913   3.798  0.00  0.00    -0.020 C 
ATOM     31  C   UNL     1       9.575  -2.096   4.226  0.00  0.00    -0.016 C 
ATOM     32  C   UNL     1       8.587  -2.411   3.075  0.00  0.00    -0.051 C 
ATOM     33  H   UNL     1       8.120  -4.472   3.263  0.00  0.00    -0.081 HD
BRANCH  28  35
ATOM     34  C   UNL     1       9.030  -5.511   0.966  0.00  0.00    -0.017 C 
ATOM     35  C   UNL     1       8.647  -4.067   1.298  0.00  0.00    -0.082 C 
ENDBRANCH  28  35
ENDBRANCH  27  32
ENDBRANCH  23  27
ENDBRANCH  22  24
ENDBRANCH  21  22
ENDBRANCH   1  21
TORSDOF 9
