REMARK  Name = ZINC20599043
REMARK  9 active torsions:
REMARK  status: ('A' for Active; 'I' for Inactive)
REMARK    1  A    between atoms: C_1  and  C_2
REMARK    2  A    between atoms: C_2  and  C_29
REMARK    3  A    between atoms: C_4  and  N_10
REMARK    4  A    between atoms: C_6  and  C_8
REMARK    5  A    between atoms: C_6  and  C_9
REMARK    6  A    between atoms: N_10  and  C_11
REMARK    7  A    between atoms: N_10  and  C_12
REMARK    8  A    between atoms: C_12  and  C_13
REMARK    9  A    between atoms: C_18  and  C_19
REMARK                            x       y       z     vdW  Elec       q    Type
REMARK                         _______ _______ _______ _____ _____    ______ ____
ROOT
ATOM      1  C   UNL     1       4.696  -1.423  -3.887  0.00  0.00    +0.012 A 
ATOM      2  C   UNL     1       5.256  -0.806  -4.949  0.00  0.00    +0.110 A 
ATOM      3  N   UNL     1       5.577  -1.751  -5.859  0.00  0.00    -0.284 N 
ATOM      4  H   UNL     1       5.995  -1.593  -6.721  0.00  0.00    +0.188 HD
ATOM      5  N   UNL     1       5.203  -2.999  -5.344  0.00  0.00    -0.174 NA
ATOM      6  C   UNL     1       4.676  -2.807  -4.152  0.00  0.00    +0.097 A 
ENDROOT
BRANCH   6   7
ATOM      7  C   UNL     1       4.152  -3.860  -3.251  0.00  0.00    +0.010 A 
ATOM      8  C   UNL     1       4.515  -3.882  -1.916  0.00  0.00    +0.011 A 
ATOM      9  C   UNL     1       4.027  -4.867  -1.064  0.00  0.00    +0.001 A 
ATOM     10  C   UNL     1       3.181  -5.834  -1.517  0.00  0.00    +0.008 A 
ATOM     11  C   UNL     1       2.786  -5.849  -2.866  0.00  0.00    -0.017 A 
ATOM     12  C   UNL     1       3.270  -4.851  -3.745  0.00  0.00    -0.009 A 
ATOM     13  C   UNL     1       2.872  -4.864  -5.090  0.00  0.00    +0.009 A 
ATOM     14  C   UNL     1       2.022  -5.832  -5.532  0.00  0.00    +0.001 A 
ATOM     15  C   UNL     1       1.541  -6.813  -4.666  0.00  0.00    +0.001 A 
ATOM     16  C   UNL     1       1.915  -6.837  -3.358  0.00  0.00    +0.008 A 
ENDBRANCH   6   7
BRANCH   1  17
ATOM     17  C   UNL     1       4.187  -0.752  -2.637  0.00  0.00    +0.123 C 
BRANCH  17  18
ATOM     18  N   UNL     1       2.718  -0.737  -2.652  0.00  0.00    -0.298 NA
ATOM     19  C   UNL     1       2.211   0.073  -3.768  0.00  0.00    +0.105 C 
BRANCH  18  23
ATOM     20  C   UNL     1       0.248   1.717   0.051  0.00  0.00    -0.010 C 
ATOM     21  C   UNL     1       0.071   0.202  -0.095  0.00  0.00    -0.072 C 
ATOM     22  C   UNL     1       0.655  -0.260  -1.427  0.00  0.00    +0.006 C 
ATOM     23  C   UNL     1       2.182  -0.259  -1.367  0.00  0.00    +0.054 C 
ATOM     24  C   UNL     1       2.616  -1.213  -0.254  0.00  0.00    +0.006 C 
ATOM     25  C   UNL     1       2.047  -0.759   1.086  0.00  0.00    -0.072 C 
ATOM     26  N   UNL     1       0.618  -0.507   1.049  0.00  0.00    +0.386 N 
ATOM     27  C   UNL     1       2.817   0.468   1.587  0.00  0.00    -0.010 C 
ATOM     28  C   UNL     1       2.297  -1.897   2.103  0.00  0.00    -0.010 C 
ATOM     29  C   UNL     1      -1.450  -0.075  -0.137  0.00  0.00    -0.010 C 
ATOM     30  H   UNL     1       0.360   0.007   1.897  0.00  0.00    -0.084 HD
ATOM     31  H   UNL     1       0.132  -1.405   1.131  0.00  0.00    -0.084 HD
ENDBRANCH  18  23
ENDBRANCH  17  18
ENDBRANCH   1  17
TORSDOF 4
