REMARK  Name = ZINC25151359
REMARK  6 active torsions:
REMARK  status: ('A' for Active; 'I' for Inactive)
REMARK    1  A    between atoms: C_1  and  C_2
REMARK    2  A    between atoms: C_2  and  C_4
REMARK    3  A    between atoms: C_2  and  N_17
REMARK    4  A    between atoms: N_6  and  C_7
REMARK    5  A    between atoms: C_20  and  C_23
REMARK    6  A    between atoms: C_23  and  C_25
REMARK                            x       y       z     vdW  Elec       q    Type
REMARK                         _______ _______ _______ _____ _____    ______ ____
ROOT
ATOM      1  N   UNL     1      -7.734   0.122   0.894  0.00  0.00    +0.387 N 
ATOM      2  C   UNL     1      -7.416  -0.183  -0.507  0.00  0.00    -0.077 C 
ATOM      3  C   UNL     1      -6.075  -0.916  -0.579  0.00  0.00    -0.007 C 
ATOM      4  C   UNL     1      -4.983  -0.033   0.032  0.00  0.00    +0.057 C 
ATOM      5  C   UNL     1      -5.362   0.311   1.475  0.00  0.00    -0.007 C 
ATOM      6  C   UNL     1      -6.724   1.008   1.487  0.00  0.00    -0.077 C 
ATOM      7  H   UNL     1      -7.721  -0.824   1.454  0.00  0.00    -0.081 HD
ENDROOT
BRANCH   1   9
ATOM      8  C   UNL     1      -9.115   2.058   0.305  0.00  0.00    -0.004 C 
ATOM      9  C   UNL     1      -9.079   0.702   1.014  0.00  0.00    +0.016 C 
BRANCH   9  10
ATOM     10  C   UNL     1      -9.418   0.888   2.470  0.00  0.00    +0.200 C 
ATOM     11  O   UNL     1      -8.618   0.569   3.324  0.00  0.00    -0.278 OA
ATOM     12  N   UNL     1     -10.609   1.409   2.824  0.00  0.00    -0.311 N 
ATOM     13  H   UNL     1     -11.335   1.699   2.049  0.00  0.00    +0.149 HD
BRANCH  12  14
ATOM     14  C   UNL     1     -10.939   1.590   4.240  0.00  0.00    +0.035 C 
ATOM     15  C   UNL     1      -9.918   2.530   4.885  0.00  0.00    +0.029 C 
ATOM     16  C   UNL     1     -10.262   2.718   6.364  0.00  0.00    -0.008 C 
ATOM     17  C   UNL     1     -11.662   3.322   6.489  0.00  0.00    +0.007 C 
ATOM     18  C   UNL     1     -12.683   2.382   5.844  0.00  0.00    -0.008 C 
ATOM     19  C   UNL     1     -12.339   2.194   4.365  0.00  0.00    +0.029 C 
ATOM     20  C   UNL     1     -12.647   1.027   6.553  0.00  0.00    +0.007 C 
ATOM     21  C   UNL     1     -11.247   0.423   6.428  0.00  0.00    -0.008 C 
ATOM     22  C   UNL     1     -10.226   1.363   7.073  0.00  0.00    +0.007 C 
ATOM     23  C   UNL     1     -10.903   0.234   4.949  0.00  0.00    +0.029 C 
ENDBRANCH  12  14
ENDBRANCH   9  10
ENDBRANCH   1   9
BRANCH   4  24
ATOM     24  C   UNL     1      -3.670  -0.773   0.018  0.00  0.00    +0.166 C 
ATOM     25  O   UNL     1      -3.658  -1.986   0.009  0.00  0.00    -0.292 OA
BRANCH  24  26
ATOM     26  C   UNL     1      -2.406  -0.026   0.017  0.00  0.00    +0.021 A 
ATOM     27  C   UNL     1      -2.417   1.374   0.026  0.00  0.00    +0.015 A 
ATOM     28  C   UNL     1      -1.230   2.070   0.019  0.00  0.00    +0.050 A 
ATOM     29  C   UNL     1      -0.017   1.389   0.010  0.00  0.00    +0.162 A 
ATOM     30  C   UNL     1       0.002  -0.004   0.002  0.00  0.00    +0.163 A 
ATOM     31  C   UNL     1      -1.185  -0.711   0.004  0.00  0.00    +0.060 A 
ATOM     32  O   UNL     1       1.181  -0.684  -0.007  0.00  0.00    -0.485 OA
ATOM     33  C   UNL     1       2.347   0.055  -0.387  0.00  0.00    +0.270 C 
ATOM     34  C   UNL     1       2.333   1.393   0.366  0.00  0.00    +0.270 C 
ATOM     35  O   UNL     1       1.142   2.099   0.002  0.00  0.00    -0.485 OA
ENDBRANCH  24  26
ENDBRANCH   4  24
TORSDOF 5
