REMARK  Name = ZINC07977598
REMARK  11 active torsions:
REMARK  status: ('A' for Active; 'I' for Inactive)
REMARK    1  A    between atoms: C_1  and  C_2
REMARK    2  A    between atoms: C_2  and  C_4
REMARK    3  A    between atoms: C_2  and  N_14
REMARK    4  A    between atoms: C_15  and  C_17
REMARK    5  A    between atoms: C_17  and  N_57
REMARK    6  A    between atoms: C_18  and  N_57
REMARK    7  A    between atoms: C_19  and  C_20
REMARK    8  A    between atoms: C_19  and  N_57
REMARK    9  A    between atoms: N_22  and  C_23
REMARK   10  A    between atoms: C_28  and  S_29
REMARK   11  A    between atoms: S_29  and  C_30
REMARK                            x       y       z     vdW  Elec       q    Type
REMARK                         _______ _______ _______ _____ _____    ______ ____
ROOT
ATOM      1  C   UNL     1       3.061   9.658   2.408  0.00  0.00    +0.019 C 
ENDROOT
BRANCH   1   3
ATOM      2  N   UNL     1       2.073   7.923   0.947  0.00  0.00    -0.310 N 
ATOM      3  C   UNL     1       1.968   9.145   1.506  0.00  0.00    +0.197 C 
ATOM      4  O   UNL     1       0.993   9.831   1.284  0.00  0.00    -0.278 OA
ATOM      5  H   UNL     1       2.853   7.374   1.125  0.00  0.00    +0.149 HD
BRANCH   2   7
ATOM      6  C   UNL     1       1.242   7.935  -1.353  0.00  0.00    +0.033 C 
ATOM      7  C   UNL     1       1.011   7.424   0.071  0.00  0.00    +0.100 C 
BRANCH   7   8
ATOM      8  C   UNL     1       1.024   5.917   0.073  0.00  0.00    -0.027 A 
ATOM      9  C   UNL     1       2.243   5.242   0.060  0.00  0.00    +0.006 A 
ATOM     10  C   UNL     1       2.290   3.882   0.063  0.00  0.00    +0.009 A 
ATOM     11  C   UNL     1       1.094   3.144   0.076  0.00  0.00    -0.018 A 
ATOM     12  C   UNL     1       1.103   1.739   0.077  0.00  0.00    +0.008 A 
ATOM     13  C   UNL     1      -0.076   1.058   0.090  0.00  0.00    +0.001 A 
ATOM     14  C   UNL     1      -1.295   1.734   0.097  0.00  0.00    +0.001 A 
ATOM     15  C   UNL     1      -1.342   3.094   0.101  0.00  0.00    +0.008 A 
ATOM     16  C   UNL     1      -0.145   3.831   0.087  0.00  0.00    -0.018 A 
ATOM     17  C   UNL     1      -0.154   5.237   0.086  0.00  0.00    +0.014 A 
ENDBRANCH   7   8
ENDBRANCH   2   7
ENDBRANCH   1   3
BRANCH   1  19
ATOM     18  C   UNL     1       2.690  11.966   1.778  0.00  0.00    -0.095 C 
ATOM     19  N   UNL     1       2.685  11.001   2.897  0.00  0.00    +0.389 N 
ATOM     20  H   UNL     1       1.739  10.958   3.295  0.00  0.00    -0.081 HD
BRANCH  19  21
ATOM     21  C   UNL     1       3.628  11.439   3.947  0.00  0.00    +0.019 C 
BRANCH  21  22
ATOM     22  C   UNL     1       3.100  12.701   4.579  0.00  0.00    +0.201 C 
ATOM     23  O   UNL     1       2.062  13.188   4.185  0.00  0.00    -0.278 OA
ATOM     24  N   UNL     1       3.782  13.288   5.583  0.00  0.00    -0.286 N 
ATOM     25  H   UNL     1       4.577  12.864   5.942  0.00  0.00    +0.155 HD
BRANCH  24  26
ATOM     26  C   UNL     1       3.342  14.511   6.108  0.00  0.00    +0.047 A 
ATOM     27  C   UNL     1       1.985  14.784   6.189  0.00  0.00    +0.024 A 
ATOM     28  C   UNL     1       1.553  15.989   6.712  0.00  0.00    +0.002 A 
ATOM     29  C   UNL     1       2.470  16.928   7.146  0.00  0.00    +0.001 A 
ATOM     30  C   UNL     1       3.825  16.667   7.064  0.00  0.00    +0.016 A 
ATOM     31  C   UNL     1       4.268  15.458   6.545  0.00  0.00    +0.029 A 
BRANCH  31  32
ATOM     32  S   UNL     1       5.994  15.122   6.439  0.00  0.00    -0.127 S 
ATOM     33  C   UNL     1       6.774  16.614   7.112  0.00  0.00    +0.090 C 
ENDBRANCH  31  32
ENDBRANCH  24  26
ENDBRANCH  21  22
ENDBRANCH  19  21
ENDBRANCH   1  19
TORSDOF 8
