REMARK  Name = ZINC13200512
REMARK  12 active torsions:
REMARK  status: ('A' for Active; 'I' for Inactive)
REMARK    1  A    between atoms: C_1  and  O_2
REMARK    2  A    between atoms: O_2  and  C_3
REMARK    3  A    between atoms: C_6  and  C_9
REMARK    4  A    between atoms: C_12  and  S_17
REMARK    5  A    between atoms: N_13  and  C_14
REMARK    6  A    between atoms: C_14  and  C_15
REMARK    7  A    between atoms: S_17  and  C_18
REMARK    8  A    between atoms: C_18  and  C_19
REMARK    9  A    between atoms: N_21  and  C_22
REMARK   10  A    between atoms: N_21  and  C_25
REMARK   11  A    between atoms: C_22  and  C_23
REMARK   12  A    between atoms: C_25  and  C_26
REMARK                            x       y       z     vdW  Elec       q    Type
REMARK                         _______ _______ _______ _____ _____    ______ ____
ROOT
ATOM      1  C   UNL     1       0.001   1.476   0.074  0.00  0.00    +0.165 A 
ATOM      2  N   UNL     1       1.033   2.287   0.036  0.00  0.00    -0.128 NA
ATOM      3  N   UNL     1       0.630   3.506  -0.027  0.00  0.00    -0.122 NA
ATOM      4  C   UNL     1      -0.683   3.548  -0.034  0.00  0.00    +0.193 A 
ATOM      5  N   UNL     1      -1.129   2.258   0.025  0.00  0.00    -0.291 N 
ENDROOT
BRANCH   1   9
ATOM      6  C   UNL     1       0.131  -2.766   0.289  0.00  0.00    +0.120 A 
ATOM      7  C   UNL     1      -1.024  -2.089   0.656  0.00  0.00    +0.046 A 
ATOM      8  C   UNL     1      -1.070  -0.713   0.588  0.00  0.00    +0.015 A 
ATOM      9  C   UNL     1       0.046   0.000   0.149  0.00  0.00    +0.020 A 
ATOM     10  C   UNL     1       1.204  -0.684  -0.226  0.00  0.00    +0.015 A 
ATOM     11  C   UNL     1       1.244  -2.060  -0.149  0.00  0.00    +0.046 A 
BRANCH   6  13
ATOM     12  C   UNL     1       1.393  -4.755  -0.035  0.00  0.00    +0.277 C 
ATOM     13  O   UNL     1       0.173  -4.122   0.357  0.00  0.00    -0.495 OA
ENDBRANCH   6  13
ENDBRANCH   1   9
BRANCH   5  14
ATOM     14  C   UNL     1      -2.522   1.803   0.036  0.00  0.00    +0.250 C 
BRANCH  14  15
ATOM     15  C   UNL     1      -3.024   1.757   1.456  0.00  0.00    +0.375 C 
ATOM     16  O   UNL     1      -2.294   2.072   2.365  0.00  0.00    -0.244 OA
ATOM     17  O   UNL     1      -4.283   1.366   1.710  0.00  0.00    -0.244 OA
ENDBRANCH  14  15
ENDBRANCH   5  14
BRANCH   4  18
ATOM     18  S   UNL     1      -1.682   4.997  -0.112  0.00  0.00    -0.077 S 
BRANCH  18  19
ATOM     19  C   UNL     1      -0.392   6.265  -0.172  0.00  0.00    +0.173 C 
BRANCH  19  20
ATOM     20  C   UNL     1      -1.030   7.628  -0.245  0.00  0.00    +0.226 C 
ATOM     21  O   UNL     1      -2.239   7.732  -0.255  0.00  0.00    -0.275 OA
ATOM     22  N   UNL     1      -0.259   8.732  -0.298  0.00  0.00    -0.292 N 
BRANCH  22  23
ATOM     23  C   UNL     1       1.201   8.607  -0.286  0.00  0.00    +0.135 C 
BRANCH  23  24
ATOM     24  C   UNL     1       1.707   8.491  -1.701  0.00  0.00    -0.016 C 
ATOM     25  C   UNL     1       2.617   9.324  -2.141  0.00  0.00    +0.005 C 
ENDBRANCH  23  24
ENDBRANCH  22  23
BRANCH  22  26
ATOM     26  C   UNL     1      -0.879  10.057  -0.369  0.00  0.00    +0.150 C 
BRANCH  26  27
ATOM     27  C   UNL     1      -1.098  10.584   1.026  0.00  0.00    +0.009 A 
ATOM     28  C   UNL     1      -0.268  11.329   1.796  0.00  0.00    +0.014 A 
ATOM     29  C   UNL     1      -0.683  11.704   3.061  0.00  0.00    +0.028 A 
ATOM     30  C   UNL     1      -1.909  11.315   3.492  0.00  0.00    +0.078 A 
ATOM     31  S   UNL     1      -2.520  10.397   2.088  0.00  0.00    -0.080 S 
ATOM     32 CL   UNL     1      -2.686  11.634   5.011  0.00  0.00    -0.076 Cl
ENDBRANCH  26  27
ENDBRANCH  22  26
ENDBRANCH  19  20
ENDBRANCH  18  19
ENDBRANCH   4  18
TORSDOF 11
