REMARK  Name = ZINC15959121
REMARK  11 active torsions:
REMARK  status: ('A' for Active; 'I' for Inactive)
REMARK    1  A    between atoms: C_1  and  C_2
REMARK    2  A    between atoms: C_13  and  O_15
REMARK    3  A    between atoms: O_15  and  C_16
REMARK    4  A    between atoms: C_16  and  C_18
REMARK    5  A    between atoms: C_18  and  C_19
REMARK    6  A    between atoms: C_19  and  C_20
REMARK    7  A    between atoms: N_22  and  C_23
REMARK    8  A    between atoms: C_23  and  C_24
REMARK    9  A    between atoms: C_24  and  C_25
REMARK   10  A    between atoms: C_28  and  O_31
REMARK   11  A    between atoms: C_40  and  C_41
REMARK                            x       y       z     vdW  Elec       q    Type
REMARK                         _______ _______ _______ _____ _____    ______ ____
ROOT
ATOM      1  C   UNL     1       2.766  -7.399  -7.352  0.00  0.00    +0.015 C 
ATOM      2  C   UNL     1       2.589  -7.382  -5.827  0.00  0.00    +0.008 C 
ATOM      3  C   UNL     1       1.135  -7.596  -5.556  0.00  0.00    +0.011 C 
ATOM      4  C   UNL     1       0.737  -8.319  -4.300  0.00  0.00    +0.005 C 
ATOM      5  C   UNL     1       1.722  -9.354  -3.789  0.00  0.00    +0.002 C 
ATOM      6  C   UNL     1       3.146  -8.844  -3.853  0.00  0.00    -0.003 C 
ATOM      7  C   UNL     1       3.552  -8.418  -5.259  0.00  0.00    +0.002 C 
ATOM      8  C   UNL     1       4.910  -7.680  -5.164  0.00  0.00    +0.008 C 
ATOM      9  C   UNL     1       4.590  -6.180  -5.074  0.00  0.00    +0.045 C 
ATOM     10  C   UNL     1       3.086  -6.013  -5.348  0.00  0.00    +0.183 C 
ATOM     11  C   UNL     1       4.126  -9.880  -3.303  0.00  0.00    +0.008 C 
ATOM     12  C   UNL     1       4.041 -11.153  -4.148  0.00  0.00    +0.032 C 
ATOM     13  C   UNL     1       2.616 -11.668  -4.077  0.00  0.00    -0.060 C 
ATOM     14  C   UNL     1       2.439 -12.943  -3.735  0.00  0.00    +0.046 C 
ATOM     15  C   UNL     1       1.102 -13.531  -3.656  0.00  0.00    +0.156 C 
ATOM     16  O   UNL     1       0.929 -14.633  -3.167  0.00  0.00    -0.293 OA
ATOM     17  C   UNL     1      -0.059 -12.729  -4.201  0.00  0.00    +0.080 C 
ATOM     18  C   UNL     1       0.154 -11.261  -3.856  0.00  0.00    +0.019 C 
ATOM     19  C   UNL     1       1.486 -10.732  -4.390  0.00  0.00    -0.007 C 
ATOM     20  C   UNL     1       1.356 -10.652  -5.909  0.00  0.00    +0.016 C 
ENDROOT
BRANCH  10  21
ATOM     21  O   UNL     1       2.397  -5.617  -4.134  0.00  0.00    -0.461 OA
BRANCH  21  22
ATOM     22  C   UNL     1       2.258  -4.301  -3.913  0.00  0.00    +0.308 C 
ATOM     23  O   UNL     1       2.699  -3.505  -4.708  0.00  0.00    -0.251 OA
BRANCH  22  24
ATOM     24  C   UNL     1       1.553  -3.814  -2.673  0.00  0.00    +0.130 C 
BRANCH  24  25
ATOM     25  C   UNL     1       1.532  -2.285  -2.665  0.00  0.00    +0.107 C 
BRANCH  25  26
ATOM     26  C   UNL     1       0.827  -1.799  -1.425  0.00  0.00    +0.214 C 
ATOM     27  O   UNL     1       0.384  -2.597  -0.627  0.00  0.00    -0.276 OA
ATOM     28  N   UNL     1       0.688  -0.476  -1.203  0.00  0.00    -0.315 N 
ATOM     29  H   UNL     1       1.042   0.162  -1.842  0.00  0.00    +0.149 HD
BRANCH  28  30
ATOM     30  C   UNL     1       0.002  -0.004   0.002  0.00  0.00    +0.109 C 
BRANCH  30  31
ATOM     31  C   UNL     1      -0.019   1.526   0.010  0.00  0.00    +0.054 C 
BRANCH  31  32
ATOM     32  C   UNL     1      -0.724   2.012   1.250  0.00  0.00    -0.046 A 
ATOM     33  C   UNL     1      -2.089   2.229   1.227  0.00  0.00    +0.007 A 
ATOM     34  C   UNL     1      -2.739   2.669   2.364  0.00  0.00    +0.045 A 
ATOM     35  C   UNL     1      -2.019   2.904   3.526  0.00  0.00    +0.117 A 
ATOM     36  C   UNL     1      -0.648   2.691   3.545  0.00  0.00    +0.045 A 
ATOM     37  C   UNL     1      -0.004   2.245   2.407  0.00  0.00    +0.007 A 
BRANCH  35  38
ATOM     38  O   UNL     1      -2.655   3.342   4.645  0.00  0.00    -0.507 OA
ATOM     39  H   UNL     1      -2.706   4.305   4.717  0.00  0.00    +0.292 HD
ENDBRANCH  35  38
ENDBRANCH  31  32
ENDBRANCH  30  31
ENDBRANCH  28  30
ENDBRANCH  25  26
ENDBRANCH  24  25
ENDBRANCH  22  24
ENDBRANCH  21  22
ENDBRANCH  10  21
TORSDOF 9
