REMARK  Name = ZINC58092150
REMARK  6 active torsions:
REMARK  status: ('A' for Active; 'I' for Inactive)
REMARK    1  A    between atoms: C_1  and  C_2
REMARK    2  A    between atoms: C_4  and  C_14
REMARK    3  A    between atoms: C_8  and  C_12
REMARK    4  A    between atoms: C_8  and  C_13
REMARK    5  A    between atoms: C_14  and  C_16
REMARK    6  A    between atoms: C_14  and  N_22
REMARK                            x       y       z     vdW  Elec       q    Type
REMARK                         _______ _______ _______ _____ _____    ______ ____
ROOT
ATOM      1  C   UNL     1      -0.018   1.503   0.010  0.00  0.00    +0.044 C 
ATOM      2  C   UNL     1       0.002  -0.004   0.002  0.00  0.00    -0.050 A 
ATOM      3  C   UNL     1       0.006  -0.691  -1.198  0.00  0.00    +0.007 A 
ATOM      4  C   UNL     1       0.025  -2.070  -1.213  0.00  0.00    -0.036 A 
ATOM      5  C   UNL     1       0.040  -2.782  -0.015  0.00  0.00    +0.039 A 
ATOM      6  C   UNL     1       0.037  -2.081   1.184  0.00  0.00    -0.011 A 
ATOM      7  C   UNL     1       0.023  -0.704   1.196  0.00  0.00    +0.009 A 
ATOM      8  C   UNL     1       0.056  -3.118   2.283  0.00  0.00    +0.068 C 
ATOM      9  C   UNL     1       0.071  -4.439   1.543  0.00  0.00    +0.227 C 
ATOM     10  O   UNL     1       0.088  -5.544   2.042  0.00  0.00    -0.275 OA
ATOM     11  N   UNL     1       0.060  -4.156   0.229  0.00  0.00    -0.284 N 
ATOM     12  C   UNL     1       1.316  -2.969   3.138  0.00  0.00    +0.025 C 
ATOM     13  C   UNL     1      -1.198  -3.003   3.151  0.00  0.00    +0.025 C 
ATOM     14  H   UNL     1       0.066  -4.829  -0.469  0.00  0.00    +0.155 HD
ENDROOT
BRANCH   4  15
ATOM     15  C   UNL     1       0.028  -2.808  -2.527  0.00  0.00    -0.011 C 
BRANCH  15  16
ATOM     16  C   UNL     1       1.431  -3.250  -2.852  0.00  0.00    -0.058 A 
ATOM     17  C   UNL     1       2.332  -2.350  -3.389  0.00  0.00    +0.002 A 
ATOM     18  C   UNL     1       3.620  -2.756  -3.686  0.00  0.00    +0.000 A 
ATOM     19  C   UNL     1       4.006  -4.061  -3.447  0.00  0.00    +0.000 A 
ATOM     20  C   UNL     1       3.105  -4.961  -2.909  0.00  0.00    +0.000 A 
ATOM     21  C   UNL     1       1.819  -4.554  -2.607  0.00  0.00    +0.002 A 
ENDBRANCH  15  16
BRANCH  15  22
ATOM     22  N   UNL     1      -0.464  -1.920  -3.589  0.00  0.00    +0.385 N 
ATOM     23  H   UNL     1      -0.462  -2.414  -4.468  0.00  0.00    -0.089 HD
ATOM     24  H   UNL     1      -1.404  -1.624  -3.371  0.00  0.00    -0.089 HD
ATOM     25  H   UNL     1       0.136  -1.112  -3.656  0.00  0.00    -0.089 HD
ENDBRANCH  15  22
ENDBRANCH   4  15
TORSDOF 3
