REMARK  Name = ZINC49486158
REMARK  7 active torsions:
REMARK  status: ('A' for Active; 'I' for Inactive)
REMARK    1  A    between atoms: C_3  and  C_6
REMARK    2  A    between atoms: C_8  and  C_11
REMARK    3  A    between atoms: N_13  and  C_14
REMARK    4  A    between atoms: C_14  and  C_15
REMARK    5  A    between atoms: C_15  and  C_17
REMARK    6  A    between atoms: C_15  and  N_22
REMARK    7  A    between atoms: N_25  and  C_28
REMARK                            x       y       z     vdW  Elec       q    Type
REMARK                         _______ _______ _______ _____ _____    ______ ____
ROOT
ATOM      1  C   UNL     1      10.443  -0.674   0.033  0.00  0.00    +0.017 C 
ENDROOT
BRANCH   1   2
ATOM      2  N   UNL     1      10.700   0.379  -0.959  0.00  0.00    +0.389 N 
ATOM      3  C   UNL     1      10.873  -0.231  -2.284  0.00  0.00    -0.059 C 
ATOM      4  C   UNL     1      11.027   0.872  -3.336  0.00  0.00    +0.086 C 
ATOM      5  N   UNL     1      12.128   1.757  -2.926  0.00  0.00    -0.333 N 
ATOM      6  C   UNL     1      12.119   2.285  -1.553  0.00  0.00    +0.086 C 
ATOM      7  C   UNL     1      11.913   1.115  -0.585  0.00  0.00    -0.059 C 
ATOM      8  H   UNL     1       9.916   1.014  -0.984  0.00  0.00    -0.081 HD
BRANCH   5   9
ATOM      9  C   UNL     1      13.153   2.088  -3.817  0.00  0.00    +0.030 A 
ATOM     10  C   UNL     1      13.082   1.681  -5.143  0.00  0.00    +0.026 A 
ATOM     11  C   UNL     1      14.096   2.010  -6.021  0.00  0.00    +0.040 A 
ATOM     12  C   UNL     1      15.183   2.745  -5.580  0.00  0.00    +0.124 A 
ATOM     13  C   UNL     1      15.257   3.152  -4.259  0.00  0.00    +0.040 A 
ATOM     14  C   UNL     1      14.243   2.830  -3.379  0.00  0.00    +0.026 A 
ATOM     15  F   UNL     1      16.174   3.065  -6.441  0.00  0.00    -0.205 F 
ENDBRANCH   5   9
ENDBRANCH   1   2
BRANCH   1  16
ATOM     16  C   UNL     1      11.651  -1.568   0.141  0.00  0.00    +0.093 A 
ATOM     17  C   UNL     1      12.253  -1.942   1.285  0.00  0.00    +0.043 A 
ATOM     18  C   UNL     1      13.338  -2.773   0.924  0.00  0.00    +0.041 A 
ATOM     19  C   UNL     1      13.334  -2.858  -0.418  0.00  0.00    +0.195 A 
ATOM     20  O   UNL     1      12.307  -2.131  -0.887  0.00  0.00    -0.469 OA
ENDBRANCH   1  16
BRANCH   1  21
ATOM     21  C   UNL     1       9.233  -1.503  -0.405  0.00  0.00    +0.097 C 
BRANCH  21  24
ATOM     22  C   UNL     1       6.922  -1.117  -1.073  0.00  0.00    +0.266 C 
ATOM     23  O   UNL     1       6.841  -2.293  -1.366  0.00  0.00    -0.268 OA
ATOM     24  N   UNL     1       8.076  -0.623  -0.584  0.00  0.00    -0.311 N 
ATOM     25  H   UNL     1       8.141   0.316  -0.349  0.00  0.00    +0.149 HD
BRANCH  22  28
ATOM     26  C   UNL     1       3.690   0.499  -1.762  0.00  0.00    +0.203 A 
ATOM     27  C   UNL     1       4.488  -0.607  -1.753  0.00  0.00    +0.089 A 
ATOM     28  C   UNL     1       5.750  -0.226  -1.254  0.00  0.00    +0.168 A 
ATOM     29  N   UNL     1       5.708   1.057  -0.977  0.00  0.00    -0.073 NA
ATOM     30  O   UNL     1       4.414   1.535  -1.297  0.00  0.00    -0.351 OA
BRANCH  26  33
ATOM     31  C   UNL     1       0.244   1.254  -2.721  0.00  0.00    +0.042 A 
ATOM     32  C   UNL     1       1.496   1.659  -2.222  0.00  0.00    +0.053 A 
ATOM     33  C   UNL     1       2.290   0.552  -2.208  0.00  0.00    +0.172 A 
ATOM     34  O   UNL     1       1.568  -0.487  -2.674  0.00  0.00    -0.460 OA
ATOM     35  C   UNL     1       0.332  -0.066  -2.985  0.00  0.00    +0.196 A 
ENDBRANCH  26  33
ENDBRANCH  22  28
ENDBRANCH  21  24
ENDBRANCH   1  21
TORSDOF 7
