REMARK  Name = ZINC09391968
REMARK  9 active torsions:
REMARK  status: ('A' for Active; 'I' for Inactive)
REMARK    1  A    between atoms: C_7  and  S_23
REMARK    2  A    between atoms: N_9  and  C_10
REMARK    3  A    between atoms: C_10  and  C_11
REMARK    4  A    between atoms: C_11  and  N_12
REMARK    5  A    between atoms: C_13  and  C_15
REMARK    6  A    between atoms: S_23  and  C_24
REMARK    7  A    between atoms: C_24  and  C_25
REMARK    8  A    between atoms: N_27  and  C_28
REMARK    9  A    between atoms: C_28  and  C_29
REMARK                            x       y       z     vdW  Elec       q    Type
REMARK                         _______ _______ _______ _____ _____    ______ ____
ROOT
ATOM      1  C   UNL     1      -8.691   2.727   0.060  0.00  0.00    +0.001 A 
ATOM      2  C   UNL     1      -9.459   1.571   0.058  0.00  0.00    +0.002 A 
ATOM      3  C   UNL     1      -8.862   0.330   0.048  0.00  0.00    +0.026 A 
ATOM      4  C   UNL     1      -7.474   0.231   0.040  0.00  0.00    +0.050 A 
ATOM      5  C   UNL     1      -6.699   1.405   0.047  0.00  0.00    +0.013 A 
ATOM      6  C   UNL     1      -7.326   2.653   0.052  0.00  0.00    +0.011 A 
ATOM      7  C   UNL     1      -5.298   0.971   0.033  0.00  0.00    +0.034 A 
ATOM      8  C   UNL     1      -5.304  -0.376   0.026  0.00  0.00    +0.101 A 
ATOM      9  N   UNL     1      -6.602  -0.834   0.030  0.00  0.00    -0.344 N 
ENDROOT
BRANCH   9  10
ATOM     10  C   UNL     1      -6.996  -2.245   0.025  0.00  0.00    +0.140 C 
BRANCH  10  11
ATOM     11  C   UNL     1      -7.262  -2.696  -1.413  0.00  0.00    +0.126 C 
BRANCH  11  12
ATOM     12  N   UNL     1      -7.657  -4.106  -1.417  0.00  0.00    -0.310 N 
ATOM     13  C   UNL     1      -7.943  -4.722  -2.582  0.00  0.00    +0.246 C 
ATOM     14  O   UNL     1      -7.873  -4.107  -3.628  0.00  0.00    -0.270 OA
ATOM     15  H   UNL     1      -7.712  -4.597  -0.583  0.00  0.00    +0.149 HD
BRANCH  13  16
ATOM     16  C   UNL     1      -8.340  -6.145  -2.586  0.00  0.00    +0.055 A 
ATOM     17  C   UNL     1      -8.421  -6.854  -1.386  0.00  0.00    +0.016 A 
ATOM     18  C   UNL     1      -8.793  -8.182  -1.397  0.00  0.00    +0.021 A 
ATOM     19  C   UNL     1      -9.087  -8.813  -2.595  0.00  0.00    +0.042 A 
ATOM     20  C   UNL     1      -9.009  -8.116  -3.788  0.00  0.00    +0.040 A 
ATOM     21  C   UNL     1      -8.643  -6.785  -3.791  0.00  0.00    +0.054 A 
ATOM     22 CL   UNL     1      -8.552  -5.910  -5.288  0.00  0.00    -0.083 Cl
ATOM     23 CL   UNL     1      -9.555 -10.485  -2.599  0.00  0.00    -0.083 Cl
ENDBRANCH  13  16
ENDBRANCH  11  12
ENDBRANCH  10  11
ENDBRANCH   9  10
BRANCH   7  24
ATOM     24  S   UNL     1      -3.877   2.013   0.031  0.00  0.00    -0.114 S 
BRANCH  24  25
ATOM     25  C   UNL     1      -2.482   0.853   0.018  0.00  0.00    +0.170 C 
BRANCH  25  26
ATOM     26  C   UNL     1      -1.187   1.624   0.017  0.00  0.00    +0.224 C 
ATOM     27  O   UNL     1      -1.204   2.837   0.023  0.00  0.00    -0.275 OA
ATOM     28  N   UNL     1      -0.011   0.966   0.007  0.00  0.00    -0.308 N 
ATOM     29  H   UNL     1       0.002  -0.004   0.002  0.00  0.00    +0.149 HD
BRANCH  28  30
ATOM     30  C   UNL     1       1.248   1.716  -0.001  0.00  0.00    +0.178 C 
BRANCH  30  31
ATOM     31  C   UNL     1       2.406   0.752  -0.017  0.00  0.00    +0.122 A 
ATOM     32  C   UNL     1       3.001   0.255  -1.116  0.00  0.00    +0.046 A 
ATOM     33  C   UNL     1       4.033  -0.603  -0.672  0.00  0.00    +0.041 A 
ATOM     34  C   UNL     1       4.008  -0.578   0.673  0.00  0.00    +0.195 A 
ATOM     35  O   UNL     1       3.024   0.248   1.064  0.00  0.00    -0.466 OA
ENDBRANCH  30  31
ENDBRANCH  28  30
ENDBRANCH  25  26
ENDBRANCH  24  25
ENDBRANCH   7  24
TORSDOF 9
