REMARK  Name = ZINC15209608
REMARK  12 active torsions:
REMARK  status: ('A' for Active; 'I' for Inactive)
REMARK    1  A    between atoms: C_1  and  N_58
REMARK    2  A    between atoms: C_2  and  N_58
REMARK    3  A    between atoms: C_3  and  C_4
REMARK    4  A    between atoms: C_3  and  N_58
REMARK    5  A    between atoms: C_4  and  N_5
REMARK    6  A    between atoms: N_5  and  S_6
REMARK    7  A    between atoms: S_6  and  C_9
REMARK    8  A    between atoms: C_12  and  N_18
REMARK    9  A    between atoms: C_13  and  N_15
REMARK   10  A    between atoms: N_18  and  C_19
REMARK   11  A    between atoms: C_19  and  C_20
REMARK   12  A    between atoms: C_19  and  C_26
REMARK                            x       y       z     vdW  Elec       q    Type
REMARK                         _______ _______ _______ _____ _____    ______ ____
ROOT
ATOM      1  C   UNL     1       4.610  -0.834  -5.015  0.00  0.00    +0.108 A 
ATOM      2  C   UNL     1       3.788  -1.548  -4.162  0.00  0.00    +0.030 A 
ATOM      3  C   UNL     1       3.789  -1.272  -2.808  0.00  0.00    +0.027 A 
ATOM      4  C   UNL     1       4.617  -0.276  -2.305  0.00  0.00    +0.059 A 
ATOM      5  C   UNL     1       5.436   0.443  -3.165  0.00  0.00    +0.149 A 
ATOM      6  C   UNL     1       5.434   0.158  -4.517  0.00  0.00    +0.063 A 
ENDROOT
BRANCH   1   7
ATOM      7  S   UNL     1       4.606  -1.189  -6.741  0.00  0.00    +0.058 S 
ATOM      8  O   UNL     1       5.861  -0.755  -7.247  0.00  0.00    -0.153 OA
ATOM      9  O   UNL     1       4.151  -2.528  -6.878  0.00  0.00    -0.153 OA
BRANCH   7  10
ATOM     10  N   UNL     1       3.455  -0.224  -7.437  0.00  0.00    -0.192 NA
ATOM     11  H   UNL     1       2.670  -0.622  -7.846  0.00  0.00    +0.148 HD
BRANCH  10  12
ATOM     12  C   UNL     1       3.621   1.232  -7.435  0.00  0.00    +0.087 C 
BRANCH  12  13
ATOM     13  C   UNL     1       2.649   1.857  -8.438  0.00  0.00    -0.063 C 
BRANCH  13  16
ATOM     14  C   UNL     1       4.139   3.696  -8.949  0.00  0.00    -0.097 C 
ATOM     15  C   UNL     1       1.746   3.969  -9.205  0.00  0.00    -0.097 C 
ATOM     16  N   UNL     1       2.813   3.325  -8.410  0.00  0.00    +0.377 N 
ATOM     17  H   UNL     1       2.747   3.649  -7.438  0.00  0.00    -0.083 HD
ENDBRANCH  13  16
ENDBRANCH  12  13
ENDBRANCH  10  12
ENDBRANCH   7  10
ENDBRANCH   1   7
BRANCH   5  18
ATOM     18  N   UNL     1       6.314   1.509  -2.634  0.00  0.00    +0.058 N 
ATOM     19  O   UNL     1       6.953   2.210  -3.399  0.00  0.00    -0.126 OA
ATOM     20  O   UNL     1       6.399   1.686  -1.432  0.00  0.00    -0.126 OA
ENDBRANCH   5  18
BRANCH   4  21
ATOM     21  N   UNL     1       4.620   0.005  -0.937  0.00  0.00    -0.331 N 
ATOM     22  H   UNL     1       5.254   0.644  -0.575  0.00  0.00    +0.147 HD
BRANCH  21  23
ATOM     23  C   UNL     1       3.667  -0.664  -0.049  0.00  0.00    +0.131 C 
BRANCH  23  24
ATOM     24  C   UNL     1       2.361   0.089  -0.053  0.00  0.00    -0.023 A 
ATOM     25  C   UNL     1       1.164  -0.603  -0.053  0.00  0.00    +0.006 A 
ATOM     26  C   UNL     1      -0.033   0.088  -0.058  0.00  0.00    +0.000 A 
ATOM     27  C   UNL     1      -0.034   1.470  -0.062  0.00  0.00    +0.000 A 
ATOM     28  C   UNL     1       1.163   2.162  -0.061  0.00  0.00    +0.000 A 
ATOM     29  C   UNL     1       2.361   1.471  -0.057  0.00  0.00    +0.006 A 
ENDBRANCH  23  24
BRANCH  23  30
ATOM     30  C   UNL     1       4.222  -0.697   1.352  0.00  0.00    -0.023 A 
ATOM     31  C   UNL     1       4.899   0.399   1.853  0.00  0.00    +0.006 A 
ATOM     32  C   UNL     1       5.404   0.371   3.139  0.00  0.00    +0.000 A 
ATOM     33  C   UNL     1       5.242  -0.758   3.921  0.00  0.00    +0.000 A 
ATOM     34  C   UNL     1       4.571  -1.857   3.418  0.00  0.00    +0.000 A 
ATOM     35  C   UNL     1       4.061  -1.826   2.133  0.00  0.00    +0.006 A 
ENDBRANCH  23  30
ENDBRANCH  21  23
ENDBRANCH   4  21
TORSDOF 10
