REMARK  Name = ZINC39543912
REMARK  7 active torsions:
REMARK  status: ('A' for Active; 'I' for Inactive)
REMARK    1  A    between atoms: C_1  and  C_2
REMARK    2  A    between atoms: C_4  and  C_31
REMARK    3  A    between atoms: C_5  and  C_8
REMARK    4  A    between atoms: C_8  and  C_9
REMARK    5  A    between atoms: C_9  and  C_10
REMARK    6  A    between atoms: N_20  and  C_22
REMARK    7  A    between atoms: C_22  and  C_23
REMARK                            x       y       z     vdW  Elec       q    Type
REMARK                         _______ _______ _______ _____ _____    ______ ____
ROOT
ATOM      1  C   UNL     1       5.107  -1.721  -2.458  0.00  0.00    +0.216 C 
ATOM      2  O   UNL     1       4.909  -2.852  -2.849  0.00  0.00    -0.276 OA
ATOM      3  N   UNL     1       6.272  -1.105  -2.740  0.00  0.00    -0.301 N 
ATOM      4  C   UNL     1       6.646   0.260  -2.325  0.00  0.00    +0.108 C 
ATOM      5  C   UNL     1       8.196   0.267  -2.328  0.00  0.00    +0.025 C 
ATOM      6  C   UNL     1       8.506  -0.635  -3.544  0.00  0.00    -0.027 C 
ATOM      7  C   UNL     1       7.385  -1.685  -3.509  0.00  0.00    +0.112 C 
ATOM      8  C   UNL     1       8.450   0.179  -4.830  0.00  0.00    +0.005 C 
ATOM      9  C   UNL     1       8.823  -0.720  -6.013  0.00  0.00    -0.018 C 
ATOM     10  C   UNL     1      10.196  -1.345  -5.755  0.00  0.00    -0.078 C 
ATOM     11  N   UNL     1      10.148  -2.157  -4.533  0.00  0.00    +0.383 N 
ATOM     12  C   UNL     1       9.866  -1.297  -3.375  0.00  0.00    -0.070 C 
ATOM     13  H   UNL     1       9.421  -2.851  -4.620  0.00  0.00    -0.081 HD
ENDROOT
BRANCH   1  14
ATOM     14  C   UNL     1       4.050  -1.004  -1.657  0.00  0.00    +0.102 C 
BRANCH  14  15
ATOM     15  C   UNL     1       2.837  -1.919  -1.480  0.00  0.00    +0.066 C 
BRANCH  15  19
ATOM     16  C   UNL     1      -0.019   1.526   0.010  0.00  0.00    +0.039 C 
ATOM     17  C   UNL     1       0.002  -0.004   0.002  0.00  0.00    +0.152 C 
ATOM     18  C   UNL     1       0.759  -0.524  -1.207  0.00  0.00    -0.024 C 
ATOM     19  C   UNL     1       1.780  -1.203  -0.679  0.00  0.00    +0.065 C 
ATOM     20  N   UNL     1       1.738  -1.160   0.671  0.00  0.00    -0.158 NA
ATOM     21  N   UNL     1       0.787  -0.521   1.136  0.00  0.00    -0.180 NA
ATOM     22  C   UNL     1       0.433  -0.322  -2.664  0.00  0.00    +0.043 C 
ENDBRANCH  15  19
ENDBRANCH  14  15
ENDBRANCH   1  14
BRANCH  11  23
ATOM     23  C   UNL     1      11.441  -2.827  -4.340  0.00  0.00    -0.040 C 
BRANCH  23  24
ATOM     24  C   UNL     1      11.671  -3.807  -5.462  0.00  0.00    -0.026 A 
ATOM     25  C   UNL     1      11.422  -5.153  -5.265  0.00  0.00    +0.005 A 
ATOM     26  C   UNL     1      11.632  -6.053  -6.293  0.00  0.00    +0.003 A 
ATOM     27  C   UNL     1      12.091  -5.609  -7.519  0.00  0.00    +0.041 A 
ATOM     28  C   UNL     1      12.341  -4.263  -7.719  0.00  0.00    +0.159 A 
ATOM     29  C   UNL     1      12.125  -3.359  -6.689  0.00  0.00    +0.160 A 
ATOM     30  F   UNL     1      12.362  -2.043  -6.884  0.00  0.00    -0.202 F 
ATOM     31  F   UNL     1      12.790  -3.829  -8.917  0.00  0.00    -0.202 F 
ENDBRANCH  23  24
ENDBRANCH  11  23
TORSDOF 5
