REMARK  Name = ZINC13001500
REMARK  12 active torsions:
REMARK  status: ('A' for Active; 'I' for Inactive)
REMARK    1  A    between atoms: C_1  and  O_2
REMARK    2  A    between atoms: O_2  and  C_3
REMARK    3  A    between atoms: C_3  and  C_5
REMARK    4  A    between atoms: C_5  and  C_7
REMARK    5  A    between atoms: C_5  and  N_15
REMARK    6  A    between atoms: C_7  and  C_8
REMARK    7  A    between atoms: C_11  and  O_14
REMARK    8  A    between atoms: C_16  and  C_18
REMARK    9  A    between atoms: C_18  and  C_19
REMARK   10  A    between atoms: C_19  and  C_20
REMARK   11  A    between atoms: C_23  and  S_26
REMARK   12  A    between atoms: S_26  and  N_29
REMARK                            x       y       z     vdW  Elec       q    Type
REMARK                         _______ _______ _______ _____ _____    ______ ____
ROOT
ATOM      1  N   UNL     1       2.581  -7.753  -3.113  0.00  0.00    -0.302 N 
ATOM      2  C   UNL     1       2.632  -6.574  -2.462  0.00  0.00    +0.214 C 
ATOM      3  O   UNL     1       3.669  -6.208  -1.950  0.00  0.00    -0.276 OA
ATOM      4  H   UNL     1       1.752  -8.046  -3.523  0.00  0.00    +0.150 HD
ENDROOT
BRANCH   1   5
ATOM      5  C   UNL     1       3.778  -8.593  -3.201  0.00  0.00    +0.186 C 
BRANCH   5   6
ATOM      6  C   UNL     1       3.886  -9.445  -1.963  0.00  0.00    +0.328 C 
ATOM      7  O   UNL     1       3.049  -9.360  -1.096  0.00  0.00    -0.249 OA
BRANCH   6   9
ATOM      8  C   UNL     1       4.952 -11.088  -0.605  0.00  0.00    +0.280 C 
ATOM      9  O   UNL     1       4.912 -10.299  -1.823  0.00  0.00    -0.467 OA
ENDBRANCH   6   9
ENDBRANCH   5   6
BRANCH   5  10
ATOM     10  C   UNL     1       3.679  -9.495  -4.434  0.00  0.00    +0.069 C 
BRANCH  10  11
ATOM     11  C   UNL     1       3.695  -8.646  -5.679  0.00  0.00    -0.045 A 
ATOM     12  C   UNL     1       2.506  -8.184  -6.214  0.00  0.00    +0.007 A 
ATOM     13  C   UNL     1       2.519  -7.401  -7.352  0.00  0.00    +0.045 A 
ATOM     14  C   UNL     1       3.723  -7.088  -7.965  0.00  0.00    +0.117 A 
ATOM     15  C   UNL     1       4.914  -7.559  -7.429  0.00  0.00    +0.045 A 
ATOM     16  C   UNL     1       4.897  -8.336  -6.288  0.00  0.00    +0.007 A 
BRANCH  14  17
ATOM     17  O   UNL     1       3.738  -6.324  -9.088  0.00  0.00    -0.507 OA
ATOM     18  H   UNL     1       3.678  -6.830  -9.910  0.00  0.00    +0.292 HD
ENDBRANCH  14  17
ENDBRANCH  10  11
ENDBRANCH   5  10
ENDBRANCH   1   5
BRANCH   2  19
ATOM     19  C   UNL     1       1.401  -5.710  -2.372  0.00  0.00    +0.100 C 
BRANCH  19  20
ATOM     20  C   UNL     1       1.728  -4.437  -1.587  0.00  0.00    +0.044 C 
BRANCH  20  21
ATOM     21  C   UNL     1       0.496  -3.573  -1.497  0.00  0.00    -0.047 A 
ATOM     22  C   UNL     1      -0.378  -3.725  -0.437  0.00  0.00    +0.005 A 
ATOM     23  C   UNL     1      -1.507  -2.932  -0.353  0.00  0.00    +0.029 A 
ATOM     24  C   UNL     1      -1.761  -1.986  -1.329  0.00  0.00    +0.105 A 
ATOM     25  C   UNL     1      -0.890  -1.838  -2.392  0.00  0.00    +0.029 A 
ATOM     26  C   UNL     1       0.241  -2.628  -2.473  0.00  0.00    +0.005 A 
BRANCH  24  27
ATOM     27  S   UNL     1      -3.200  -0.975  -1.222  0.00  0.00    +0.061 S 
ATOM     28  O   UNL     1      -4.139  -1.686  -0.427  0.00  0.00    -0.153 OA
ATOM     29  O   UNL     1      -3.493  -0.544  -2.544  0.00  0.00    -0.153 OA
BRANCH  27  30
ATOM     30  N   UNL     1      -2.784   0.380  -0.365  0.00  0.00    -0.177 NA
ATOM     31  C   UNL     1      -2.281   1.542  -1.038  0.00  0.00    +0.109 C 
ATOM     32  C   UNL     1      -0.749   1.592  -1.257  0.00  0.00    +0.017 C 
ATOM     33  C   UNL     1      -0.013   1.086   0.008  0.00  0.00    +0.001 C 
ATOM     34  C   UNL     1      -0.703   1.564   1.253  0.00  0.00    +0.001 C 
ATOM     35  C   UNL     1      -1.581   0.401   1.701  0.00  0.00    +0.017 C 
ATOM     36  C   UNL     1      -2.928   0.411   1.129  0.00  0.00    +0.109 C 
ENDBRANCH  27  30
ENDBRANCH  24  27
ENDBRANCH  20  21
ENDBRANCH  19  20
ENDBRANCH   2  19
TORSDOF 11
