REMARK  Name = ZINC09499960
REMARK  7 active torsions:
REMARK  status: ('A' for Active; 'I' for Inactive)
REMARK    1  A    between atoms: C_1  and  C_2
REMARK    2  A    between atoms: C_2  and  O_3
REMARK    3  A    between atoms: O_3  and  C_4
REMARK    4  A    between atoms: C_7  and  N_10
REMARK    5  A    between atoms: C_15  and  C_29
REMARK    6  A    between atoms: N_17  and  C_23
REMARK    7  A    between atoms: C_34  and  O_35
REMARK                            x       y       z     vdW  Elec       q    Type
REMARK                         _______ _______ _______ _____ _____    ______ ____
ROOT
ATOM      1  N   UNL     1       1.137  -5.959   1.753  0.00  0.00    -0.208 N 
ATOM      2  C   UNL     1       1.762  -6.560   2.816  0.00  0.00    +0.235 C 
ATOM      3  O   UNL     1       2.105  -6.046   3.859  0.00  0.00    -0.274 OA
ATOM      4  C   UNL     1       1.922  -7.939   2.421  0.00  0.00    +0.146 C 
ATOM      5  C   UNL     1       2.124  -9.267   3.022  0.00  0.00    +0.161 C 
ATOM      6  N   UNL     1       1.604 -10.182   1.956  0.00  0.00    -0.244 N 
ATOM      7  O   UNL     1       1.081  -9.357   0.890  0.00  0.00    -0.257 OA
ATOM      8  C   UNL     1       0.608  -8.184   1.576  0.00  0.00    +0.249 C 
ATOM      9  C   UNL     1       0.631  -6.860   0.861  0.00  0.00    +0.259 C 
ATOM     10  O   UNL     1       0.274  -6.639  -0.277  0.00  0.00    -0.272 OA
ENDROOT
BRANCH   5  11
ATOM     11  C   UNL     1       1.326  -9.408   4.292  0.00  0.00    +0.022 A 
ATOM     12  C   UNL     1       0.124 -10.090   4.281  0.00  0.00    +0.029 A 
ATOM     13  C   UNL     1      -0.610 -10.220   5.447  0.00  0.00    +0.043 A 
ATOM     14  C   UNL     1      -0.142  -9.668   6.626  0.00  0.00    +0.043 A 
ATOM     15  C   UNL     1       1.060  -8.985   6.642  0.00  0.00    +0.084 A 
ATOM     16  C   UNL     1       1.800  -8.859   5.474  0.00  0.00    +0.140 A 
ATOM     17 CL   UNL     1       1.646  -8.291   8.121  0.00  0.00    -0.080 Cl
ATOM     18 CL   UNL     1      -2.119 -11.077   5.429  0.00  0.00    -0.083 Cl
BRANCH  16  19
ATOM     19  O   UNL     1       2.985  -8.193   5.488  0.00  0.00    -0.505 OA
ATOM     20  H   UNL     1       2.905  -7.245   5.310  0.00  0.00    +0.292 HD
ENDBRANCH  16  19
ENDBRANCH   5  11
BRANCH   1  24
ATOM     21  C   UNL     1       0.802  -1.825   1.306  0.00  0.00    +0.121 A 
ATOM     22  C   UNL     1       0.259  -2.672   0.350  0.00  0.00    +0.047 A 
ATOM     23  C   UNL     1       0.370  -4.040   0.498  0.00  0.00    +0.027 A 
ATOM     24  C   UNL     1       1.024  -4.568   1.603  0.00  0.00    +0.044 A 
ATOM     25  C   UNL     1       1.567  -3.720   2.558  0.00  0.00    +0.027 A 
ATOM     26  C   UNL     1       1.461  -2.352   2.407  0.00  0.00    +0.047 A 
BRANCH  21  27
ATOM     27  O   UNL     1       0.693  -0.477   1.160  0.00  0.00    -0.492 OA
BRANCH  27  29
ATOM     28  C   UNL     1      -0.019   1.526   0.010  0.00  0.00    +0.048 C 
ATOM     29  C   UNL     1       0.002  -0.004   0.002  0.00  0.00    +0.225 C 
ENDBRANCH  27  29
ENDBRANCH  21  27
ENDBRANCH   1  24
BRANCH   6  30
ATOM     30  C   UNL     1       1.622 -11.578   1.985  0.00  0.00    +0.065 A 
ATOM     31  C   UNL     1       2.154 -12.245   3.082  0.00  0.00    +0.028 A 
ATOM     32  C   UNL     1       2.170 -13.625   3.108  0.00  0.00    +0.002 A 
ATOM     33  C   UNL     1       1.657 -14.344   2.044  0.00  0.00    +0.000 A 
ATOM     34  C   UNL     1       1.126 -13.684   0.951  0.00  0.00    +0.002 A 
ATOM     35  C   UNL     1       1.102 -12.304   0.921  0.00  0.00    +0.028 A 
ENDBRANCH   6  30
TORSDOF 6
