REMARK  Name = ZINC04010293
REMARK  10 active torsions:
REMARK  status: ('A' for Active; 'I' for Inactive)
REMARK    1  A    between atoms: C_1  and  C_2
REMARK    2  A    between atoms: C_2  and  O_3
REMARK    3  A    between atoms: O_3  and  C_4
REMARK    4  A    between atoms: C_4  and  C_6
REMARK    5  A    between atoms: C_6  and  C_7
REMARK    6  A    between atoms: C_14  and  N_34
REMARK    7  A    between atoms: C_15  and  C_32
REMARK    8  A    between atoms: C_16  and  C_18
REMARK    9  A    between atoms: C_22  and  O_24
REMARK   10  A    between atoms: O_24  and  C_25
REMARK                            x       y       z     vdW  Elec       q    Type
REMARK                         _______ _______ _______ _____ _____    ______ ____
ROOT
ATOM      1  C   UNL     1      -3.208  -5.443  -2.456  0.00  0.00    +0.081 A 
ATOM      2  C   UNL     1      -2.820  -5.710  -3.762  0.00  0.00    +0.050 A 
ATOM      3  C   UNL     1      -2.667  -7.063  -3.889  0.00  0.00    +0.222 A 
ATOM      4  N   UNL     1      -2.950  -7.618  -2.700  0.00  0.00    -0.246 N 
ATOM      5  H   UNL     1      -2.925  -8.564  -2.491  0.00  0.00    +0.192 HD
ATOM      6  N   UNL     1      -3.282  -6.583  -1.811  0.00  0.00    -0.175 NA
ATOM      7  O   UNL     1      -2.294  -7.651  -5.053  0.00  0.00    -0.423 OA
ATOM      8  C   UNL     1      -2.338  -6.902  -6.174  0.00  0.00    +0.200 C 
ATOM      9  C   UNL     1      -2.473  -5.557  -6.174  0.00  0.00    +0.098 C 
ATOM     10  C   UNL     1      -2.584  -4.754  -4.902  0.00  0.00    +0.101 C 
ENDROOT
BRANCH  10  11
ATOM     11  C   UNL     1      -1.306  -3.990  -4.668  0.00  0.00    -0.031 A 
ATOM     12  C   UNL     1      -0.106  -4.669  -4.558  0.00  0.00    +0.007 A 
ATOM     13  C   UNL     1       1.068  -3.971  -4.344  0.00  0.00    +0.042 A 
ATOM     14  C   UNL     1       1.046  -2.592  -4.240  0.00  0.00    +0.165 A 
ATOM     15  C   UNL     1      -0.159  -1.909  -4.351  0.00  0.00    +0.164 A 
ATOM     16  C   UNL     1      -1.334  -2.612  -4.571  0.00  0.00    +0.053 A 
ATOM     17  F   UNL     1       2.193  -1.911  -4.030  0.00  0.00    -0.202 F 
BRANCH  15  18
ATOM     18  O   UNL     1      -0.185  -0.554  -4.248  0.00  0.00    -0.453 OA
BRANCH  18  19
ATOM     19  C   UNL     1      -1.371   0.079  -4.452  0.00  0.00    +0.129 A 
ATOM     20  C   UNL     1      -2.103   0.548  -3.371  0.00  0.00    +0.046 A 
ATOM     21  C   UNL     1      -3.308   1.190  -3.582  0.00  0.00    +0.004 A 
ATOM     22  C   UNL     1      -3.784   1.366  -4.868  0.00  0.00    +0.000 A 
ATOM     23  C   UNL     1      -3.056   0.899  -5.947  0.00  0.00    +0.004 A 
ATOM     24  C   UNL     1      -1.848   0.261  -5.742  0.00  0.00    +0.046 A 
ENDBRANCH  18  19
ENDBRANCH  15  18
ENDBRANCH  10  11
BRANCH   8  25
ATOM     25  N   UNL     1      -2.240  -7.542  -7.384  0.00  0.00    -0.328 N 
ATOM     26  H   UNL     1      -2.142  -8.506  -7.416  0.00  0.00    +0.145 HD
ATOM     27  H   UNL     1      -2.268  -7.030  -8.207  0.00  0.00    +0.145 HD
ENDBRANCH   8  25
BRANCH   9  28
ATOM     28  C   UNL     1      -2.512  -4.869  -7.429  0.00  0.00    +0.101 C 
ATOM     29  N   UNL     1      -2.542  -4.322  -8.425  0.00  0.00    -0.191 NA
ENDBRANCH   9  28
BRANCH   1  30
ATOM     30  C   UNL     1      -3.488  -4.080  -1.878  0.00  0.00    +0.178 C 
BRANCH  30  31
ATOM     31  C   UNL     1      -2.217  -3.503  -1.311  0.00  0.00    +0.313 C 
ATOM     32  O   UNL     1      -1.188  -4.135  -1.370  0.00  0.00    -0.250 OA
BRANCH  31  33
ATOM     33  O   UNL     1      -2.227  -2.288  -0.740  0.00  0.00    -0.465 OA
BRANCH  33  35
ATOM     34  C   UNL     1      -1.192  -0.415   0.384  0.00  0.00    +0.048 C 
ATOM     35  C   UNL     1      -0.985  -1.804  -0.223  0.00  0.00    +0.229 C 
ENDBRANCH  33  35
ENDBRANCH  31  33
ENDBRANCH  30  31
ENDBRANCH   1  30
TORSDOF 9
