REMARK  Name = ZINC20118811
REMARK  11 active torsions:
REMARK  status: ('A' for Active; 'I' for Inactive)
REMARK    1  A    between atoms: C_1  and  C_2
REMARK    2  A    between atoms: C_7  and  C_8
REMARK    3  A    between atoms: C_9  and  C_10
REMARK    4  A    between atoms: C_9  and  N_33
REMARK    5  A    between atoms: N_12  and  C_13
REMARK    6  A    between atoms: C_16  and  N_19
REMARK    7  A    between atoms: C_20  and  C_22
REMARK    8  A    between atoms: C_22  and  C_24
REMARK    9  A    between atoms: C_22  and  O_25
REMARK   10  A    between atoms: O_25  and  C_26
REMARK   11  A    between atoms: C_34  and  C_36
REMARK                            x       y       z     vdW  Elec       q    Type
REMARK                         _______ _______ _______ _____ _____    ______ ____
ROOT
ATOM      1  C   UNL     1       1.314   2.552  -0.511  0.00  0.00    +0.034 A 
ATOM      2  C   UNL     1       0.308   1.603  -0.645  0.00  0.00    +0.025 A 
ATOM      3  C   UNL     1       0.632   0.270  -0.792  0.00  0.00    +0.025 A 
ATOM      4  C   UNL     1       1.964  -0.124  -0.805  0.00  0.00    +0.034 A 
ATOM      5  C   UNL     1       2.970   0.824  -0.671  0.00  0.00    +0.025 A 
ATOM      6  C   UNL     1       2.646   2.158  -0.525  0.00  0.00    +0.025 A 
ENDROOT
BRANCH   1   9
ATOM      7  C   UNL     1      -0.131   4.257   0.306  0.00  0.00    +0.262 C 
ATOM      8  O   UNL     1      -0.818   3.404   0.836  0.00  0.00    -0.268 OA
ATOM      9  N   UNL     1       0.985   3.904  -0.362  0.00  0.00    -0.280 N 
ATOM     10  H   UNL     1       1.638   4.679  -0.791  0.00  0.00    +0.155 HD
BRANCH   7  12
ATOM     11  C   UNL     1      -1.638   6.026   1.066  0.00  0.00    +0.036 C 
ATOM     12  C   UNL     1      -0.517   5.672   0.395  0.00  0.00    +0.097 C 
BRANCH  11  19
ATOM     13  C   UNL     1      -4.407   6.849   1.219  0.00  0.00    +0.044 C 
ATOM     14  C   UNL     1      -3.296   7.861   1.333  0.00  0.00    -0.043 A 
ATOM     15  C   UNL     1      -3.592   9.196   1.512  0.00  0.00    +0.004 A 
ATOM     16  C   UNL     1      -2.573  10.126   1.617  0.00  0.00    +0.000 A 
ATOM     17  C   UNL     1      -1.250   9.726   1.543  0.00  0.00    +0.001 A 
ATOM     18  C   UNL     1      -0.938   8.394   1.370  0.00  0.00    +0.008 A 
ATOM     19  C   UNL     1      -1.962   7.448   1.257  0.00  0.00    -0.020 A 
ENDBRANCH  11  19
BRANCH  12  20
ATOM     20  N   UNL     1       0.272   6.652  -0.213  0.00  0.00    -0.282 N 
ATOM     21  C   UNL     1       1.548   6.832   0.182  0.00  0.00    +0.214 C 
ATOM     22  O   UNL     1       2.033   6.098   1.018  0.00  0.00    -0.276 OA
ATOM     23  C   UNL     1       2.372   7.944  -0.413  0.00  0.00    +0.109 C 
ATOM     24  H   UNL     1      -0.148   7.277  -1.016  0.00  0.00    +0.155 HD
ENDBRANCH  12  20
ENDBRANCH   7  12
ENDBRANCH   1   9
BRANCH   4  25
ATOM     25  N   UNL     1       2.293  -1.478  -0.953  0.00  0.00    -0.282 N 
ATOM     26  C   UNL     1       1.522  -2.279  -1.715  0.00  0.00    +0.258 C 
ATOM     27  O   UNL     1       0.600  -1.810  -2.348  0.00  0.00    -0.271 OA
ATOM     28  H   UNL     1       3.180  -1.887  -0.448  0.00  0.00    +0.155 HD
BRANCH  26  29
ATOM     29  C   UNL     1       1.806  -3.757  -1.781  0.00  0.00    +0.256 C 
ATOM     30  C   UNL     1       1.573  -4.383  -0.404  0.00  0.00    +0.062 C 
BRANCH  29  31
ATOM     31  O   UNL     1       0.935  -4.368  -2.735  0.00  0.00    -0.478 OA
BRANCH  31  32
ATOM     32  C   UNL     1       1.346  -5.542  -3.283  0.00  0.00    +0.140 A 
ATOM     33  C   UNL     1       2.582  -6.073  -2.942  0.00  0.00    +0.047 A 
ATOM     34  C   UNL     1       2.997  -7.266  -3.501  0.00  0.00    +0.004 A 
ATOM     35  C   UNL     1       2.183  -7.932  -4.399  0.00  0.00    +0.002 A 
ATOM     36  C   UNL     1       0.951  -7.406  -4.740  0.00  0.00    +0.023 A 
ATOM     37  C   UNL     1       0.528  -6.214  -4.180  0.00  0.00    +0.083 A 
ATOM     38 CL   UNL     1      -1.022  -5.557  -4.604  0.00  0.00    -0.080 Cl
ENDBRANCH  31  32
ENDBRANCH  29  31
ENDBRANCH  26  29
ENDBRANCH   4  25
TORSDOF 8
