REMARK  Name = ZINC10325918
REMARK  5 active torsions:
REMARK  status: ('A' for Active; 'I' for Inactive)
REMARK    1  A    between atoms: C_1  and  C_2
REMARK    2  A    between atoms: C_5  and  C_8
REMARK    3  A    between atoms: C_13  and  C_29
REMARK    4  A    between atoms: N_19  and  C_22
REMARK    5  A    between atoms: C_33  and  N_35
REMARK                            x       y       z     vdW  Elec       q    Type
REMARK                         _______ _______ _______ _____ _____    ______ ____
ROOT
ATOM      1  C   UNL     1       0.059  -4.275  -0.021  0.00  0.00    +0.032 C 
ATOM      2  C   UNL     1       1.310  -4.779   0.701  0.00  0.00    +0.059 C 
ATOM      3  C   UNL     1       1.311  -6.290   0.725  0.00  0.00    +0.017 C 
ATOM      4  C   UNL     1       0.153  -6.980   0.763  0.00  0.00    +0.024 C 
ATOM      5  C   UNL     1       0.112  -8.493   0.789  0.00  0.00    +0.092 C 
ATOM      6  C   UNL     1       1.481  -9.027   1.103  0.00  0.00    +0.070 A 
ATOM      7  C   UNL     1       2.607  -8.243   1.050  0.00  0.00    +0.125 A 
ATOM      8  N   UNL     1       3.677  -9.014   1.382  0.00  0.00    -0.277 N 
ATOM      9  H   UNL     1       4.601  -8.721   1.425  0.00  0.00    +0.189 HD
ATOM     10  N   UNL     1       3.208 -10.310   1.652  0.00  0.00    -0.218 N 
ATOM     11  C   UNL     1       1.868 -10.313   1.481  0.00  0.00    +0.278 A 
ATOM     12  O   UNL     1       1.127 -11.270   1.631  0.00  0.00    -0.265 OA
ATOM     13  N   UNL     1       2.538  -6.913   0.712  0.00  0.00    -0.303 N 
ATOM     14  C   UNL     1      -1.087  -6.311   0.777  0.00  0.00    +0.162 C 
ATOM     15  O   UNL     1      -2.112  -6.962   0.838  0.00  0.00    -0.292 OA
ATOM     16  C   UNL     1      -1.172  -4.812   0.716  0.00  0.00    +0.088 C 
ATOM     17  H   UNL     1       3.339  -6.422   0.468  0.00  0.00    +0.153 HD
ENDROOT
BRANCH   1  22
ATOM     18  C   UNL     1      -0.018   1.503   0.010  0.00  0.00    +0.044 C 
ATOM     19  C   UNL     1       0.002  -0.004   0.002  0.00  0.00    -0.050 A 
ATOM     20  C   UNL     1       0.006  -0.689  -1.199  0.00  0.00    +0.003 A 
ATOM     21  C   UNL     1       0.025  -2.071  -1.206  0.00  0.00    +0.004 A 
ATOM     22  C   UNL     1       0.040  -2.768  -0.013  0.00  0.00    -0.043 A 
ATOM     23  C   UNL     1       0.037  -2.084   1.188  0.00  0.00    +0.004 A 
ATOM     24  C   UNL     1       0.023  -0.702   1.195  0.00  0.00    +0.003 A 
ENDBRANCH   1  22
BRANCH  10  25
ATOM     25  C   UNL     1       3.991 -11.405   2.030  0.00  0.00    +0.067 A 
ATOM     26  C   UNL     1       3.396 -12.639   2.262  0.00  0.00    +0.028 A 
ATOM     27  C   UNL     1       4.172 -13.718   2.635  0.00  0.00    +0.002 A 
ATOM     28  C   UNL     1       5.539 -13.572   2.779  0.00  0.00    +0.000 A 
ATOM     29  C   UNL     1       6.135 -12.345   2.549  0.00  0.00    +0.002 A 
ATOM     30  C   UNL     1       5.365 -11.263   2.170  0.00  0.00    +0.028 A 
ENDBRANCH  10  25
BRANCH   5  31
ATOM     31  C   UNL     1      -0.330  -9.006  -0.557  0.00  0.00    -0.033 A 
ATOM     32  C   UNL     1       0.414  -8.715  -1.686  0.00  0.00    +0.005 A 
ATOM     33  C   UNL     1       0.008  -9.186  -2.921  0.00  0.00    +0.003 A 
ATOM     34  C   UNL     1      -1.140  -9.948  -3.027  0.00  0.00    +0.033 A 
ATOM     35  C   UNL     1      -1.883 -10.239  -1.899  0.00  0.00    +0.126 A 
ATOM     36  C   UNL     1      -1.476  -9.772  -0.663  0.00  0.00    +0.037 A 
BRANCH  35  37
ATOM     37  N   UNL     1      -3.114 -11.054  -2.013  0.00  0.00    +0.056 N 
ATOM     38  O   UNL     1      -3.469 -11.466  -3.093  0.00  0.00    -0.126 OA
ATOM     39  O   UNL     1      -3.763 -11.309  -1.026  0.00  0.00    -0.126 OA
ENDBRANCH  35  37
ENDBRANCH   5  31
TORSDOF 4
