REMARK  Name = ZINC31044124
REMARK  9 active torsions:
REMARK  status: ('A' for Active; 'I' for Inactive)
REMARK    1  A    between atoms: C_4  and  C_7
REMARK    2  A    between atoms: C_7  and  C_8
REMARK    3  A    between atoms: C_8  and  C_10
REMARK    4  A    between atoms: C_8  and  N_20
REMARK    5  A    between atoms: C_21  and  C_23
REMARK    6  A    between atoms: C_23  and  C_24
REMARK    7  A    between atoms: C_24  and  C_25
REMARK    8  A    between atoms: C_25  and  C_26
REMARK    9  A    between atoms: C_26  and  C_27
REMARK                            x       y       z     vdW  Elec       q    Type
REMARK                         _______ _______ _______ _____ _____    ______ ____
ROOT
ATOM      1  N   UNL     1      -0.891   5.589  -1.211  0.00  0.00    -0.305 N 
ATOM      2  C   UNL     1      -1.774   6.502  -1.663  0.00  0.00    +0.214 C 
ATOM      3  O   UNL     1      -2.785   6.729  -1.034  0.00  0.00    -0.276 OA
ATOM      4  H   UNL     1       0.027   5.383  -1.781  0.00  0.00    +0.149 HD
ENDROOT
BRANCH   1   5
ATOM      5  C   UNL     1      -1.153   4.872   0.039  0.00  0.00    +0.143 C 
BRANCH   5   6
ATOM      6  C   UNL     1      -0.423   3.554   0.025  0.00  0.00    +0.129 A 
ATOM      7  N   UNL     1      -1.020   2.332   0.019  0.00  0.00    -0.340 N 
ATOM      8  H   UNL     1      -2.118   2.256   0.021  0.00  0.00    +0.167 HD
ATOM      9  C   UNL     1      -0.017   1.384   0.010  0.00  0.00    +0.066 A 
ATOM     10  C   UNL     1       0.002  -0.004   0.002  0.00  0.00    +0.028 A 
ATOM     11  C   UNL     1       1.209  -0.670  -0.013  0.00  0.00    +0.002 A 
ATOM     12  C   UNL     1       2.403   0.037  -0.021  0.00  0.00    +0.002 A 
ATOM     13  C   UNL     1       2.404   1.403  -0.014  0.00  0.00    +0.030 A 
ATOM     14  C   UNL     1       1.192   2.100   0.002  0.00  0.00    +0.089 A 
ATOM     15  N   UNL     1       0.871   3.419   0.012  0.00  0.00    -0.231 NA
ENDBRANCH   5   6
BRANCH   5  16
ATOM     16  C   UNL     1      -0.666   5.713   1.221  0.00  0.00    +0.065 C 
BRANCH  16  20
ATOM     17  C   UNL     1      -2.976   9.297   1.468  0.00  0.00    +0.000 A 
ATOM     18  C   UNL     1      -3.385   8.164   2.145  0.00  0.00    +0.000 A 
ATOM     19  C   UNL     1      -2.637   7.003   2.065  0.00  0.00    +0.004 A 
ATOM     20  C   UNL     1      -1.481   6.977   1.308  0.00  0.00    -0.045 A 
ATOM     21  C   UNL     1      -1.069   8.113   0.636  0.00  0.00    +0.004 A 
ATOM     22  C   UNL     1      -1.819   9.271   0.712  0.00  0.00    +0.000 A 
ENDBRANCH  16  20
ENDBRANCH   5  16
ENDBRANCH   1   5
BRANCH   2  23
ATOM     23  C   UNL     1      -1.504   7.239  -2.949  0.00  0.00    +0.096 C 
BRANCH  23  24
ATOM     24  C   UNL     1      -2.653   8.209  -3.231  0.00  0.00    +0.009 C 
BRANCH  24  25
ATOM     25  C   UNL     1      -2.379   8.958  -4.537  0.00  0.00    +0.002 C 
BRANCH  25  26
ATOM     26  C   UNL     1      -3.528   9.928  -4.819  0.00  0.00    +0.016 C 
BRANCH  26  27
ATOM     27  C   UNL     1      -3.254  10.677  -6.125  0.00  0.00    +0.069 C 
ATOM     28  C   UNL     1      -4.449  11.575  -6.510  0.00  0.00    +0.108 C 
ATOM     29  C   UNL     1      -4.037  12.934  -7.085  0.00  0.00    +0.105 C 
ATOM     30  C   UNL     1      -2.509  13.136  -7.165  0.00  0.00    +0.093 C 
ATOM     31  S   UNL     1      -1.914  11.927  -5.903  0.00  0.00    -0.154 S 
ATOM     32  N   UNL     1      -4.602  13.908  -6.137  0.00  0.00    -0.294 N 
ATOM     33  C   UNL     1      -5.242  13.248  -5.162  0.00  0.00    +0.300 C 
ATOM     34  O   UNL     1      -5.805  13.808  -4.242  0.00  0.00    -0.253 OA
ATOM     35  N   UNL     1      -5.206  11.915  -5.295  0.00  0.00    -0.294 N 
ATOM     36  H   UNL     1      -4.457  14.986  -6.305  0.00  0.00    +0.151 HD
ATOM     37  H   UNL     1      -5.630  11.116  -4.670  0.00  0.00    +0.151 HD
ENDBRANCH  26  27
ENDBRANCH  25  26
ENDBRANCH  24  25
ENDBRANCH  23  24
ENDBRANCH   2  23
TORSDOF 9
