REMARK  Name = ZINC15969535
REMARK  6 active torsions:
REMARK  status: ('A' for Active; 'I' for Inactive)
REMARK    1  A    between atoms: C_1  and  C_2
REMARK    2  A    between atoms: C_16  and  C_19
REMARK    3  A    between atoms: C_19  and  C_20
REMARK    4  A    between atoms: N_28  and  C_31
REMARK    5  A    between atoms: C_31  and  C_32
REMARK    6  A    between atoms: C_32  and  C_33
REMARK                            x       y       z     vdW  Elec       q    Type
REMARK                         _______ _______ _______ _____ _____    ______ ____
ROOT
ATOM      1  C   UNL     1      -0.018   1.503   0.010  0.00  0.00    +0.045 C 
ATOM      2  C   UNL     1       0.002  -0.004   0.002  0.00  0.00    -0.029 A 
ATOM      3  C   UNL     1       0.006  -0.685  -1.198  0.00  0.00    +0.005 A 
ATOM      4  C   UNL     1       0.025  -2.067  -1.216  0.00  0.00    +0.001 A 
ATOM      5  C   UNL     1       0.040  -2.772  -0.025  0.00  0.00    +0.008 A 
ATOM      6  C   UNL     1       0.036  -2.096   1.175  0.00  0.00    +0.004 A 
ATOM      7  C   UNL     1       0.023  -0.705   1.205  0.00  0.00    +0.042 A 
ATOM      8  N   UNL     1       0.030  -0.250   2.526  0.00  0.00    -0.283 N 
ATOM      9  C   UNL     1       0.051  -1.265   3.412  0.00  0.00    +0.243 C 
ATOM     10  O   UNL     1       0.062  -1.170   4.621  0.00  0.00    -0.273 OA
ATOM     11  C   UNL     1       0.046  -2.538   2.611  0.00  0.00    +0.136 C 
ATOM     12  C   UNL     1       1.278  -3.393   2.930  0.00  0.00    +0.122 C 
ATOM     13  C   UNL     1       0.768  -4.859   2.856  0.00  0.00    +0.107 C 
ATOM     14  C   UNL     1      -0.727  -4.739   2.492  0.00  0.00    +0.072 C 
ATOM     15  N   UNL     1      -1.123  -3.380   2.925  0.00  0.00    -0.295 NA
ATOM     16  C   UNL     1       1.534  -5.436   1.687  0.00  0.00    +0.227 C 
ATOM     17  O   UNL     1       1.438  -6.574   1.280  0.00  0.00    -0.275 OA
ATOM     18  N   UNL     1       2.333  -4.495   1.171  0.00  0.00    -0.241 N 
ATOM     19  C   UNL     1       2.275  -3.298   1.798  0.00  0.00    +0.228 C 
ATOM     20  O   UNL     1       2.911  -2.308   1.505  0.00  0.00    -0.275 OA
ATOM     21  H   UNL     1       0.021   0.687   2.776  0.00  0.00    +0.155 HD
ATOM     22  H   UNL     1      -1.321  -3.370   3.914  0.00  0.00    +0.124 HD
ENDROOT
BRANCH  14  23
ATOM     23  C   UNL     1      -1.541  -5.809   3.224  0.00  0.00    +0.054 C 
BRANCH  23  24
ATOM     24  C   UNL     1      -2.974  -5.754   2.762  0.00  0.00    -0.046 A 
ATOM     25  C   UNL     1      -3.880  -4.940   3.415  0.00  0.00    +0.004 A 
ATOM     26  C   UNL     1      -5.195  -4.889   2.991  0.00  0.00    +0.000 A 
ATOM     27  C   UNL     1      -5.604  -5.652   1.914  0.00  0.00    +0.000 A 
ATOM     28  C   UNL     1      -4.697  -6.465   1.259  0.00  0.00    +0.000 A 
ATOM     29  C   UNL     1      -3.381  -6.513   1.681  0.00  0.00    +0.004 A 
ENDBRANCH  23  24
ENDBRANCH  14  23
BRANCH  18  30
ATOM     30  C   UNL     1       3.208  -4.741   0.022  0.00  0.00    +0.121 C 
BRANCH  30  31
ATOM     31  C   UNL     1       2.456  -4.418  -1.270  0.00  0.00    +0.054 C 
BRANCH  31  32
ATOM     32  C   UNL     1       3.356  -4.672  -2.452  0.00  0.00    -0.046 A 
ATOM     33  C   UNL     1       4.164  -3.659  -2.935  0.00  0.00    +0.004 A 
ATOM     34  C   UNL     1       4.990  -3.892  -4.019  0.00  0.00    +0.000 A 
ATOM     35  C   UNL     1       5.008  -5.137  -4.620  0.00  0.00    +0.000 A 
ATOM     36  C   UNL     1       4.201  -6.149  -4.136  0.00  0.00    +0.000 A 
ATOM     37  C   UNL     1       3.378  -5.918  -3.049  0.00  0.00    +0.004 A 
ENDBRANCH  31  32
ENDBRANCH  30  31
ENDBRANCH  18  30
TORSDOF 5
