REMARK  Name = ZINC35668233
REMARK  7 active torsions:
REMARK  status: ('A' for Active; 'I' for Inactive)
REMARK    1  A    between atoms: C_1  and  C_2
REMARK    2  A    between atoms: C_5  and  C_8
REMARK    3  A    between atoms: C_12  and  C_23
REMARK    4  A    between atoms: C_14  and  C_17
REMARK    5  A    between atoms: N_19  and  C_20
REMARK    6  A    between atoms: C_20  and  C_21
REMARK    7  A    between atoms: C_20  and  C_22
REMARK                            x       y       z     vdW  Elec       q    Type
REMARK                         _______ _______ _______ _____ _____    ______ ____
ROOT
ATOM      1  C   UNL     1       0.132  -5.981  -0.001  0.00  0.00    +0.247 C 
ATOM      2  O   UNL     1       0.110  -7.005  -0.655  0.00  0.00    -0.270 OA
ATOM      3  N   UNL     1       0.387  -6.030   1.321  0.00  0.00    -0.296 N 
ATOM      4  C   UNL     1       0.770  -7.236   2.078  0.00  0.00    +0.117 C 
ATOM      5  C   UNL     1       1.529  -6.702   3.318  0.00  0.00    +0.050 C 
ATOM      6  C   UNL     1       0.725  -5.416   3.645  0.00  0.00    +0.101 C 
ATOM      7  C   UNL     1       0.336  -4.889   2.247  0.00  0.00    +0.121 C 
ENDROOT
BRANCH   1  12
ATOM      8  C   UNL     1      -0.856  -0.918  -2.553  0.00  0.00    +0.044 C 
ATOM      9  C   UNL     1      -0.597  -2.244  -1.885  0.00  0.00    -0.050 A 
ATOM     10  C   UNL     1      -0.452  -3.385  -2.652  0.00  0.00    +0.004 A 
ATOM     11  C   UNL     1      -0.215  -4.602  -2.047  0.00  0.00    +0.013 A 
ATOM     12  C   UNL     1      -0.121  -4.680  -0.657  0.00  0.00    +0.037 A 
ATOM     13  C   UNL     1      -0.269  -3.524   0.112  0.00  0.00    +0.013 A 
ATOM     14  C   UNL     1      -0.499  -2.313  -0.506  0.00  0.00    +0.004 A 
ENDBRANCH   1  12
BRANCH   5  15
ATOM     15  C   UNL     1       1.461  -7.686   4.458  0.00  0.00    -0.042 A 
ATOM     16  C   UNL     1       1.195  -9.019   4.205  0.00  0.00    +0.004 A 
ATOM     17  C   UNL     1       1.133  -9.922   5.250  0.00  0.00    +0.000 A 
ATOM     18  C   UNL     1       1.337  -9.492   6.548  0.00  0.00    +0.000 A 
ATOM     19  C   UNL     1       1.605  -8.159   6.801  0.00  0.00    +0.000 A 
ATOM     20  C   UNL     1       1.671  -7.257   5.755  0.00  0.00    +0.004 A 
ENDBRANCH   5  15
BRANCH   6  21
ATOM     21  C   UNL     1      -0.500  -5.745   4.460  0.00  0.00    +0.218 C 
ATOM     22  O   UNL     1      -1.141  -6.745   4.214  0.00  0.00    -0.275 OA
ATOM     23  N   UNL     1      -0.882  -4.928   5.461  0.00  0.00    -0.313 N 
ATOM     24  H   UNL     1      -0.369  -4.128   5.658  0.00  0.00    +0.149 HD
BRANCH  23  25
ATOM     25  C   UNL     1      -2.072  -5.248   6.253  0.00  0.00    +0.067 C 
ATOM     26  C   UNL     1      -1.957  -4.597   7.633  0.00  0.00    +0.027 C 
ATOM     27  C   UNL     1      -3.317  -4.715   5.541  0.00  0.00    +0.027 C 
ENDBRANCH  23  25
ENDBRANCH   6  21
TORSDOF 4
