REMARK  Name = ZINC08901367
REMARK  8 active torsions:
REMARK  status: ('A' for Active; 'I' for Inactive)
REMARK    1  A    between atoms: C_1  and  C_2
REMARK    2  A    between atoms: C_2  and  C_3
REMARK    3  A    between atoms: C_2  and  C_4
REMARK    4  A    between atoms: C_2  and  C_5
REMARK    5  A    between atoms: C_12  and  N_17
REMARK    6  A    between atoms: C_13  and  C_14
REMARK    7  A    between atoms: C_18  and  C_20
REMARK    8  A    between atoms: C_23  and  C_25
REMARK                            x       y       z     vdW  Elec       q    Type
REMARK                         _______ _______ _______ _____ _____    ______ ____
ROOT
ATOM      1  C   UNL     1      -0.735   2.019   1.269  0.00  0.00    -0.000 C 
ATOM      2  C   UNL     1      -0.751   3.550   1.284  0.00  0.00    +0.009 C 
ATOM      3  C   UNL     1      -1.668   4.051   2.400  0.00  0.00    +0.037 C 
ATOM      4  C   UNL     1      -1.266   3.377   3.707  0.00  0.00    -0.023 A 
ATOM      5  C   UNL     1      -0.519   2.252   3.708  0.00  0.00    -0.004 A 
ATOM      6  S   UNL     1      -0.310   1.850   5.420  0.00  0.00    -0.077 S 
ATOM      7  C   UNL     1      -1.202   3.156   6.125  0.00  0.00    +0.085 A 
ATOM      8  C   UNL     1      -1.641   3.873   5.020  0.00  0.00    +0.068 A 
ATOM      9  C   UNL     1       0.010   1.518   2.515  0.00  0.00    +0.046 C 
ENDROOT
BRANCH   8  10
ATOM     10  C   UNL     1      -2.451   5.085   5.173  0.00  0.00    +0.244 C 
ATOM     11  O   UNL     1      -1.910   6.171   5.266  0.00  0.00    -0.270 OA
ATOM     12  N   UNL     1      -3.796   4.997   5.210  0.00  0.00    -0.325 N 
ATOM     13  H   UNL     1      -4.227   4.131   5.135  0.00  0.00    +0.145 HD
ATOM     14  H   UNL     1      -4.332   5.799   5.310  0.00  0.00    +0.145 HD
ENDBRANCH   8  10
BRANCH   1  16
ATOM     15  C   UNL     1       0.002  -0.004   0.002  0.00  0.00    +0.011 C 
ATOM     16  C   UNL     1      -0.019   1.526   0.010  0.00  0.00    -0.035 C 
ATOM     17  C   UNL     1       1.417   2.055  -0.000  0.00  0.00    +0.011 C 
ATOM     18  C   UNL     1      -0.759   2.033  -1.229  0.00  0.00    +0.011 C 
ENDBRANCH   1  16
BRANCH   7  19
ATOM     19  N   UNL     1      -1.425   3.421   7.466  0.00  0.00    -0.273 N 
ATOM     20  C   UNL     1      -0.914   2.604   8.409  0.00  0.00    +0.284 C 
ATOM     21  O   UNL     1      -0.257   1.633   8.081  0.00  0.00    -0.266 OA
ATOM     22  H   UNL     1      -1.948   4.195   7.728  0.00  0.00    +0.156 HD
BRANCH  20  23
ATOM     23  C   UNL     1      -1.149   2.884   9.826  0.00  0.00    +0.190 A 
ATOM     24  C   UNL     1      -0.692   2.131  10.887  0.00  0.00    +0.055 A 
ATOM     25  C   UNL     1      -1.143   2.759  12.052  0.00  0.00    +0.050 A 
ATOM     26  C   UNL     1      -1.860   3.855  11.665  0.00  0.00    +0.136 A 
ATOM     27  O   UNL     1      -1.857   3.920  10.323  0.00  0.00    -0.450 OA
BRANCH  26  28
ATOM     28  C   UNL     1      -2.527   4.811  12.572  0.00  0.00    +0.017 A 
ATOM     29  C   UNL     1      -2.460   4.630  13.955  0.00  0.00    +0.012 A 
ATOM     30  C   UNL     1      -3.081   5.529  14.796  0.00  0.00    +0.016 A 
ATOM     31  C   UNL     1      -3.778   6.604  14.272  0.00  0.00    +0.018 A 
ATOM     32  C   UNL     1      -3.853   6.787  12.901  0.00  0.00    +0.016 A 
ATOM     33  C   UNL     1      -3.232   5.898  12.049  0.00  0.00    +0.012 A 
ATOM     34 BR   UNL     1      -4.633   7.828  15.433  0.00  0.00    -0.050 Br
ENDBRANCH  26  28
ENDBRANCH  20  23
ENDBRANCH   7  19
TORSDOF 5
