REMARK  Name = ZINC58991170
REMARK  9 active torsions:
REMARK  status: ('A' for Active; 'I' for Inactive)
REMARK    1  A    between atoms: C_1  and  C_2
REMARK    2  A    between atoms: C_2  and  C_24
REMARK    3  A    between atoms: N_3  and  N_4
REMARK    4  A    between atoms: C_5  and  C_7
REMARK    5  A    between atoms: C_7  and  S_8
REMARK    6  A    between atoms: S_8  and  C_9
REMARK    7  A    between atoms: C_12  and  C_15
REMARK    8  A    between atoms: N_13  and  N_14
REMARK    9  A    between atoms: C_19  and  N_21
REMARK                            x       y       z     vdW  Elec       q    Type
REMARK                         _______ _______ _______ _____ _____    ______ ____
ROOT
ATOM      1  C   UNL     1       0.075  -0.070   7.625  0.00  0.00    +0.209 A 
ATOM      2  N   UNL     1       0.052   1.244   7.653  0.00  0.00    -0.121 NA
ATOM      3  N   UNL     1       0.059   1.659   8.869  0.00  0.00    -0.127 NA
ATOM      4  C   UNL     1       0.087   0.637   9.691  0.00  0.00    +0.182 A 
ATOM      5  N   UNL     1       0.093  -0.502   8.920  0.00  0.00    -0.224 N 
ENDROOT
BRANCH   4   6
ATOM      6  C   UNL     1       0.104   0.698  11.169  0.00  0.00    +0.023 A 
ATOM      7  C   UNL     1       0.452  -0.431  11.913  0.00  0.00    +0.012 A 
ATOM      8  C   UNL     1       0.465  -0.367  13.291  0.00  0.00    +0.003 A 
ATOM      9  C   UNL     1       0.134   0.811  13.935  0.00  0.00    +0.033 A 
ATOM     10  C   UNL     1      -0.211   1.933  13.204  0.00  0.00    +0.127 A 
ATOM     11  C   UNL     1      -0.223   1.885  11.825  0.00  0.00    +0.044 A 
BRANCH  10  12
ATOM     12  N   UNL     1      -0.564   3.190  13.902  0.00  0.00    +0.056 N 
ATOM     13  O   UNL     1      -0.550   3.235  15.110  0.00  0.00    -0.126 OA
ATOM     14  O   UNL     1      -0.867   4.172  13.264  0.00  0.00    -0.126 OA
ENDBRANCH  10  12
ENDBRANCH   4   6
BRANCH   5  15
ATOM     15  N   UNL     1       0.116  -1.796   9.358  0.00  0.00    -0.295 N 
ATOM     16  H   UNL     1       1.063  -2.125   9.466  0.00  0.00    +0.163 HD
ATOM     17  H   UNL     1      -0.401  -1.895  10.219  0.00  0.00    +0.163 HD
ENDBRANCH   5  15
BRANCH   1  18
ATOM     18  S   UNL     1       0.075  -1.085   6.184  0.00  0.00    -0.075 S 
BRANCH  18  19
ATOM     19  C   UNL     1       0.046   0.101   4.812  0.00  0.00    +0.174 C 
BRANCH  19  21
ATOM     20  N   UNL     1       0.024   0.035   2.339  0.00  0.00    -0.206 N 
ATOM     21  C   UNL     1       0.044  -0.645   3.503  0.00  0.00    +0.242 C 
ATOM     22  O   UNL     1       0.060  -1.858   3.496  0.00  0.00    -0.273 OA
ATOM     23  H   UNL     1       0.011   1.005   2.345  0.00  0.00    +0.177 HD
BRANCH  20  26
ATOM     24  C   UNL     1      -0.018   1.503   0.010  0.00  0.00    +0.068 C 
ATOM     25  C   UNL     1       0.002  -0.004   0.002  0.00  0.00    +0.063 C 
ATOM     26  N   UNL     1       0.022  -0.659   1.122  0.00  0.00    -0.185 NA
BRANCH  25  27
ATOM     27  C   UNL     1      -0.000  -0.734  -1.279  0.00  0.00    -0.002 A 
ATOM     28  C   UNL     1      -0.015  -0.032  -2.487  0.00  0.00    +0.012 A 
ATOM     29  C   UNL     1      -0.017  -0.721  -3.681  0.00  0.00    +0.039 A 
ATOM     30  C   UNL     1      -0.003  -2.107  -3.686  0.00  0.00    +0.123 A 
ATOM     31  C   UNL     1       0.012  -2.809  -2.491  0.00  0.00    +0.039 A 
ATOM     32  C   UNL     1       0.019  -2.131  -1.290  0.00  0.00    +0.012 A 
ATOM     33  F   UNL     1      -0.005  -2.776  -4.859  0.00  0.00    -0.205 F 
ENDBRANCH  25  27
ENDBRANCH  20  26
ENDBRANCH  19  21
ENDBRANCH  18  19
ENDBRANCH   1  18
TORSDOF 8
