REMARK  Name = ZINC15746743
REMARK  4 active torsions:
REMARK  status: ('A' for Active; 'I' for Inactive)
REMARK    1  A    between atoms: C_3  and  N_9
REMARK    2  A    between atoms: C_10  and  C_12
REMARK    3  A    between atoms: C_12  and  C_13
REMARK    4  A    between atoms: N_18  and  N_19
REMARK                            x       y       z     vdW  Elec       q    Type
REMARK                         _______ _______ _______ _____ _____    ______ ____
ROOT
ATOM      1  C   UNL     1       4.562   5.733  -0.329  0.00  0.00    +0.149 C 
ATOM      2  C   UNL     1       5.841   6.541  -0.483  0.00  0.00    +0.233 C 
ATOM      3  N   UNL     1       6.104   7.393   0.493  0.00  0.00    -0.263 N 
ATOM      4  C   UNL     1       5.276   7.547   1.585  0.00  0.00    +0.183 C 
ATOM      5  N   UNL     1       5.427   8.355   2.611  0.00  0.00    -0.127 NA
ATOM      6  S   UNL     1       3.948   6.390   1.277  0.00  0.00    -0.075 S 
ATOM      7  O   UNL     1       6.574   6.412  -1.440  0.00  0.00    -0.274 OA
ATOM      8  H   UNL     1       6.909   7.931   0.438  0.00  0.00    +0.157 HD
ENDROOT
BRANCH   5   9
ATOM      9  N   UNL     1       4.472   8.372   3.636  0.00  0.00    -0.156 NA
ATOM     10  C   UNL     1       4.621   9.167   4.645  0.00  0.00    +0.041 C 
ATOM     11  C   UNL     1       5.818  10.086   4.726  0.00  0.00    +0.053 C 
ATOM     12  C   UNL     1       5.698  11.155   3.651  0.00  0.00    +0.006 C 
ATOM     13  C   UNL     1       4.594  12.153   4.051  0.00  0.00    +0.000 C 
ATOM     14  C   UNL     1       3.229  11.540   3.759  0.00  0.00    +0.000 C 
ATOM     15  C   UNL     1       2.444  11.292   5.061  0.00  0.00    +0.000 C 
ATOM     16  C   UNL     1       3.349  10.658   6.115  0.00  0.00    +0.006 C 
ATOM     17  C   UNL     1       3.607   9.193   5.744  0.00  0.00    +0.053 C 
ENDBRANCH   5   9
BRANCH   1  18
ATOM     18  C   UNL     1       4.861   4.235  -0.238  0.00  0.00    +0.120 C 
BRANCH  18  20
ATOM     19  N   UNL     1       3.584   2.127  -0.021  0.00  0.00    -0.284 N 
ATOM     20  C   UNL     1       3.567   3.472  -0.116  0.00  0.00    +0.219 C 
ATOM     21  O   UNL     1       2.510   4.067  -0.103  0.00  0.00    -0.275 OA
ATOM     22  H   UNL     1       4.429   1.657   0.049  0.00  0.00    +0.155 HD
BRANCH  19  25
ATOM     23  C   UNL     1       0.065   1.242  -0.621  0.00  0.00    +0.003 A 
ATOM     24  C   UNL     1       1.250   1.952  -0.618  0.00  0.00    +0.025 A 
ATOM     25  C   UNL     1       2.382   1.410  -0.024  0.00  0.00    +0.053 A 
ATOM     26  C   UNL     1       2.319   0.154   0.567  0.00  0.00    +0.080 A 
ATOM     27  C   UNL     1       1.129  -0.551   0.562  0.00  0.00    +0.061 A 
ATOM     28  C   UNL     1       0.004  -0.007  -0.032  0.00  0.00    +0.021 A 
ATOM     29 CL   UNL     1       1.048  -2.120   1.300  0.00  0.00    -0.082 Cl
ATOM     30 CL   UNL     1       3.731  -0.528   1.311  0.00  0.00    -0.080 Cl
ENDBRANCH  19  25
ENDBRANCH  18  20
ENDBRANCH   1  18
TORSDOF 4
