REMARK  Name = ZINC11913533
REMARK  11 active torsions:
REMARK  status: ('A' for Active; 'I' for Inactive)
REMARK    1  A    between atoms: C_1  and  C_2
REMARK    2  A    between atoms: C_7  and  C_8
REMARK    3  A    between atoms: C_8  and  C_19
REMARK    4  A    between atoms: N_12  and  C_15
REMARK    5  A    between atoms: C_15  and  C_16
REMARK    6  A    between atoms: C_16  and  N_71
REMARK    7  A    between atoms: C_17  and  N_71
REMARK    8  A    between atoms: C_18  and  N_71
REMARK    9  A    between atoms: C_19  and  C_20
REMARK   10  A    between atoms: N_25  and  C_28
REMARK   11  A    between atoms: C_33  and  C_34
REMARK                            x       y       z     vdW  Elec       q    Type
REMARK                         _______ _______ _______ _____ _____    ______ ____
ROOT
ATOM      1  C   UNL     1       1.333   1.716   0.017  0.00  0.00    +0.089 C 
ATOM      2  C   UNL     1      -0.171   1.563  -0.290  0.00  0.00    +0.117 C 
ATOM      3  C   UNL     1      -0.363   0.065  -0.382  0.00  0.00    +0.223 C 
ATOM      4  O   UNL     1      -1.413  -0.495  -0.613  0.00  0.00    -0.275 OA
ATOM      5  N   UNL     1       0.810  -0.544  -0.168  0.00  0.00    -0.243 N 
ATOM      6  C   UNL     1       1.832   0.288   0.066  0.00  0.00    +0.233 C 
ATOM      7  O   UNL     1       2.976  -0.049   0.283  0.00  0.00    -0.274 OA
ENDROOT
BRANCH   1  14
ATOM      8  C   UNL     1       0.497   0.404   2.452  0.00  0.00    +0.044 C 
ATOM      9  C   UNL     1       1.137   1.768   2.511  0.00  0.00    -0.046 A 
ATOM     10  C   UNL     1       1.328   2.389   3.732  0.00  0.00    +0.003 A 
ATOM     11  C   UNL     1       1.909   3.641   3.786  0.00  0.00    +0.000 A 
ATOM     12  C   UNL     1       2.304   4.271   2.621  0.00  0.00    +0.000 A 
ATOM     13  C   UNL     1       2.118   3.648   1.401  0.00  0.00    +0.005 A 
ATOM     14  C   UNL     1       1.536   2.395   1.347  0.00  0.00    -0.029 A 
ENDBRANCH   1  14
BRANCH   5  15
ATOM     15  C   UNL     1       0.962  -2.001  -0.189  0.00  0.00    +0.098 C 
BRANCH  15  16
ATOM     16  C   UNL     1       1.298  -2.458  -1.610  0.00  0.00    -0.060 C 
BRANCH  16  19
ATOM     17  C   UNL     1       0.175  -4.586  -1.342  0.00  0.00    -0.097 C 
ATOM     18  C   UNL     1       2.003  -4.372  -2.915  0.00  0.00    -0.097 C 
ATOM     19  N   UNL     1       1.470  -3.926  -1.611  0.00  0.00    +0.377 N 
ATOM     20  H   UNL     1       2.135  -4.184  -0.873  0.00  0.00    -0.083 HD
ENDBRANCH  16  19
ENDBRANCH  15  16
ENDBRANCH   5  15
BRANCH   1  21
ATOM     21  C   UNL     1       2.034   2.493  -1.099  0.00  0.00    +0.117 C 
BRANCH  21  22
ATOM     22  C   UNL     1       1.860   1.763  -2.406  0.00  0.00    +0.217 C 
ATOM     23  O   UNL     1       1.236   0.723  -2.441  0.00  0.00    -0.276 OA
ATOM     24  N   UNL     1       2.397   2.265  -3.535  0.00  0.00    -0.298 N 
ATOM     25  C   UNL     1       3.151   3.527  -3.516  0.00  0.00    +0.126 C 
ATOM     26  C   UNL     1       4.503   3.292  -4.209  0.00  0.00    +0.124 C 
ATOM     27  N   UNL     1       4.271   2.728  -5.545  0.00  0.00    -0.327 N 
ATOM     28  C   UNL     1       3.622   1.413  -5.463  0.00  0.00    +0.124 C 
ATOM     29  C   UNL     1       2.239   1.568  -4.821  0.00  0.00    +0.126 C 
BRANCH  27  30
ATOM     30  C   UNL     1       5.462   2.654  -6.271  0.00  0.00    +0.033 A 
ATOM     31  C   UNL     1       6.524   1.898  -5.792  0.00  0.00    +0.023 A 
ATOM     32  C   UNL     1       7.699   1.827  -6.512  0.00  0.00    +0.002 A 
ATOM     33  C   UNL     1       7.820   2.507  -7.711  0.00  0.00    +0.000 A 
ATOM     34  C   UNL     1       6.765   3.260  -8.191  0.00  0.00    +0.005 A 
ATOM     35  C   UNL     1       5.584   3.332  -7.478  0.00  0.00    -0.029 A 
ATOM     36  C   UNL     1       4.433   4.148  -8.005  0.00  0.00    +0.045 C 
ENDBRANCH  27  30
ENDBRANCH  21  22
ENDBRANCH   1  21
TORSDOF 7
