REMARK  Name = ZINC64868707
REMARK  5 active torsions:
REMARK  status: ('A' for Active; 'I' for Inactive)
REMARK    1  A    between atoms: C_8  and  C_23
REMARK    2  A    between atoms: N_12  and  C_13
REMARK    3  A    between atoms: C_13  and  C_14
REMARK    4  A    between atoms: N_16  and  C_17
REMARK    5  A    between atoms: C_17  and  C_18
REMARK                            x       y       z     vdW  Elec       q    Type
REMARK                         _______ _______ _______ _____ _____    ______ ____
ROOT
ATOM      1  C   UNL     1       0.040   1.317  -0.841  0.00  0.00    +0.002 A 
ATOM      2  C   UNL     1       1.220   2.033  -0.782  0.00  0.00    +0.002 A 
ATOM      3  C   UNL     1       2.414   1.387  -0.510  0.00  0.00    +0.025 A 
ATOM      4  C   UNL     1       2.426   0.019  -0.296  0.00  0.00    +0.058 A 
ATOM      5  C   UNL     1       1.235  -0.703  -0.355  0.00  0.00    +0.053 A 
ATOM      6  C   UNL     1       0.044  -0.051  -0.628  0.00  0.00    +0.025 A 
ATOM      7  N   UNL     1       1.041  -2.081  -0.169  0.00  0.00    -0.312 N 
ATOM      8  C   UNL     1       1.991  -3.045   0.117  0.00  0.00    +0.050 C 
ATOM      9  C   UNL     1       3.351  -2.888   0.289  0.00  0.00    +0.092 C 
ATOM     10  C   UNL     1       4.120  -1.716   0.218  0.00  0.00    +0.246 C 
ATOM     11  O   UNL     1       5.315  -1.860   0.413  0.00  0.00    -0.270 OA
ATOM     12  N   UNL     1       3.722  -0.454  -0.036  0.00  0.00    -0.257 N 
ATOM     13  H   UNL     1       0.128  -2.397  -0.252  0.00  0.00    +0.152 HD
ENDROOT
BRANCH   8  14
ATOM     14  C   UNL     1       1.487  -4.412   0.257  0.00  0.00    +0.035 A 
ATOM     15  C   UNL     1       2.185  -5.577   0.544  0.00  0.00    +0.018 A 
ATOM     16  C   UNL     1       1.430  -6.724   0.611  0.00  0.00    +0.023 A 
ATOM     17  C   UNL     1       0.092  -6.645   0.400  0.00  0.00    +0.056 A 
ATOM     18  S   UNL     1      -0.185  -5.014   0.110  0.00  0.00    -0.080 S 
ATOM     19 BR   UNL     1      -1.173  -8.051   0.431  0.00  0.00    -0.043 Br
ENDBRANCH   8  14
BRANCH  12  20
ATOM     20  C   UNL     1       4.781   0.558  -0.041  0.00  0.00    +0.209 C 
BRANCH  20  21
ATOM     21  C   UNL     1       5.216   0.823  -1.460  0.00  0.00    +0.231 C 
ATOM     22  O   UNL     1       4.693   0.225  -2.376  0.00  0.00    -0.274 OA
ATOM     23  N   UNL     1       6.186   1.724  -1.710  0.00  0.00    -0.307 N 
ATOM     24  H   UNL     1       6.604   2.203  -0.977  0.00  0.00    +0.149 HD
BRANCH  23  25
ATOM     25  C   UNL     1       6.609   1.981  -3.089  0.00  0.00    +0.178 C 
BRANCH  25  26
ATOM     26  C   UNL     1       7.698   3.023  -3.094  0.00  0.00    +0.122 A 
ATOM     27  C   UNL     1       9.019   2.780  -3.018  0.00  0.00    +0.046 A 
ATOM     28  C   UNL     1       9.669   4.035  -3.056  0.00  0.00    +0.041 A 
ATOM     29  C   UNL     1       8.707   4.970  -3.153  0.00  0.00    +0.195 A 
ATOM     30  O   UNL     1       7.515   4.350  -3.181  0.00  0.00    -0.466 OA
ENDBRANCH  25  26
ENDBRANCH  23  25
ENDBRANCH  20  21
ENDBRANCH  12  20
TORSDOF 5
