REMARK  Name = ZINC43227045
REMARK  14 active torsions:
REMARK  status: ('A' for Active; 'I' for Inactive)
REMARK    1  A    between atoms: C_1  and  C_2
REMARK    2  A    between atoms: C_2  and  C_3
REMARK    3  A    between atoms: C_3  and  C_4
REMARK    4  A    between atoms: C_4  and  C_5
REMARK    5  A    between atoms: C_5  and  C_7
REMARK    6  A    between atoms: C_5  and  N_36
REMARK    7  A    between atoms: C_9  and  C_12
REMARK    8  A    between atoms: N_14  and  C_15
REMARK    9  A    between atoms: C_15  and  C_16
REMARK   10  A    between atoms: C_16  and  C_35
REMARK   11  A    between atoms: C_20  and  C_34
REMARK   12  A    between atoms: C_29  and  C_31
REMARK   13  A    between atoms: C_31  and  C_32
REMARK   14  A    between atoms: C_31  and  C_33
REMARK                            x       y       z     vdW  Elec       q    Type
REMARK                         _______ _______ _______ _____ _____    ______ ____
ROOT
ATOM      1  C   UNL     1      -1.763  -7.365  -5.883  0.00  0.00    +0.111 C 
ENDROOT
BRANCH   1   2
ATOM      2  C   UNL     1      -2.644  -6.530  -6.815  0.00  0.00    -0.013 C 
ATOM      3  C   UNL     1      -3.624  -5.704  -5.980  0.00  0.00    +0.008 C 
ATOM      4  C   UNL     1      -4.509  -6.652  -5.166  0.00  0.00    +0.001 C 
ATOM      5  C   UNL     1      -5.304  -7.542  -6.122  0.00  0.00    +0.011 C 
ATOM      6  C   UNL     1      -4.345  -8.376  -6.977  0.00  0.00    -0.003 C 
ATOM      7  C   UNL     1      -3.407  -7.457  -7.753  0.00  0.00    +0.007 C 
ATOM      8  C   UNL     1      -4.234  -6.649  -8.755  0.00  0.00    +0.009 C 
ATOM      9  C   UNL     1      -4.713  -7.597  -9.854  0.00  0.00    +0.036 C 
ATOM     10  C   UNL     1      -5.332  -8.835  -9.260  0.00  0.00    -0.043 A 
ATOM     11  C   UNL     1      -5.162  -9.199  -7.944  0.00  0.00    -0.038 A 
ATOM     12  C   UNL     1      -5.754 -10.359  -7.465  0.00  0.00    +0.005 A 
ATOM     13  C   UNL     1      -6.517 -11.151  -8.299  0.00  0.00    +0.004 A 
ATOM     14  C   UNL     1      -6.693 -10.785  -9.620  0.00  0.00    -0.045 A 
ATOM     15  C   UNL     1      -6.103  -9.633 -10.097  0.00  0.00    +0.007 A 
ATOM     16  C   UNL     1      -3.530  -9.305  -6.074  0.00  0.00    +0.016 C 
ATOM     17  C   UNL     1      -1.763  -5.588  -7.637  0.00  0.00    +0.013 C 
BRANCH  14  18
ATOM     18  C   UNL     1      -7.527 -11.642 -10.537  0.00  0.00    +0.013 C 
ATOM     19  C   UNL     1      -6.917 -13.042 -10.621  0.00  0.00    +0.012 C 
ATOM     20  C   UNL     1      -8.952 -11.739  -9.988  0.00  0.00    +0.012 C 
ENDBRANCH  14  18
ENDBRANCH   1   2
BRANCH   1  23
ATOM     21  C   UNL     1      -0.039  -6.994  -4.202  0.00  0.00    +0.263 C 
ATOM     22  O   UNL     1       0.030  -8.198  -4.049  0.00  0.00    -0.269 OA
ATOM     23  N   UNL     1      -0.905  -6.476  -5.096  0.00  0.00    -0.310 N 
ATOM     24  H   UNL     1      -0.960  -5.516  -5.218  0.00  0.00    +0.149 HD
BRANCH  21  27
ATOM     25  C   UNL     1       1.577  -4.046  -2.810  0.00  0.00    +0.065 A 
ATOM     26  N   UNL     1       0.781  -4.771  -3.548  0.00  0.00    -0.241 NA
ATOM     27  C   UNL     1       0.824  -6.100  -3.411  0.00  0.00    +0.133 A 
ATOM     28  C   UNL     1       1.717  -6.582  -2.492  0.00  0.00    +0.079 A 
ATOM     29  S   UNL     1       2.422  -5.176  -1.902  0.00  0.00    -0.081 S 
BRANCH  25  30
ATOM     30  C   UNL     1       1.710  -2.545  -2.785  0.00  0.00    -0.018 C 
BRANCH  30  31
ATOM     31  N   UNL     1       3.133  -2.180  -2.788  0.00  0.00    +0.384 N 
ATOM     32  H   UNL     1       3.571  -2.542  -3.622  0.00  0.00    -0.089 HD
ATOM     33  H   UNL     1       3.222  -1.175  -2.772  0.00  0.00    -0.089 HD
ATOM     34  H   UNL     1       3.583  -2.571  -1.974  0.00  0.00    -0.089 HD
ENDBRANCH  30  31
BRANCH  30  35
ATOM     35  C   UNL     1       1.045  -1.995  -1.522  0.00  0.00    -0.010 C 
BRANCH  35  36
ATOM     36  C   UNL     1       1.071  -0.466  -1.556  0.00  0.00    -0.001 C 
BRANCH  36  38
ATOM     37  C   UNL     1       0.431   1.614  -0.328  0.00  0.00    +0.004 C 
ATOM     38  C   UNL     1       0.406   0.084  -0.293  0.00  0.00    -0.003 C 
ENDBRANCH  36  38
ENDBRANCH  35  36
ENDBRANCH  30  35
ENDBRANCH  25  30
ENDBRANCH  21  27
ENDBRANCH   1  23
TORSDOF 9
