REMARK  Name = ZINC19354143
REMARK  8 active torsions:
REMARK  status: ('A' for Active; 'I' for Inactive)
REMARK    1  A    between atoms: C_1  and  C_2
REMARK    2  A    between atoms: C_3  and  C_8
REMARK    3  A    between atoms: C_4  and  C_7
REMARK    4  A    between atoms: C_8  and  O_9
REMARK    5  A    between atoms: O_9  and  C_10
REMARK    6  A    between atoms: C_13  and  C_18
REMARK    7  A    between atoms: C_15  and  O_16
REMARK    8  A    between atoms: O_16  and  C_17
REMARK                            x       y       z     vdW  Elec       q    Type
REMARK                         _______ _______ _______ _____ _____    ______ ____
ROOT
ATOM      1  C   UNL     1      -0.018   1.463   0.010  0.00  0.00    +0.218 C 
ATOM      2  N   UNL     1       1.389   1.904  -0.001  0.00  0.00    -0.337 N 
ATOM      3  C   UNL     1       2.319   1.204  -0.723  0.00  0.00    +0.159 C 
ATOM      4  N   UNL     1       2.196  -0.095  -0.933  0.00  0.00    -0.259 N 
ATOM      5  C   UNL     1       1.083  -0.718  -0.478  0.00  0.00    +0.205 A 
ATOM      6  N   UNL     1       0.002  -0.004   0.002  0.00  0.00    -0.286 N 
ATOM      7  C   UNL     1      -0.946  -0.909   0.418  0.00  0.00    +0.076 A 
ATOM      8  C   UNL     1      -2.209  -0.798   0.986  0.00  0.00    +0.077 A 
ATOM      9  C   UNL     1      -2.926  -1.937   1.296  0.00  0.00    +0.164 A 
ATOM     10  C   UNL     1      -2.394  -3.198   1.042  0.00  0.00    +0.164 A 
ATOM     11  C   UNL     1      -1.142  -3.326   0.477  0.00  0.00    +0.079 A 
ATOM     12  C   UNL     1      -0.405  -2.182   0.159  0.00  0.00    +0.095 A 
ATOM     13  N   UNL     1       0.829  -1.998  -0.388  0.00  0.00    -0.214 NA
ATOM     14  O   UNL     1      -3.119  -4.311   1.359  0.00  0.00    -0.488 OA
ATOM     15  C   UNL     1      -4.294  -4.535   0.577  0.00  0.00    +0.232 C 
ATOM     16  C   UNL     1      -5.470  -3.749   1.134  0.00  0.00    +0.082 C 
ATOM     17  C   UNL     1      -5.261  -2.246   1.036  0.00  0.00    +0.232 C 
ATOM     18  O   UNL     1      -4.168  -1.831   1.857  0.00  0.00    -0.488 OA
ATOM     19  N   UNL     1       3.401   1.865  -1.238  0.00  0.00    -0.332 N 
ATOM     20  H   UNL     1       4.156   1.315  -1.819  0.00  0.00    +0.145 HD
ATOM     21  H   UNL     1       2.987  -0.643  -1.467  0.00  0.00    +0.158 HD
ATOM     22  H   UNL     1       3.516   2.946  -1.070  0.00  0.00    +0.145 HD
ATOM     23  H   UNL     1       1.692   2.794   0.570  0.00  0.00    +0.164 HD
ENDROOT
BRANCH   1  27
ATOM     24  C   UNL     1      -2.031   2.918  -3.471  0.00  0.00    +0.162 A 
ATOM     25  C   UNL     1      -0.711   2.502  -3.553  0.00  0.00    +0.050 A 
ATOM     26  C   UNL     1      -0.064   2.032  -2.426  0.00  0.00    +0.011 A 
ATOM     27  C   UNL     1      -0.729   1.976  -1.216  0.00  0.00    -0.001 A 
ATOM     28  C   UNL     1      -2.047   2.384  -1.128  0.00  0.00    +0.057 A 
ATOM     29  C   UNL     1      -2.700   2.861  -2.253  0.00  0.00    +0.162 A 
BRANCH  29  30
ATOM     30  O   UNL     1      -3.995   3.269  -2.167  0.00  0.00    -0.491 OA
ATOM     31  C   UNL     1      -4.619   3.182  -0.885  0.00  0.00    +0.277 C 
ENDBRANCH  29  30
BRANCH  24  32
ATOM     32  O   UNL     1      -2.669   3.381  -4.579  0.00  0.00    -0.484 OA
BRANCH  32  33
ATOM     33  C   UNL     1      -1.919   3.411  -5.795  0.00  0.00    +0.270 C 
BRANCH  33  36
ATOM     34  C   UNL     1      -3.833   1.734  -7.808  0.00  0.00    +0.069 C 
ATOM     35  C   UNL     1      -3.620   3.226  -7.787  0.00  0.00    +0.087 A 
ATOM     36  C   UNL     1      -2.784   3.950  -6.905  0.00  0.00    +0.054 A 
ATOM     37  C   UNL     1      -2.937   5.238  -7.294  0.00  0.00    +0.141 A 
ATOM     38  O   UNL     1      -3.803   5.226  -8.318  0.00  0.00    -0.359 OA
ATOM     39  N   UNL     1      -4.172   4.104  -8.574  0.00  0.00    -0.083 NA
ATOM     40  C   UNL     1      -2.266   6.447  -6.694  0.00  0.00    +0.089 C 
ENDBRANCH  33  36
ENDBRANCH  32  33
ENDBRANCH  24  32
ENDBRANCH   1  27
TORSDOF 5
