REMARK  Name = ZINC44559647
REMARK  7 active torsions:
REMARK  status: ('A' for Active; 'I' for Inactive)
REMARK    1  A    between atoms: C_1  and  C_2
REMARK    2  A    between atoms: C_2  and  C_4
REMARK    3  A    between atoms: C_2  and  O_31
REMARK    4  A    between atoms: C_4  and  O_30
REMARK    5  A    between atoms: C_9  and  C_29
REMARK    6  A    between atoms: C_21  and  C_28
REMARK    7  A    between atoms: C_24  and  O_27
REMARK                            x       y       z     vdW  Elec       q    Type
REMARK                         _______ _______ _______ _____ _____    ______ ____
ROOT
ATOM      1  C   UNL     1       0.742  -0.511   1.242  0.00  0.00    +0.098 C 
ATOM      2  C   UNL     1       2.225  -0.068   1.199  0.00  0.00    +0.038 C 
ATOM      3  C   UNL     1       3.073  -1.366   1.266  0.00  0.00    +0.007 C 
ATOM      4  C   UNL     1       2.125  -2.365   1.942  0.00  0.00    +0.002 C 
ATOM      5  C   UNL     1       0.773  -2.037   1.251  0.00  0.00    +0.009 C 
ATOM      6  C   UNL     1      -0.331  -2.713   2.047  0.00  0.00    +0.084 C 
ATOM      7  C   UNL     1      -0.014  -4.203   2.052  0.00  0.00    +0.138 C 
ATOM      8  O   UNL     1      -0.861  -5.010   1.754  0.00  0.00    -0.297 OA
ATOM      9  C   UNL     1       1.372  -4.655   2.433  0.00  0.00    +0.065 C 
ATOM     10  C   UNL     1       2.436  -3.826   1.692  0.00  0.00    +0.003 C 
ATOM     11  C   UNL     1       3.822  -4.211   2.203  0.00  0.00    +0.005 C 
ATOM     12  C   UNL     1       4.061  -5.697   1.918  0.00  0.00    +0.004 C 
ATOM     13  C   UNL     1       2.997  -6.541   2.619  0.00  0.00    -0.002 C 
ATOM     14  C   UNL     1       1.588  -6.124   2.082  0.00  0.00    -0.019 C 
ATOM     15  C   UNL     1       0.530  -6.984   2.774  0.00  0.00    +0.010 C 
ATOM     16  C   UNL     1       0.638  -6.809   4.290  0.00  0.00    +0.032 C 
ATOM     17  C   UNL     1       2.030  -7.240   4.755  0.00  0.00    +0.115 C 
ATOM     18  C   UNL     1       3.093  -6.328   4.131  0.00  0.00    +0.035 C 
ATOM     19  C   UNL     1       1.481  -6.307   0.566  0.00  0.00    +0.012 C 
ATOM     20  C   UNL     1       0.782  -2.565  -0.185  0.00  0.00    +0.015 C 
ENDROOT
BRANCH   1  22
ATOM     21  C   UNL     1      -0.019   1.526   0.010  0.00  0.00    +0.040 C 
ATOM     22  C   UNL     1       0.002  -0.004   0.002  0.00  0.00    +0.144 C 
BRANCH  22  23
ATOM     23  O   UNL     1      -1.339  -0.499   0.012  0.00  0.00    -0.389 OA
ATOM     24  H   UNL     1      -1.853  -0.225   0.784  0.00  0.00    +0.210 HD
ENDBRANCH  22  23
ENDBRANCH   1  22
BRANCH  17  25
ATOM     25  O   UNL     1       2.243  -8.611   4.415  0.00  0.00    -0.392 OA
ATOM     26  H   UNL     1       1.608  -9.219   4.816  0.00  0.00    +0.210 HD
ENDBRANCH  17  25
BRANCH   1  27
ATOM     27  O   UNL     1       0.112  -0.022   2.427  0.00  0.00    -0.385 OA
ATOM     28  H   UNL     1       0.080   0.943   2.486  0.00  0.00    +0.210 HD
ENDBRANCH   1  27
TORSDOF 4
