REMARK  Name = ZINC63557754
REMARK  8 active torsions:
REMARK  status: ('A' for Active; 'I' for Inactive)
REMARK    1  A    between atoms: C_1  and  C_2
REMARK    2  A    between atoms: C_5  and  N_9
REMARK    3  A    between atoms: C_10  and  C_12
REMARK    4  A    between atoms: N_17  and  C_19
REMARK    5  A    between atoms: C_19  and  C_20
REMARK    6  A    between atoms: C_20  and  C_21
REMARK    7  A    between atoms: C_24  and  O_30
REMARK    8  A    between atoms: O_30  and  C_31
REMARK                            x       y       z     vdW  Elec       q    Type
REMARK                         _______ _______ _______ _____ _____    ______ ____
ROOT
ATOM      1  C   UNL     1       0.310  -6.351   1.119  0.00  0.00    +0.101 C 
ATOM      2  C   UNL     1      -0.967  -7.014   0.554  0.00  0.00    +0.110 C 
ATOM      3  C   UNL     1      -1.132  -8.268   1.383  0.00  0.00    +0.216 C 
ATOM      4  O   UNL     1      -1.840  -9.208   1.088  0.00  0.00    -0.276 OA
ATOM      5  N   UNL     1      -0.379  -8.191   2.494  0.00  0.00    -0.300 N 
ATOM      6  C   UNL     1       0.352  -6.919   2.555  0.00  0.00    +0.121 C 
ENDROOT
BRANCH   1   8
ATOM      7  N   UNL     1       0.059  -4.170  -0.022  0.00  0.00    -0.285 N 
ATOM      8  C   UNL     1       0.176  -4.850   1.136  0.00  0.00    +0.222 C 
ATOM      9  O   UNL     1       0.174  -4.254   2.192  0.00  0.00    -0.275 OA
ATOM     10  H   UNL     1      -0.015  -4.651  -0.861  0.00  0.00    +0.155 HD
BRANCH   7  15
ATOM     11  C   UNL     1       0.008   1.503   0.012  0.00  0.00    +0.045 C 
ATOM     12  C   UNL     1       0.022  -0.004   0.003  0.00  0.00    -0.032 A 
ATOM     13  C   UNL     1       0.777  -0.693   0.934  0.00  0.00    +0.006 A 
ATOM     14  C   UNL     1       0.792  -2.074   0.928  0.00  0.00    +0.023 A 
ATOM     15  C   UNL     1       0.046  -2.771  -0.014  0.00  0.00    +0.035 A 
ATOM     16  C   UNL     1      -0.712  -2.078  -0.948  0.00  0.00    +0.043 A 
ATOM     17  C   UNL     1      -0.726  -0.695  -0.934  0.00  0.00    +0.046 A 
ATOM     18 CL   UNL     1      -1.679   0.174  -2.096  0.00  0.00    -0.083 Cl
ENDBRANCH   7  15
ENDBRANCH   1   8
BRANCH   5  19
ATOM     19  C   UNL     1      -0.298  -9.240   3.513  0.00  0.00    +0.112 C 
BRANCH  19  20
ATOM     20  C   UNL     1       0.836 -10.206   3.161  0.00  0.00    +0.052 C 
BRANCH  20  21
ATOM     21  C   UNL     1       0.919 -11.285   4.209  0.00  0.00    -0.040 C 
ATOM     22  C   UNL     1       0.352 -12.512   4.160  0.00  0.00    +0.002 A 
ATOM     23  C   UNL     1      -0.481 -13.183   3.156  0.00  0.00    +0.055 A 
ATOM     24  C   UNL     1      -0.916 -14.445   3.387  0.00  0.00    +0.121 A 
ATOM     25  C   UNL     1      -0.597 -15.146   4.563  0.00  0.00    +0.047 A 
ATOM     26  C   UNL     1       0.163 -14.613   5.544  0.00  0.00    +0.029 A 
ATOM     27  C   UNL     1       0.688 -13.251   5.399  0.00  0.00    +0.043 A 
ATOM     28  N   UNL     1       1.433 -12.511   6.182  0.00  0.00    -0.380 N 
ATOM     29  C   UNL     1       1.661 -11.219   5.526  0.00  0.00    +0.144 C 
ATOM     30  H   UNL     1       1.779 -12.775   7.048  0.00  0.00    +0.160 HD
BRANCH  24  31
ATOM     31  O   UNL     1      -1.688 -15.055   2.449  0.00  0.00    -0.495 OA
ATOM     32  C   UNL     1      -2.124 -16.386   2.733  0.00  0.00    +0.277 C 
ENDBRANCH  24  31
ENDBRANCH  20  21
ENDBRANCH  19  20
ENDBRANCH   5  19
TORSDOF 6
