REMARK  Name = ZINC35781269
REMARK  10 active torsions:
REMARK  status: ('A' for Active; 'I' for Inactive)
REMARK    1  A    between atoms: C_2  and  C_3
REMARK    2  A    between atoms: C_3  and  C_4
REMARK    3  A    between atoms: C_4  and  C_5
REMARK    4  A    between atoms: C_5  and  C_7
REMARK    5  A    between atoms: C_5  and  O_33
REMARK    6  A    between atoms: C_7  and  N_8
REMARK    7  A    between atoms: N_8  and  C_9
REMARK    8  A    between atoms: N_8  and  C_16
REMARK    9  A    between atoms: C_9  and  C_10
REMARK   10  A    between atoms: C_16  and  C_17
REMARK                            x       y       z     vdW  Elec       q    Type
REMARK                         _______ _______ _______ _____ _____    ______ ____
ROOT
ATOM      1  N   UNL     1       3.928  -3.837   2.163  0.00  0.00    +0.389 N 
ATOM      2  H   UNL     1       4.112  -4.121   1.212  0.00  0.00    -0.081 HD
ENDROOT
BRANCH   1   3
ATOM      3  C   UNL     1       2.527  -3.412   2.284  0.00  0.00    -0.046 C 
BRANCH   3   4
ATOM      4  C   UNL     1       2.234  -2.320   1.254  0.00  0.00    +0.098 C 
BRANCH   4   5
ATOM      5  O   UNL     1       2.352  -2.863  -0.063  0.00  0.00    -0.394 OA
ATOM      6  H   UNL     1       1.745  -3.595  -0.242  0.00  0.00    +0.210 HD
ENDBRANCH   4   5
BRANCH   4   7
ATOM      7  C   UNL     1       0.815  -1.789   1.462  0.00  0.00    +0.033 C 
BRANCH   7   8
ATOM      8  C   UNL     1       0.565  -0.614   0.515  0.00  0.00    +0.029 C 
BRANCH   8  10
ATOM      9  C   UNL     1      -1.026   1.175   0.997  0.00  0.00    +0.004 C 
ATOM     10  C   UNL     1      -0.833  -0.091   0.720  0.00  0.00    -0.034 C 
ENDBRANCH   8  10
ENDBRANCH   7   8
ENDBRANCH   4   7
ENDBRANCH   3   4
ENDBRANCH   1   3
BRANCH   1  11
ATOM     11  C   UNL     1       4.812  -2.719   2.520  0.00  0.00    -0.042 C 
BRANCH  11  12
ATOM     12  C   UNL     1       6.245  -3.116   2.279  0.00  0.00    -0.064 A 
ATOM     13  C   UNL     1       7.011  -3.607   3.319  0.00  0.00    +0.002 A 
ATOM     14  C   UNL     1       8.326  -3.971   3.098  0.00  0.00    +0.000 A 
ATOM     15  C   UNL     1       8.876  -3.844   1.836  0.00  0.00    +0.000 A 
ATOM     16  C   UNL     1       8.110  -3.353   0.795  0.00  0.00    +0.000 A 
ATOM     17  C   UNL     1       6.793  -2.993   1.015  0.00  0.00    +0.002 A 
ENDBRANCH  11  12
ENDBRANCH   1  11
BRANCH   1  18
ATOM     18  C   UNL     1       4.177  -4.966   3.069  0.00  0.00    -0.003 C 
BRANCH  18  19
ATOM     19  C   UNL     1       3.397  -6.168   2.600  0.00  0.00    +0.094 A 
ATOM     20  N   UNL     1       3.378  -7.290   3.364  0.00  0.00    -0.312 N 
ATOM     21  H   UNL     1       3.866  -7.302   4.202  0.00  0.00    +0.170 HD
ATOM     22  C   UNL     1       2.694  -8.385   2.983  0.00  0.00    +0.260 A 
ATOM     23  O   UNL     1       2.686  -9.385   3.680  0.00  0.00    -0.267 OA
ATOM     24  C   UNL     1       1.976  -8.356   1.742  0.00  0.00    +0.075 A 
ATOM     25  C   UNL     1       1.173  -9.421   1.136  0.00  0.00    -0.023 A 
ATOM     26  C   UNL     1       0.596  -9.143  -0.051  0.00  0.00    -0.004 A 
ATOM     27  S   UNL     1       1.071  -7.474  -0.418  0.00  0.00    -0.073 S 
ATOM     28  C   UNL     1       2.055  -7.154   1.023  0.00  0.00    +0.116 A 
ATOM     29  N   UNL     1       2.748  -6.109   1.468  0.00  0.00    -0.229 NA
ATOM     30  C   UNL     1      -0.252 -10.045  -0.894  0.00  0.00    +0.043 C 
ATOM     31  C   UNL     1      -1.338 -10.683  -0.017  0.00  0.00    +0.005 C 
ATOM     32  C   UNL     1      -0.788 -11.984   0.558  0.00  0.00    +0.001 C 
ATOM     33  C   UNL     1       0.714 -11.854   0.802  0.00  0.00    +0.005 C 
ATOM     34  C   UNL     1       0.998 -10.768   1.832  0.00  0.00    +0.037 C 
ENDBRANCH  18  19
ENDBRANCH   1  18
TORSDOF 10
