REMARK  Name = ZINC24593166
REMARK  4 active torsions:
REMARK  status: ('A' for Active; 'I' for Inactive)
REMARK    1  A    between atoms: C_3  and  C_4
REMARK    2  A    between atoms: N_9  and  C_12
REMARK    3  A    between atoms: C_12  and  C_13
REMARK    4  A    between atoms: N_18  and  C_19
REMARK                            x       y       z     vdW  Elec       q    Type
REMARK                         _______ _______ _______ _____ _____    ______ ____
ROOT
ATOM      1  C   UNL     1       0.803  -6.630  -3.118  0.00  0.00    +0.234 C 
ATOM      2  O   UNL     1      -0.318  -6.387  -3.512  0.00  0.00    -0.274 OA
ATOM      3  N   UNL     1       1.461  -7.710  -3.584  0.00  0.00    -0.239 N 
ATOM      4  C   UNL     1       0.874  -8.519  -4.489  0.00  0.00    +0.306 C 
ATOM      5  O   UNL     1      -0.249  -8.274  -4.884  0.00  0.00    -0.252 OA
ATOM      6  N   UNL     1       1.532  -9.598  -4.955  0.00  0.00    -0.294 N 
ATOM      7  H   UNL     1       2.357  -7.905  -3.269  0.00  0.00    +0.159 HD
ATOM      8  H   UNL     1       2.428  -9.793  -4.640  0.00  0.00    +0.151 HD
ENDROOT
BRANCH   6   9
ATOM      9  C   UNL     1       0.894 -10.477  -5.938  0.00  0.00    +0.037 C 
ATOM     10  C   UNL     1      -0.393 -11.056  -5.346  0.00  0.00    +0.029 C 
ATOM     11  C   UNL     1      -1.059 -11.974  -6.372  0.00  0.00    -0.008 C 
ATOM     12  C   UNL     1      -0.105 -13.114  -6.732  0.00  0.00    +0.007 C 
ATOM     13  C   UNL     1       1.181 -12.536  -7.325  0.00  0.00    -0.008 C 
ATOM     14  C   UNL     1       1.848 -11.618  -6.298  0.00  0.00    +0.029 C 
ATOM     15  C   UNL     1       0.847 -11.734  -8.584  0.00  0.00    +0.007 C 
ATOM     16  C   UNL     1      -0.107 -10.593  -8.225  0.00  0.00    -0.008 C 
ATOM     17  C   UNL     1      -1.394 -11.172  -7.632  0.00  0.00    +0.007 C 
ATOM     18  C   UNL     1       0.559  -9.675  -7.198  0.00  0.00    +0.029 C 
ENDBRANCH   6   9
BRANCH   1  19
ATOM     19  C   UNL     1       1.459  -5.726  -2.107  0.00  0.00    +0.181 C 
BRANCH  19  25
ATOM     20  C   UNL     1      -0.402  -0.698  -1.273  0.00  0.00    +0.219 C 
ATOM     21  O   UNL     1      -0.728  -0.046  -2.242  0.00  0.00    -0.275 OA
ATOM     22  N   UNL     1      -0.402  -2.045  -1.336  0.00  0.00    -0.299 N 
ATOM     23  C   UNL     1      -0.017  -2.855  -0.171  0.00  0.00    +0.123 C 
ATOM     24  C   UNL     1       1.046  -3.867  -0.612  0.00  0.00    +0.104 C 
ATOM     25  N   UNL     1       0.543  -4.631  -1.761  0.00  0.00    -0.291 NA
ATOM     26  C   UNL     1       0.306  -3.759  -2.919  0.00  0.00    +0.104 C 
ATOM     27  C   UNL     1      -0.793  -2.742  -2.571  0.00  0.00    +0.123 C 
BRANCH  20  30
ATOM     28  C   UNL     1      -0.019   1.526   0.010  0.00  0.00    +0.013 C 
ATOM     29  C   UNL     1       1.317   0.779  -0.006  0.00  0.00    +0.013 C 
ATOM     30  C   UNL     1       0.002  -0.004   0.002  0.00  0.00    +0.075 C 
ENDBRANCH  20  30
ENDBRANCH  19  25
ENDBRANCH   1  19
TORSDOF 4
