REMARK  Name = ZINC19875029
REMARK  11 active torsions:
REMARK  status: ('A' for Active; 'I' for Inactive)
REMARK    1  A    between atoms: C_1  and  C_2
REMARK    2  A    between atoms: C_2  and  O_3
REMARK    3  A    between atoms: O_3  and  C_4
REMARK    4  A    between atoms: C_4  and  C_6
REMARK    5  A    between atoms: C_7  and  C_33
REMARK    6  A    between atoms: C_11  and  C_13
REMARK    7  A    between atoms: C_15  and  C_18
REMARK    8  A    between atoms: C_18  and  S_19
REMARK    9  A    between atoms: S_19  and  C_20
REMARK   10  A    between atoms: C_29  and  C_31
REMARK   11  A    between atoms: C_29  and  C_32
REMARK                            x       y       z     vdW  Elec       q    Type
REMARK                         _______ _______ _______ _____ _____    ______ ____
ROOT
ATOM      1  C   UNL     1       0.052   1.421   0.157  0.00  0.00    +0.066 C 
ATOM      2  C   UNL     1      -1.159   2.005   0.143  0.00  0.00    +0.016 C 
ATOM      3  N   UNL     1      -1.273   3.359   0.002  0.00  0.00    -0.321 N 
ATOM      4  C   UNL     1      -0.244   4.094  -0.523  0.00  0.00    +0.016 C 
ATOM      5  C   UNL     1       1.010   3.597  -0.549  0.00  0.00    +0.024 C 
ATOM      6  C   UNL     1       1.308   2.230   0.015  0.00  0.00    +0.099 C 
ATOM      7  C   UNL     1       2.072   4.334  -1.100  0.00  0.00    +0.162 C 
ATOM      8  O   UNL     1       3.192   3.861  -1.099  0.00  0.00    -0.292 OA
ATOM      9  C   UNL     1       1.849   5.699  -1.693  0.00  0.00    +0.086 C 
ATOM     10  C   UNL     1       0.413   5.783  -2.222  0.00  0.00    -0.023 C 
ATOM     11  C   UNL     1      -0.547   5.466  -1.073  0.00  0.00    +0.058 C 
ATOM     12  C   UNL     1       0.220   4.766  -3.349  0.00  0.00    +0.011 C 
ATOM     13  C   UNL     1       0.137   7.193  -2.748  0.00  0.00    +0.011 C 
ATOM     14  C   UNL     1      -2.398   1.160   0.289  0.00  0.00    +0.061 C 
ATOM     15  H   UNL     1      -2.197   3.869   0.312  0.00  0.00    +0.152 HD
ENDROOT
BRANCH   6  16
ATOM     16  C   UNL     1       1.954   2.382   1.368  0.00  0.00    +0.002 A 
ATOM     17  C   UNL     1       3.182   1.981   1.778  0.00  0.00    +0.016 A 
ATOM     18  C   UNL     1       3.570   2.234   3.080  0.00  0.00    -0.030 A 
ATOM     19  C   UNL     1       2.706   2.865   3.912  0.00  0.00    +0.050 A 
ATOM     20  S   UNL     1       1.297   3.131   2.849  0.00  0.00    -0.100 S 
BRANCH  18  21
ATOM     21  C   UNL     1       4.930   1.808   3.569  0.00  0.00    +0.112 C 
BRANCH  21  22
ATOM     22  S   UNL     1       4.832   0.127   4.243  0.00  0.00    -0.092 S 
BRANCH  22  23
ATOM     23  C   UNL     1       6.479  -0.220   4.765  0.00  0.00    +0.160 A 
ATOM     24  N   UNL     1       7.556   0.538   4.692  0.00  0.00    -0.133 NA
ATOM     25  N   UNL     1       8.757   0.067   5.170  0.00  0.00    -0.125 NA
ATOM     26  C   UNL     1       8.829  -1.143   5.688  0.00  0.00    +0.180 A 
ATOM     27  S   UNL     1       7.137  -1.695   5.527  0.00  0.00    -0.025 S 
ATOM     28  N   UNL     1       9.927  -1.812   6.217  0.00  0.00    -0.336 N 
ATOM     29  H   UNL     1       9.812  -2.832   6.612  0.00  0.00    +0.144 HD
ATOM     30  H   UNL     1      10.911  -1.321   6.239  0.00  0.00    +0.144 HD
ENDBRANCH  22  23
ENDBRANCH  21  22
ENDBRANCH  18  21
ENDBRANCH   6  16
BRANCH   1  31
ATOM     31  C   UNL     1       0.144   0.017   0.301  0.00  0.00    +0.338 C 
ATOM     32  O   UNL     1       0.428  -0.676  -0.658  0.00  0.00    -0.245 OA
BRANCH  31  33
ATOM     33  O   UNL     1      -0.083  -0.554   1.503  0.00  0.00    -0.462 OA
BRANCH  33  35
ATOM     34  C   UNL     1      -0.263  -2.437   3.006  0.00  0.00    +0.048 C 
ATOM     35  C   UNL     1       0.027  -1.977   1.576  0.00  0.00    +0.229 C 
ENDBRANCH  33  35
ENDBRANCH  31  33
ENDBRANCH   1  31
TORSDOF 7
