REMARK  Name = ZINC38597952
REMARK  8 active torsions:
REMARK  status: ('A' for Active; 'I' for Inactive)
REMARK    1  A    between atoms: C_1  and  C_2
REMARK    2  A    between atoms: C_3  and  N_9
REMARK    3  A    between atoms: C_10  and  C_12
REMARK    4  A    between atoms: N_14  and  C_15
REMARK    5  A    between atoms: C_15  and  C_16
REMARK    6  A    between atoms: C_16  and  C_18
REMARK    7  A    between atoms: C_16  and  N_23
REMARK    8  A    between atoms: N_26  and  C_29
REMARK                            x       y       z     vdW  Elec       q    Type
REMARK                         _______ _______ _______ _____ _____    ______ ____
ROOT
ATOM      1  C   UNL     1       0.430  -0.833  -8.474  0.00  0.00    +0.140 C 
ENDROOT
BRANCH   1   2
ATOM      2  N   UNL     1      -0.703  -1.768  -8.474  0.00  0.00    -0.288 NA
ATOM      3  C   UNL     1      -1.978  -1.051  -8.614  0.00  0.00    +0.104 C 
ATOM      4  C   UNL     1      -3.137  -2.036  -8.429  0.00  0.00    +0.120 C 
ATOM      5  N   UNL     1      -2.949  -3.159  -9.361  0.00  0.00    -0.327 N 
ATOM      6  C   UNL     1      -1.646  -3.841  -9.375  0.00  0.00    +0.120 C 
ATOM      7  C   UNL     1      -0.546  -2.784  -9.523  0.00  0.00    +0.104 C 
BRANCH   5   8
ATOM      8  C   UNL     1      -3.983  -3.567 -10.210  0.00  0.00    +0.030 A 
ATOM      9  C   UNL     1      -3.828  -4.699 -10.999  0.00  0.00    +0.026 A 
ATOM     10  C   UNL     1      -4.850  -5.101 -11.836  0.00  0.00    +0.040 A 
ATOM     11  C   UNL     1      -6.028  -4.375 -11.890  0.00  0.00    +0.124 A 
ATOM     12  C   UNL     1      -6.185  -3.246 -11.104  0.00  0.00    +0.040 A 
ATOM     13  C   UNL     1      -5.167  -2.844 -10.261  0.00  0.00    +0.026 A 
ATOM     14  F   UNL     1      -7.027  -4.770 -12.710  0.00  0.00    -0.205 F 
ENDBRANCH   5   8
ENDBRANCH   1   2
BRANCH   1  15
ATOM     15  C   UNL     1       0.445  -0.061  -9.768  0.00  0.00    +0.123 A 
ATOM     16  C   UNL     1       1.526   0.169 -10.534  0.00  0.00    +0.046 A 
ATOM     17  C   UNL     1       1.088   0.926 -11.645  0.00  0.00    +0.041 A 
ATOM     18  C   UNL     1      -0.235   1.114 -11.491  0.00  0.00    +0.195 A 
ATOM     19  O   UNL     1      -0.620   0.509 -10.355  0.00  0.00    -0.466 OA
ENDBRANCH   1  15
BRANCH   1  20
ATOM     20  C   UNL     1       0.287   0.141  -7.302  0.00  0.00    +0.131 C 
BRANCH  20  23
ATOM     21  C   UNL     1       0.013   0.038  -4.883  0.00  0.00    +0.299 C 
ATOM     22  O   UNL     1      -0.002   1.251  -4.862  0.00  0.00    -0.265 OA
ATOM     23  N   UNL     1       0.152  -0.615  -6.054  0.00  0.00    -0.306 N 
ATOM     24  H   UNL     1       0.163  -1.585  -6.070  0.00  0.00    +0.149 HD
BRANCH  21  26
ATOM     25  N   UNL     1      -0.264  -0.079  -2.439  0.00  0.00    -0.277 N 
ATOM     26  C   UNL     1      -0.125  -0.732  -3.610  0.00  0.00    +0.303 C 
ATOM     27  O   UNL     1      -0.111  -1.946  -3.631  0.00  0.00    -0.265 OA
ATOM     28  H   UNL     1      -0.361   0.886  -2.431  0.00  0.00    +0.155 HD
BRANCH  25  31
ATOM     29  C   UNL     1      -1.581   1.077  -0.198  0.00  0.00    +0.047 C 
ATOM     30  C   UNL     1      -0.902  -0.266  -0.119  0.00  0.00    -0.011 A 
ATOM     31  C   UNL     1      -0.270  -0.793  -1.238  0.00  0.00    +0.038 A 
ATOM     32  C   UNL     1       0.355  -2.031  -1.161  0.00  0.00    +0.023 A 
ATOM     33  C   UNL     1       0.347  -2.735   0.028  0.00  0.00    +0.003 A 
ATOM     34  C   UNL     1      -0.282  -2.208   1.140  0.00  0.00    +0.020 A 
ATOM     35  C   UNL     1      -0.901  -0.972   1.069  0.00  0.00    +0.046 A 
ATOM     36 CL   UNL     1      -1.683  -0.312   2.471  0.00  0.00    -0.083 Cl
ENDBRANCH  25  31
ENDBRANCH  21  26
ENDBRANCH  20  23
ENDBRANCH   1  20
TORSDOF 7
