REMARK  Name = ZINC36024417
REMARK  13 active torsions:
REMARK  status: ('A' for Active; 'I' for Inactive)
REMARK    1  A    between atoms: C_1  and  C_2
REMARK    2  A    between atoms: C_2  and  C_4
REMARK    3  A    between atoms: C_2  and  N_12
REMARK    4  A    between atoms: C_4  and  C_5
REMARK    5  A    between atoms: C_5  and  C_6
REMARK    6  A    between atoms: C_15  and  C_30
REMARK    7  A    between atoms: N_21  and  C_24
REMARK    8  A    between atoms: C_24  and  N_26
REMARK    9  A    between atoms: N_26  and  C_27
REMARK   10  A    between atoms: C_27  and  C_28
REMARK   11  A    between atoms: C_27  and  C_29
REMARK   12  A    between atoms: C_30  and  C_31
REMARK   13  A    between atoms: C_30  and  C_32
REMARK                            x       y       z     vdW  Elec       q    Type
REMARK                         _______ _______ _______ _____ _____    ______ ____
ROOT
ATOM      1  N   UNL     1      -1.375  -0.454   0.323  0.00  0.00    -0.311 N 
ATOM      2  C   UNL     1      -2.126   0.029   1.334  0.00  0.00    +0.201 C 
ATOM      3  O   UNL     1      -1.766   0.843   2.159  0.00  0.00    -0.277 OA
ATOM      4  C   UNL     1      -3.494  -0.614   1.266  0.00  0.00    +0.022 C 
ATOM      5  N   UNL     1      -3.576  -1.184  -0.101  0.00  0.00    +0.401 N 
ATOM      6  C   UNL     1      -2.161  -1.415  -0.455  0.00  0.00    +0.006 C 
ATOM      7  C   UNL     1      -1.957  -1.178  -1.950  0.00  0.00    +0.025 C 
ATOM      8  C   UNL     1      -0.479  -1.386  -2.300  0.00  0.00    +0.107 C 
ATOM      9  N   UNL     1      -0.065  -2.714  -1.827  0.00  0.00    -0.313 N 
ATOM     10  C   UNL     1      -0.288  -3.065  -0.418  0.00  0.00    +0.107 C 
ATOM     11  C   UNL     1      -1.767  -2.843  -0.084  0.00  0.00    +0.025 C 
ATOM     12  H   UNL     1      -4.090  -2.052  -0.094  0.00  0.00    -0.082 HD
ATOM     13  H   UNL     1      -3.996  -0.523  -0.738  0.00  0.00    -0.082 HD
ENDROOT
BRANCH   4  14
ATOM     14  C   UNL     1      -4.587   0.436   1.475  0.00  0.00    -0.023 C 
ATOM     15  C   UNL     1      -4.434   1.063   2.861  0.00  0.00    +0.006 C 
ATOM     16  C   UNL     1      -4.461   1.523   0.406  0.00  0.00    +0.006 C 
ENDBRANCH   4  14
BRANCH   1  18
ATOM     17  C   UNL     1       0.029   1.129  -0.903  0.00  0.00    +0.028 C 
ATOM     18  C   UNL     1       0.012  -0.073   0.043  0.00  0.00    +0.072 C 
BRANCH  18  19
ATOM     19  C   UNL     1       0.713   0.298   1.351  0.00  0.00    +0.027 C 
BRANCH  19  20
ATOM     20  C   UNL     1       0.792  -0.934   2.255  0.00  0.00    +0.037 C 
BRANCH  20  21
ATOM     21  C   UNL     1       1.354  -0.538   3.596  0.00  0.00    -0.047 A 
ATOM     22  C   UNL     1       2.719  -0.573   3.811  0.00  0.00    +0.003 A 
ATOM     23  C   UNL     1       3.235  -0.210   5.041  0.00  0.00    +0.000 A 
ATOM     24  C   UNL     1       2.386   0.188   6.056  0.00  0.00    +0.000 A 
ATOM     25  C   UNL     1       1.020   0.224   5.841  0.00  0.00    +0.000 A 
ATOM     26  C   UNL     1       0.505  -0.135   4.609  0.00  0.00    +0.003 A 
ENDBRANCH  20  21
ENDBRANCH  19  20
ENDBRANCH  18  19
ENDBRANCH   1  18
BRANCH   9  27
ATOM     27  C   UNL     1       0.510  -3.594  -2.671  0.00  0.00    +0.133 C 
ATOM     28  S   UNL     1       0.641  -3.222  -4.337  0.00  0.00    -0.019 S 
BRANCH  27  29
ATOM     29  N   UNL     1       0.982  -4.767  -2.203  0.00  0.00    -0.324 N 
ATOM     30  H   UNL     1       0.843  -5.009  -1.274  0.00  0.00    +0.148 HD
BRANCH  29  31
ATOM     31  C   UNL     1       1.704  -5.675  -3.098  0.00  0.00    +0.066 C 
ATOM     32  C   UNL     1       3.178  -5.272  -3.152  0.00  0.00    +0.027 C 
ATOM     33  C   UNL     1       1.586  -7.108  -2.573  0.00  0.00    +0.027 C 
ENDBRANCH  29  31
ENDBRANCH  27  29
ENDBRANCH   9  27
TORSDOF 8
