REMARK  Name = ZINC13408063
REMARK  15 active torsions:
REMARK  status: ('A' for Active; 'I' for Inactive)
REMARK    1  A    between atoms: C_1  and  C_2
REMARK    2  A    between atoms: C_2  and  O_3
REMARK    3  A    between atoms: O_3  and  C_4
REMARK    4  A    between atoms: C_4  and  C_6
REMARK    5  A    between atoms: C_8  and  C_29
REMARK    6  A    between atoms: C_9  and  C_24
REMARK    7  A    between atoms: C_11  and  C_19
REMARK    8  A    between atoms: C_11  and  O_23
REMARK    9  A    between atoms: C_13  and  C_14
REMARK   10  A    between atoms: C_13  and  O_18
REMARK   11  A    between atoms: C_24  and  O_26
REMARK   12  A    between atoms: O_26  and  C_27
REMARK   13  A    between atoms: C_27  and  C_28
REMARK   14  A    between atoms: C_32  and  O_35
REMARK   15  A    between atoms: O_35  and  C_36
REMARK                            x       y       z     vdW  Elec       q    Type
REMARK                         _______ _______ _______ _____ _____    ______ ____
ROOT
ATOM      1  C   UNL     1       1.677  -1.913   3.105  0.00  0.00    +0.162 C 
ATOM      2  C   UNL     1       1.377  -3.319   2.576  0.00  0.00    +0.055 C 
ATOM      3  C   UNL     1      -0.135  -3.473   2.388  0.00  0.00    +0.162 C 
ATOM      4  C   UNL     1      -0.839  -3.209   3.721  0.00  0.00    +0.230 C 
ATOM      5  N   UNL     1      -0.521  -1.853   4.184  0.00  0.00    -0.245 NA
ATOM      6  C   UNL     1       0.921  -1.695   4.417  0.00  0.00    +0.230 C 
ATOM      7  H   UNL     1      -0.860  -1.159   3.534  0.00  0.00    +0.128 HD
ENDROOT
BRANCH   2   8
ATOM      8  C   UNL     1       1.869  -4.345   3.564  0.00  0.00    -0.042 A 
ATOM      9  C   UNL     1       3.127  -4.217   4.123  0.00  0.00    +0.007 A 
ATOM     10  C   UNL     1       3.580  -5.156   5.029  0.00  0.00    +0.046 A 
ATOM     11  C   UNL     1       2.772  -6.228   5.378  0.00  0.00    +0.120 A 
ATOM     12  C   UNL     1       1.510  -6.354   4.816  0.00  0.00    +0.046 A 
ATOM     13  C   UNL     1       1.059  -5.409   3.914  0.00  0.00    +0.007 A 
BRANCH  11  14
ATOM     14  O   UNL     1       3.215  -7.154   6.268  0.00  0.00    -0.495 OA
ATOM     15  C   UNL     1       2.329  -8.231   6.581  0.00  0.00    +0.277 C 
ENDBRANCH  11  14
ENDBRANCH   2   8
BRANCH   6  16
ATOM     16  C   UNL     1       1.204  -0.284   4.939  0.00  0.00    +0.433 C 
ATOM     17  F   UNL     1       0.668   0.656   4.053  0.00  0.00    -0.166 F 
ATOM     18  F   UNL     1       0.615  -0.127   6.199  0.00  0.00    -0.166 F 
ATOM     19  F   UNL     1       2.585  -0.093   5.043  0.00  0.00    -0.166 F 
ENDBRANCH   6  16
BRANCH   4  20
ATOM     20  C   UNL     1      -2.351  -3.342   3.533  0.00  0.00    +0.433 C 
ATOM     21  F   UNL     1      -2.709  -4.694   3.570  0.00  0.00    -0.166 F 
ATOM     22  F   UNL     1      -3.011  -2.658   4.560  0.00  0.00    -0.166 F 
ATOM     23  F   UNL     1      -2.718  -2.796   2.298  0.00  0.00    -0.166 F 
ENDBRANCH   4  20
BRANCH   1  24
ATOM     24  C   UNL     1       1.234  -0.889   2.092  0.00  0.00    +0.315 C 
ATOM     25  O   UNL     1       0.087  -0.872   1.712  0.00  0.00    -0.250 OA
BRANCH  24  26
ATOM     26  O   UNL     1       2.114   0.004   1.612  0.00  0.00    -0.465 OA
BRANCH  26  28
ATOM     27  C   UNL     1       2.762   1.875   0.227  0.00  0.00    +0.048 C 
ATOM     28  C   UNL     1       1.625   0.946   0.655  0.00  0.00    +0.229 C 
ENDBRANCH  26  28
ENDBRANCH  24  26
ENDBRANCH   1  24
BRANCH   6  29
ATOM     29  O   UNL     1       1.355  -2.655   5.383  0.00  0.00    -0.366 OA
ATOM     30  H   UNL     1       0.866  -2.624   6.216  0.00  0.00    +0.212 HD
ENDBRANCH   6  29
BRANCH   4  31
ATOM     31  O   UNL     1      -0.394  -4.160   4.690  0.00  0.00    -0.366 OA
ATOM     32  H   UNL     1      -0.855  -4.102   5.538  0.00  0.00    +0.212 HD
ENDBRANCH   4  31
BRANCH   3  33
ATOM     33  C   UNL     1      -0.444  -4.872   1.922  0.00  0.00    +0.315 C 
ATOM     34  O   UNL     1       0.455  -5.618   1.613  0.00  0.00    -0.250 OA
BRANCH  33  35
ATOM     35  O   UNL     1      -1.718  -5.290   1.851  0.00  0.00    -0.465 OA
BRANCH  35  36
ATOM     36  C   UNL     1      -1.937  -6.628   1.402  0.00  0.00    +0.229 C 
ATOM     37  C   UNL     1      -3.439  -6.921   1.387  0.00  0.00    +0.048 C 
ENDBRANCH  35  36
ENDBRANCH  33  35
ENDBRANCH   3  33
TORSDOF 12
