REMARK  Name = ZINC08992108
REMARK  7 active torsions:
REMARK  status: ('A' for Active; 'I' for Inactive)
REMARK    1  A    between atoms: C_1  and  C_2
REMARK    2  A    between atoms: C_2  and  N_53
REMARK    3  A    between atoms: C_6  and  C_8
REMARK    4  A    between atoms: C_8  and  N_9
REMARK    5  A    between atoms: C_10  and  C_12
REMARK    6  A    between atoms: C_12  and  C_14
REMARK    7  A    between atoms: C_12  and  C_15
REMARK                            x       y       z     vdW  Elec       q    Type
REMARK                         _______ _______ _______ _____ _____    ______ ____
ROOT
ATOM      1  C   UNL     1      -2.852   3.331   5.301  0.00  0.00    +0.102 C 
ATOM      2  C   UNL     1      -1.780   4.402   5.516  0.00  0.00    +0.022 C 
ENDROOT
BRANCH   1   3
ATOM      3  C   UNL     1      -4.074   3.672   6.114  0.00  0.00    -0.034 A 
ATOM      4  C   UNL     1      -4.739   4.868   5.888  0.00  0.00    +0.005 A 
ATOM      5  C   UNL     1      -5.857   5.190   6.625  0.00  0.00    +0.011 A 
ATOM      6  C   UNL     1      -6.320   4.311   7.602  0.00  0.00    +0.007 A 
ATOM      7  C   UNL     1      -7.454   4.346   8.543  0.00  0.00    +0.009 A 
ATOM      8  C   UNL     1      -8.465   5.271   8.790  0.00  0.00    +0.030 A 
ATOM      9  C   UNL     1      -9.408   5.013   9.763  0.00  0.00    +0.042 A 
ATOM     10  C   UNL     1      -9.350   3.836  10.495  0.00  0.00    +0.022 A 
ATOM     11  C   UNL     1      -8.355   2.912  10.260  0.00  0.00    +0.027 A 
ATOM     12  C   UNL     1      -7.395   3.155   9.282  0.00  0.00    +0.048 A 
ATOM     13  N   UNL     1      -6.306   2.422   8.842  0.00  0.00    -0.354 N 
ATOM     14  H   UNL     1      -6.043   1.557   9.192  0.00  0.00    +0.166 HD
ATOM     15  C   UNL     1      -5.648   3.101   7.832  0.00  0.00    +0.048 A 
ATOM     16  C   UNL     1      -4.523   2.791   7.074  0.00  0.00    +0.030 A 
ATOM     17 CL   UNL     1     -10.670   6.164  10.073  0.00  0.00    -0.084 Cl
ENDBRANCH   1   3
BRANCH   1  19
ATOM     18  N   UNL     1      -2.281   2.987   2.919  0.00  0.00    -0.316 N 
ATOM     19  C   UNL     1      -3.220   3.276   3.840  0.00  0.00    +0.220 C 
ATOM     20  O   UNL     1      -4.363   3.493   3.495  0.00  0.00    -0.275 OA
ATOM     21  H   UNL     1      -1.367   2.814   3.195  0.00  0.00    +0.149 HD
BRANCH  18  22
ATOM     22  C   UNL     1      -2.639   2.933   1.499  0.00  0.00    +0.089 C 
BRANCH  22  26
ATOM     23  C   UNL     1      -0.387   0.484  -0.138  0.00  0.00    -0.078 C 
ATOM     24  C   UNL     1      -0.793   1.324  -1.363  0.00  0.00    -0.020 C 
ATOM     25  C   UNL     1      -1.786   2.376  -0.820  0.00  0.00    -0.016 C 
ATOM     26  C   UNL     1      -1.441   2.432   0.690  0.00  0.00    -0.051 C 
ATOM     27  N   UNL     1      -1.140   1.027   0.997  0.00  0.00    +0.382 N 
ATOM     28  H   UNL     1      -2.015   0.503   1.117  0.00  0.00    -0.081 HD
BRANCH  27  30
ATOM     29  C   UNL     1       0.821   1.927   2.186  0.00  0.00    -0.017 C 
ATOM     30  C   UNL     1      -0.331   0.922   2.251  0.00  0.00    -0.082 C 
ENDBRANCH  27  30
ENDBRANCH  22  26
ENDBRANCH  18  22
ENDBRANCH   1  19
TORSDOF 5
