REMARK  Name = ZINC08914900
REMARK  8 active torsions:
REMARK  status: ('A' for Active; 'I' for Inactive)
REMARK    1  A    between atoms: C_1  and  C_2
REMARK    2  A    between atoms: C_2  and  C_3
REMARK    3  A    between atoms: C_2  and  C_4
REMARK    4  A    between atoms: C_2  and  C_5
REMARK    5  A    between atoms: C_5  and  C_7
REMARK    6  A    between atoms: N_25  and  C_28
REMARK    7  A    between atoms: C_33  and  O_34
REMARK    8  A    between atoms: O_34  and  C_35
REMARK                            x       y       z     vdW  Elec       q    Type
REMARK                         _______ _______ _______ _____ _____    ______ ____
ROOT
ATOM      1  C   UNL     1      -1.236  -0.870   0.100  0.00  0.00    +0.136 C 
ATOM      2  C   UNL     1      -1.776  -1.164  -1.278  0.00  0.00    +0.116 C 
ATOM      3  C   UNL     1      -0.719  -2.262  -1.714  0.00  0.00    +0.113 C 
ATOM      4  C   UNL     1      -0.806  -3.167  -0.534  0.00  0.00    +0.100 C 
ATOM      5  C   UNL     1      -0.674  -2.592   1.928  0.00  0.00    +0.054 C 
ATOM      6  C   UNL     1       0.234  -3.564   2.138  0.00  0.00    +0.022 C 
ATOM      7  C   UNL     1       0.910  -4.190   0.985  0.00  0.00    -0.019 A 
ATOM      8  C   UNL     1       0.436  -3.990  -0.316  0.00  0.00    -0.021 A 
ATOM      9  C   UNL     1       1.090  -4.562  -1.384  0.00  0.00    +0.006 A 
ATOM     10  C   UNL     1       2.204  -5.357  -1.172  0.00  0.00    +0.000 A 
ATOM     11  C   UNL     1       2.663  -5.583   0.113  0.00  0.00    +0.001 A 
ATOM     12  C   UNL     1       2.023  -5.009   1.191  0.00  0.00    +0.008 A 
ATOM     13  C   UNL     1      -1.143  -2.435  -3.107  0.00  0.00    +0.232 C 
ATOM     14  O   UNL     1      -1.164  -3.462  -3.751  0.00  0.00    -0.274 OA
ATOM     15  N   UNL     1      -1.511  -1.181  -3.523  0.00  0.00    -0.206 N 
ATOM     16  C   UNL     1      -1.684  -0.310  -2.479  0.00  0.00    +0.232 C 
ATOM     17  O   UNL     1      -1.749   0.899  -2.530  0.00  0.00    -0.274 OA
ATOM     18  N   UNL     1      -1.256  -2.312   0.545  0.00  0.00    -0.384 NA
ATOM     19  H   UNL     1      -2.252  -2.540   0.650  0.00  0.00    +0.127 HD
ENDROOT
BRANCH  15  20
ATOM     20  C   UNL     1      -1.691  -0.828  -4.870  0.00  0.00    +0.085 A 
ATOM     21  C   UNL     1      -2.936  -0.968  -5.465  0.00  0.00    +0.027 A 
ATOM     22  C   UNL     1      -3.111  -0.620  -6.791  0.00  0.00    +0.002 A 
ATOM     23  C   UNL     1      -2.047  -0.132  -7.527  0.00  0.00    +0.004 A 
ATOM     24  C   UNL     1      -0.804   0.011  -6.941  0.00  0.00    +0.047 A 
ATOM     25  C   UNL     1      -0.622  -0.331  -5.610  0.00  0.00    +0.142 A 
BRANCH  25  26
ATOM     26  O   UNL     1       0.599  -0.185  -5.030  0.00  0.00    -0.493 OA
ATOM     27  C   UNL     1       1.650   0.331  -5.850  0.00  0.00    +0.277 C 
ENDBRANCH  25  26
ENDBRANCH  15  20
BRANCH   1  28
ATOM     28  C   UNL     1       0.002  -0.015   0.016  0.00  0.00    +0.158 C 
ATOM     29  O   UNL     1       0.882  -0.301  -0.759  0.00  0.00    -0.295 OA
BRANCH  28  31
ATOM     30  C   UNL     1       1.501   1.854   0.655  0.00  0.00    +0.018 C 
ATOM     31  C   UNL     1       0.142   1.197   0.901  0.00  0.00    +0.022 C 
ATOM     32  C   UNL     1      -0.973   2.194   0.580  0.00  0.00    +0.018 C 
ATOM     33  C   UNL     1       0.039   0.772   2.368  0.00  0.00    +0.018 C 
ENDBRANCH  28  31
ENDBRANCH   1  28
TORSDOF 4
