REMARK  Name = ZINC46334781
REMARK  13 active torsions:
REMARK  status: ('A' for Active; 'I' for Inactive)
REMARK    1  A    between atoms: C_1  and  C_2
REMARK    2  A    between atoms: C_2  and  C_4
REMARK    3  A    between atoms: C_2  and  N_22
REMARK    4  A    between atoms: N_6  and  C_7
REMARK    5  A    between atoms: C_12  and  C_13
REMARK    6  A    between atoms: C_13  and  N_14
REMARK    7  A    between atoms: N_14  and  C_15
REMARK    8  A    between atoms: N_14  and  C_16
REMARK    9  A    between atoms: C_23  and  O_25
REMARK   10  A    between atoms: O_25  and  C_26
REMARK   11  A    between atoms: C_26  and  C_27
REMARK   12  A    between atoms: C_26  and  C_28
REMARK   13  A    between atoms: C_26  and  C_29
REMARK                            x       y       z     vdW  Elec       q    Type
REMARK                         _______ _______ _______ _____ _____    ______ ____
ROOT
ATOM      1  C   UNL     1      -3.548  -0.737  -1.071  0.00  0.00    +0.035 A 
ATOM      2  C   UNL     1      -4.037  -1.540  -0.050  0.00  0.00    +0.023 A 
ATOM      3  C   UNL     1      -5.312  -2.062  -0.135  0.00  0.00    +0.002 A 
ATOM      4  C   UNL     1      -6.103  -1.786  -1.235  0.00  0.00    +0.000 A 
ATOM      5  C   UNL     1      -5.618  -0.987  -2.254  0.00  0.00    +0.003 A 
ATOM      6  C   UNL     1      -4.346  -0.456  -2.172  0.00  0.00    -0.043 A 
ENDROOT
BRANCH   1   9
ATOM      7  C   UNL     1      -1.270  -0.919  -0.408  0.00  0.00    +0.237 C 
ATOM      8  O   UNL     1      -1.520  -1.985   0.114  0.00  0.00    -0.273 OA
ATOM      9  N   UNL     1      -2.256  -0.206  -0.988  0.00  0.00    -0.284 N 
ATOM     10  H   UNL     1      -2.069   0.675  -1.349  0.00  0.00    +0.155 HD
BRANCH   7  12
ATOM     11  C   UNL     1       0.184   0.954   0.316  0.00  0.00    +0.038 C 
ATOM     12  C   UNL     1       0.142  -0.393  -0.409  0.00  0.00    +0.159 C 
BRANCH  12  13
ATOM     13  N   UNL     1       1.018  -1.345   0.278  0.00  0.00    -0.270 N 
ATOM     14  C   UNL     1       2.335  -1.378  -0.010  0.00  0.00    +0.401 C 
ATOM     15  O   UNL     1       2.794  -0.617  -0.839  0.00  0.00    -0.226 OA
ATOM     16  H   UNL     1       0.651  -1.952   0.940  0.00  0.00    +0.153 HD
BRANCH  14  17
ATOM     17  O   UNL     1       3.140  -2.253   0.621  0.00  0.00    -0.445 OA
BRANCH  17  18
ATOM     18  C   UNL     1       4.524  -2.232   0.267  0.00  0.00    +0.107 C 
ATOM     19  C   UNL     1       5.107  -0.849   0.564  0.00  0.00    +0.055 C 
ATOM     20  C   UNL     1       5.275  -3.288   1.081  0.00  0.00    +0.055 C 
ATOM     21  C   UNL     1       4.673  -2.538  -1.225  0.00  0.00    +0.055 C 
ENDBRANCH  17  18
ENDBRANCH  14  17
ENDBRANCH  12  13
ENDBRANCH   7  12
ENDBRANCH   1   9
BRANCH   6  22
ATOM     22  C   UNL     1      -3.821   0.421  -3.280  0.00  0.00    -0.041 C 
BRANCH  22  23
ATOM     23  N   UNL     1      -2.950  -0.369  -4.160  0.00  0.00    +0.382 N 
ATOM     24  C   UNL     1      -3.743  -1.408  -4.829  0.00  0.00    -0.095 C 
ATOM     25  H   UNL     1      -2.222  -0.802  -3.611  0.00  0.00    -0.081 HD
BRANCH  23  26
ATOM     26  C   UNL     1      -2.345   0.511  -5.168  0.00  0.00    -0.069 C 
ATOM     27  C   UNL     1      -1.437  -0.312  -6.084  0.00  0.00    -0.015 C 
ATOM     28  C   UNL     1      -0.806   0.605  -7.135  0.00  0.00    -0.002 C 
ATOM     29  C   UNL     1       0.020   1.687  -6.437  0.00  0.00    -0.000 C 
ATOM     30  C   UNL     1      -0.888   2.510  -5.521  0.00  0.00    -0.002 C 
ATOM     31  C   UNL     1      -1.518   1.594  -4.470  0.00  0.00    -0.015 C 
ENDBRANCH  23  26
ENDBRANCH  22  23
ENDBRANCH   6  22
TORSDOF 8
