REMARK  Name = ZINC13942515
REMARK  7 active torsions:
REMARK  status: ('A' for Active; 'I' for Inactive)
REMARK    1  A    between atoms: C_1  and  C_2
REMARK    2  A    between atoms: C_2  and  C_3
REMARK    3  A    between atoms: C_13  and  C_15
REMARK    4  A    between atoms: C_22  and  C_24
REMARK    5  A    between atoms: C_24  and  S_25
REMARK    6  A    between atoms: S_25  and  C_26
REMARK    7  A    between atoms: C_29  and  C_31
REMARK                            x       y       z     vdW  Elec       q    Type
REMARK                         _______ _______ _______ _____ _____    ______ ____
ROOT
ATOM      1  C   UNL     1       1.770   4.103   1.284  0.00  0.00    +0.034 C 
ATOM      2  N   UNL     1       2.962   3.791   1.615  0.00  0.00    -0.253 NA
ATOM      3  C   UNL     1       3.788   2.965   0.915  0.00  0.00    +0.089 A 
ATOM      4  C   UNL     1       4.563   2.062   1.659  0.00  0.00    +0.030 A 
ATOM      5  C   UNL     1       5.424   1.192   1.030  0.00  0.00    +0.002 A 
ATOM      6  C   UNL     1       5.536   1.200  -0.351  0.00  0.00    +0.002 A 
ATOM      7  C   UNL     1       4.787   2.078  -1.100  0.00  0.00    +0.030 A 
ATOM      8  C   UNL     1       3.902   2.973  -0.479  0.00  0.00    +0.091 A 
ATOM      9  N   UNL     1       3.198   3.808  -1.292  0.00  0.00    -0.234 NA
ATOM     10  C   UNL     1       1.960   4.119  -1.147  0.00  0.00    +0.115 C 
ATOM     11  C   UNL     1       1.151   3.592   0.010  0.00  0.00    +0.127 C 
ATOM     12  N   UNL     1       1.362   4.949  -2.065  0.00  0.00    -0.272 N 
ATOM     13  C   UNL     1       2.073   5.427  -3.104  0.00  0.00    +0.228 C 
ATOM     14  O   UNL     1       3.241   5.126  -3.230  0.00  0.00    -0.275 OA
ATOM     15  H   UNL     1       0.428   5.190  -1.964  0.00  0.00    +0.156 HD
ENDROOT
BRANCH  11  16
ATOM     16  C   UNL     1       1.171   2.086   0.002  0.00  0.00    -0.032 A 
ATOM     17  C   UNL     1       1.086   1.387   1.192  0.00  0.00    +0.005 A 
ATOM     18  C   UNL     1       1.104   0.005   1.185  0.00  0.00    +0.000 A 
ATOM     19  C   UNL     1       1.207  -0.679  -0.012  0.00  0.00    +0.000 A 
ATOM     20  C   UNL     1       1.292   0.020  -1.202  0.00  0.00    +0.000 A 
ATOM     21  C   UNL     1       1.274   1.402  -1.195  0.00  0.00    +0.005 A 
ENDBRANCH  11  16
BRANCH   1  23
ATOM     22  C   UNL     1       1.806   5.386   3.406  0.00  0.00    +0.010 C 
ATOM     23  C   UNL     1       0.965   5.003   2.186  0.00  0.00    +0.048 C 
ENDBRANCH   1  23
BRANCH  13  24
ATOM     24  C   UNL     1       1.418   6.337  -4.111  0.00  0.00    +0.172 C 
BRANCH  24  25
ATOM     25  S   UNL     1       2.624   6.806  -5.376  0.00  0.00    -0.088 S 
BRANCH  25  26
ATOM     26  C   UNL     1       1.619   7.838  -6.391  0.00  0.00    +0.159 A 
ATOM     27  N   UNL     1       0.340   8.171  -6.268  0.00  0.00    -0.135 NA
ATOM     28  N   UNL     1      -0.230   8.935  -7.093  0.00  0.00    -0.146 NA
ATOM     29  C   UNL     1       0.401   9.440  -8.134  0.00  0.00    +0.100 A 
ATOM     30  S   UNL     1       2.026   8.732  -7.888  0.00  0.00    -0.044 S 
ATOM     31  C   UNL     1      -0.103  10.355  -9.221  0.00  0.00    +0.075 C 
ENDBRANCH  25  26
ENDBRANCH  24  25
ENDBRANCH  13  24
TORSDOF 5
