REMARK  Name = ZINC39631113
REMARK  11 active torsions:
REMARK  status: ('A' for Active; 'I' for Inactive)
REMARK    1  A    between atoms: C_1  and  C_2
REMARK    2  A    between atoms: C_2  and  C_4
REMARK    3  A    between atoms: C_2  and  N_11
REMARK    4  A    between atoms: C_4  and  C_5
REMARK    5  A    between atoms: C_5  and  C_6
REMARK    6  A    between atoms: C_6  and  C_7
REMARK    7  A    between atoms: C_7  and  C_8
REMARK    8  A    between atoms: C_7  and  C_9
REMARK    9  A    between atoms: C_7  and  O_10
REMARK   10  A    between atoms: C_12  and  C_14
REMARK   11  A    between atoms: C_25  and  C_27
REMARK                            x       y       z     vdW  Elec       q    Type
REMARK                         _______ _______ _______ _____ _____    ______ ____
ROOT
ATOM      1  C   UNL     1       2.806  -0.763  -1.904  0.00  0.00    +0.100 C 
ATOM      2  C   UNL     1       2.395  -0.047  -3.210  0.00  0.00    +0.121 C 
ATOM      3  N   UNL     1       3.518   0.875  -3.500  0.00  0.00    -0.296 N 
ATOM      4  C   UNL     1       4.732   0.102  -3.144  0.00  0.00    +0.115 C 
ATOM      5  C   UNL     1       4.340  -0.667  -1.866  0.00  0.00    -0.004 C 
ATOM      6  C   UNL     1       4.958  -2.061  -1.878  0.00  0.00    -0.010 C 
ATOM      7  C   UNL     1       6.482  -1.941  -1.781  0.00  0.00    -0.082 C 
ATOM      8  N   UNL     1       6.840  -1.236  -0.545  0.00  0.00    +0.379 N 
ATOM      9  C   UNL     1       6.321   0.137  -0.582  0.00  0.00    -0.082 C 
ATOM     10  C   UNL     1       4.790   0.104  -0.629  0.00  0.00    -0.010 C 
ATOM     11  C   UNL     1       3.451   2.133  -3.980  0.00  0.00    +0.248 C 
ATOM     12  O   UNL     1       4.472   2.733  -4.258  0.00  0.00    -0.270 OA
ATOM     13  H   UNL     1       6.445  -1.722   0.246  0.00  0.00    -0.086 HD
ATOM     14  H   UNL     1       7.845  -1.211  -0.452  0.00  0.00    -0.086 HD
ENDROOT
BRANCH  11  15
ATOM     15  C   UNL     1       2.138   2.782  -4.170  0.00  0.00    +0.055 A 
ATOM     16  C   UNL     1       1.036   2.030  -4.582  0.00  0.00    +0.014 A 
ATOM     17  C   UNL     1      -0.187   2.643  -4.757  0.00  0.00    +0.001 A 
ATOM     18  C   UNL     1      -0.325   4.000  -4.524  0.00  0.00    +0.001 A 
ATOM     19  C   UNL     1       0.761   4.752  -4.116  0.00  0.00    +0.021 A 
ATOM     20  C   UNL     1       1.991   4.151  -3.931  0.00  0.00    +0.053 A 
ATOM     21 CL   UNL     1       3.352   5.095  -3.411  0.00  0.00    -0.083 Cl
ENDBRANCH  11  15
BRANCH   1  23
ATOM     22  N   UNL     1       1.935  -0.759   0.411  0.00  0.00    -0.312 N 
ATOM     23  C   UNL     1       2.206  -0.064  -0.712  0.00  0.00    +0.218 C 
ATOM     24  O   UNL     1       1.968   1.124  -0.762  0.00  0.00    -0.275 OA
ATOM     25  H   UNL     1       2.126  -1.709   0.451  0.00  0.00    +0.149 HD
BRANCH  22  27
ATOM     26  C   UNL     1      -0.169  -0.020   1.415  0.00  0.00    +0.028 C 
ATOM     27  C   UNL     1       1.352  -0.079   1.571  0.00  0.00    +0.070 C 
BRANCH  27  28
ATOM     28  C   UNL     1       1.705  -0.850   2.844  0.00  0.00    +0.022 C 
BRANCH  28  29
ATOM     29  C   UNL     1       3.219  -0.802   3.066  0.00  0.00    +0.005 C 
BRANCH  29  30
ATOM     30  C   UNL     1       3.572  -1.573   4.340  0.00  0.00    +0.034 C 
BRANCH  30  31
ATOM     31  C   UNL     1       5.085  -1.526   4.561  0.00  0.00    +0.061 C 
ATOM     32  C   UNL     1       5.534  -0.070   4.705  0.00  0.00    +0.041 C 
ATOM     33  C   UNL     1       5.438  -2.296   5.835  0.00  0.00    +0.041 C 
BRANCH  31  34
ATOM     34  O   UNL     1       5.748  -2.122   3.445  0.00  0.00    -0.389 OA
ATOM     35  H   UNL     1       5.511  -3.047   3.294  0.00  0.00    +0.210 HD
ENDBRANCH  31  34
ENDBRANCH  30  31
ENDBRANCH  29  30
ENDBRANCH  28  29
ENDBRANCH  27  28
ENDBRANCH  22  27
ENDBRANCH   1  23
TORSDOF 8
