REMARK  Name = ZINC40093134
REMARK  6 active torsions:
REMARK  status: ('A' for Active; 'I' for Inactive)
REMARK    1  A    between atoms: C_3  and  C_6
REMARK    2  A    between atoms: C_6  and  C_8
REMARK    3  A    between atoms: C_6  and  N_22
REMARK    4  A    between atoms: C_8  and  N_9
REMARK    5  A    between atoms: C_10  and  C_12
REMARK    6  A    between atoms: C_13  and  N_17
REMARK                            x       y       z     vdW  Elec       q    Type
REMARK                         _______ _______ _______ _____ _____    ______ ____
ROOT
ATOM      1  N   UNL     1       3.510   2.790  -2.274  0.00  0.00    -0.312 N 
ATOM      2  C   UNL     1       3.785   2.940  -3.585  0.00  0.00    +0.253 C 
ATOM      3  O   UNL     1       4.743   2.371  -4.075  0.00  0.00    -0.270 OA
ATOM      4  H   UNL     1       2.747   3.244  -1.883  0.00  0.00    +0.149 HD
ENDROOT
BRANCH   2   5
ATOM      5  C   UNL     1       2.933   3.787  -4.418  0.00  0.00    +0.099 A 
ATOM      6  C   UNL     1       3.036   4.069  -5.778  0.00  0.00    +0.088 A 
ATOM      7  C   UNL     1       2.069   4.914  -6.285  0.00  0.00    +0.036 A 
ATOM      8  C   UNL     1       1.116   5.396  -5.453  0.00  0.00    +0.048 A 
ATOM      9  S   UNL     1       1.486   4.723  -3.959  0.00  0.00    -0.090 S 
BRANCH   6  10
ATOM     10  N   UNL     1       4.052   3.532  -6.578  0.00  0.00    -0.199 N 
ATOM     11  C   UNL     1       4.253   3.739  -7.898  0.00  0.00    +0.250 A 
ATOM     12  N   UNL     1       5.309   3.049  -8.242  0.00  0.00    -0.116 NA
ATOM     13  N   UNL     1       5.790   2.422  -7.230  0.00  0.00    -0.023 NA
ATOM     14  N   UNL     1       5.086   2.667  -6.178  0.00  0.00    -0.039 NA
ENDBRANCH   6  10
ENDBRANCH   2   5
BRANCH   1  15
ATOM     15  C   UNL     1       4.364   1.941  -1.439  0.00  0.00    +0.094 C 
BRANCH  15  16
ATOM     16  C   UNL     1       3.763   1.836  -0.036  0.00  0.00    -0.013 C 
BRANCH  16  17
ATOM     17  N   UNL     1       4.682   1.092   0.836  0.00  0.00    +0.386 N 
ATOM     18  C   UNL     1       5.966   1.827   0.972  0.00  0.00    -0.078 C 
ATOM     19  C   UNL     1       6.559   1.264   2.287  0.00  0.00    -0.020 C 
ATOM     20  C   UNL     1       5.311   1.085   3.181  0.00  0.00    -0.020 C 
ATOM     21  C   UNL     1       4.125   0.999   2.203  0.00  0.00    -0.078 C 
ATOM     22  H   UNL     1       4.846   0.169   0.463  0.00  0.00    -0.081 HD
ENDBRANCH  16  17
BRANCH  16  25
ATOM     23  C   UNL     1       0.112   0.758  -0.184  0.00  0.00    +0.008 A 
ATOM     24  C   UNL     1       1.188   1.623  -0.110  0.00  0.00    +0.009 A 
ATOM     25  C   UNL     1       2.443   1.111  -0.108  0.00  0.00    -0.022 A 
ATOM     26  S   UNL     1       2.127  -0.642  -0.215  0.00  0.00    -0.103 S 
ATOM     27  C   UNL     1       0.344  -0.575  -0.254  0.00  0.00    +0.045 A 
ENDBRANCH  16  25
ENDBRANCH  15  16
ENDBRANCH   1  15
TORSDOF 6
