REMARK  Name = ZINC35428350
REMARK  8 active torsions:
REMARK  status: ('A' for Active; 'I' for Inactive)
REMARK    1  A    between atoms: C_1  and  C_2
REMARK    2  A    between atoms: C_2  and  C_3
REMARK    3  A    between atoms: C_6  and  C_9
REMARK    4  A    between atoms: N_17  and  C_21
REMARK    5  A    between atoms: C_21  and  C_22
REMARK    6  A    between atoms: N_24  and  C_25
REMARK    7  A    between atoms: C_25  and  C_26
REMARK    8  A    between atoms: C_29  and  C_32
REMARK                            x       y       z     vdW  Elec       q    Type
REMARK                         _______ _______ _______ _____ _____    ______ ____
ROOT
ATOM      1  C   UNL     1       2.809  -1.770   4.715  0.00  0.00    +0.044 C 
ATOM      2  N   UNL     1       1.996  -2.171   5.755  0.00  0.00    -0.312 N 
ATOM      3  C   UNL     1       2.370  -2.786   6.960  0.00  0.00    +0.053 A 
ATOM      4  C   UNL     1       1.274  -3.043   7.767  0.00  0.00    +0.025 A 
ATOM      5  C   UNL     1       1.452  -3.648   8.999  0.00  0.00    +0.002 A 
ATOM      6  C   UNL     1       2.719  -3.996   9.427  0.00  0.00    +0.002 A 
ATOM      7  C   UNL     1       3.819  -3.741   8.625  0.00  0.00    +0.025 A 
ATOM      8  C   UNL     1       3.649  -3.136   7.392  0.00  0.00    +0.058 A 
ATOM      9  N   UNL     1       4.873  -2.958   6.726  0.00  0.00    -0.257 N 
ATOM     10  C   UNL     1       5.094  -2.408   5.515  0.00  0.00    +0.246 C 
ATOM     11  O   UNL     1       6.258  -2.371   5.160  0.00  0.00    -0.270 OA
ATOM     12  C   UNL     1       4.162  -1.876   4.601  0.00  0.00    +0.091 C 
ATOM     13  H   UNL     1       1.047  -2.007   5.639  0.00  0.00    +0.152 HD
ENDROOT
BRANCH   1  17
ATOM     14  C   UNL     1       0.822   0.019   1.416  0.00  0.00    -0.048 A 
ATOM     15  C   UNL     1       1.772  -0.963   1.198  0.00  0.00    +0.004 A 
ATOM     16  C   UNL     1       2.421  -1.549   2.264  0.00  0.00    +0.010 A 
ATOM     17  C   UNL     1       2.118  -1.147   3.568  0.00  0.00    -0.004 A 
ATOM     18  C   UNL     1       1.159  -0.155   3.781  0.00  0.00    +0.010 A 
ATOM     19  C   UNL     1       0.521   0.426   2.704  0.00  0.00    +0.004 A 
BRANCH  14  21
ATOM     20  C   UNL     1       0.910   1.874  -0.227  0.00  0.00    +0.009 C 
ATOM     21  C   UNL     1       0.117   0.654   0.246  0.00  0.00    +0.032 C 
ENDBRANCH  14  21
ENDBRANCH   1  17
BRANCH   9  22
ATOM     22  C   UNL     1       6.062  -3.430   7.439  0.00  0.00    +0.209 C 
BRANCH  22  23
ATOM     23  C   UNL     1       6.221  -4.913   7.223  0.00  0.00    +0.231 C 
ATOM     24  O   UNL     1       5.420  -5.516   6.541  0.00  0.00    -0.274 OA
ATOM     25  N   UNL     1       7.254  -5.569   7.788  0.00  0.00    -0.310 N 
ATOM     26  H   UNL     1       7.894  -5.087   8.334  0.00  0.00    +0.149 HD
BRANCH  25  27
ATOM     27  C   UNL     1       7.409  -7.011   7.579  0.00  0.00    +0.139 C 
BRANCH  27  28
ATOM     28  C   UNL     1       8.632  -7.497   8.312  0.00  0.00    -0.030 A 
ATOM     29  C   UNL     1       9.861  -7.501   7.679  0.00  0.00    +0.005 A 
ATOM     30  C   UNL     1      10.983  -7.947   8.352  0.00  0.00    +0.003 A 
ATOM     31  C   UNL     1      10.877  -8.387   9.658  0.00  0.00    -0.050 A 
ATOM     32  C   UNL     1       9.648  -8.382  10.291  0.00  0.00    +0.003 A 
ATOM     33  C   UNL     1       8.526  -7.932   9.620  0.00  0.00    +0.005 A 
ATOM     34  C   UNL     1      12.100  -8.874  10.391  0.00  0.00    +0.044 C 
ENDBRANCH  27  28
ENDBRANCH  25  27
ENDBRANCH  22  23
ENDBRANCH   9  22
TORSDOF 6
