REMARK  Name = ZINC36374666
REMARK  20 active torsions:
REMARK  status: ('A' for Active; 'I' for Inactive)
REMARK    1  A    between atoms: C_1  and  C_2
REMARK    2  A    between atoms: C_2  and  O_4
REMARK    3  A    between atoms: O_4  and  C_5
REMARK    4  A    between atoms: C_8  and  C_45
REMARK    5  A    between atoms: C_16  and  C_34
REMARK    6  A    between atoms: C_19  and  C_33
REMARK    7  A    between atoms: C_20  and  C_22
REMARK    8  A    between atoms: C_22  and  C_23
REMARK    9  A    between atoms: C_22  and  C_24
REMARK   10  A    between atoms: C_22  and  O_32
REMARK   11  A    between atoms: C_24  and  C_26
REMARK   12  A    between atoms: C_26  and  C_27
REMARK   13  A    between atoms: C_27  and  C_28
REMARK   14  A    between atoms: C_28  and  C_29
REMARK   15  A    between atoms: C_28  and  C_30
REMARK   16  A    between atoms: C_28  and  O_31
REMARK   17  A    between atoms: C_36  and  O_44
REMARK   18  A    between atoms: C_38  and  O_43
REMARK   19  A    between atoms: C_40  and  C_41
REMARK   20  A    between atoms: C_40  and  C_42
REMARK                            x       y       z     vdW  Elec       q    Type
REMARK                         _______ _______ _______ _____ _____    ______ ____
ROOT
ATOM      1  C   UNL     1      -1.232  -2.585   0.071  0.00  0.00    +0.184 C 
ATOM      2  C   UNL     1      -1.266  -3.554  -1.141  0.00  0.00    +0.052 C 
ATOM      3  C   UNL     1      -2.770  -3.865  -1.283  0.00  0.00    -0.019 C 
ATOM      4  C   UNL     1      -3.114  -5.116  -2.045  0.00  0.00    +0.006 C 
ATOM      5  C   UNL     1      -2.598  -5.091  -3.475  0.00  0.00    +0.031 C 
ATOM      6  C   UNL     1      -3.570  -4.527  -4.453  0.00  0.00    -0.026 C 
ATOM      7  C   UNL     1      -4.843  -4.394  -4.234  0.00  0.00    -0.062 C 
ATOM      8  C   UNL     1      -5.496  -4.851  -2.970  0.00  0.00    +0.024 C 
ATOM      9  C   UNL     1      -4.580  -5.500  -1.947  0.00  0.00    -0.022 C 
ATOM     10  C   UNL     1      -5.177  -5.329  -0.550  0.00  0.00    +0.008 C 
ATOM     11  C   UNL     1      -4.684  -4.136   0.264  0.00  0.00    +0.008 C 
ATOM     12  C   UNL     1      -3.180  -4.054   0.194  0.00  0.00    -0.017 C 
ATOM     13  C   UNL     1      -2.471  -2.923   0.934  0.00  0.00    +0.075 C 
ATOM     14  C   UNL     1      -2.600  -5.363   0.766  0.00  0.00    +0.012 C 
ATOM     15  C   UNL     1      -4.651  -7.031  -2.240  0.00  0.00    +0.012 C 
ATOM     16  C   UNL     1      -6.425  -3.816  -2.364  0.00  0.00    +0.042 C 
ATOM     17  C   UNL     1      -6.768  -2.713  -3.363  0.00  0.00    +0.144 C 
ATOM     18  C   UNL     1      -7.023  -3.310  -4.742  0.00  0.00    +0.153 C 
ATOM     19  C   UNL     1      -5.701  -3.806  -5.340  0.00  0.00    +0.015 C 
ATOM     20  C   UNL     1      -5.990  -4.885  -6.392  0.00  0.00    +0.018 C 
ATOM     21  C   UNL     1      -4.990  -2.626  -6.012  0.00  0.00    +0.018 C 
ATOM     22  C   UNL     1      -3.441  -2.644  -1.925  0.00  0.00    +0.012 C 
ENDROOT
BRANCH  13  23
ATOM     23  C   UNL     1      -3.353  -1.705   1.162  0.00  0.00    +0.127 C 
ATOM     24  C   UNL     1      -4.492  -2.071   2.115  0.00  0.00    +0.050 C 
BRANCH  23  25
ATOM     25  C   UNL     1      -2.531  -0.595   1.764  0.00  0.00    +0.165 C 
ATOM     26  O   UNL     1      -1.534  -0.855   2.393  0.00  0.00    -0.294 OA
BRANCH  25  27
ATOM     27  C   UNL     1      -2.953   0.840   1.580  0.00  0.00    +0.080 C 
BRANCH  27  28
ATOM     28  C   UNL     1      -1.954   1.760   2.285  0.00  0.00    +0.042 C 
BRANCH  28  29
ATOM     29  C   UNL     1      -2.383   3.217   2.098  0.00  0.00    +0.061 C 
ATOM     30  C   UNL     1      -3.775   3.420   2.700  0.00  0.00    +0.041 C 
ATOM     31  C   UNL     1      -1.383   4.136   2.803  0.00  0.00    +0.041 C 
BRANCH  29  32
ATOM     32  O   UNL     1      -2.416   3.529   0.704  0.00  0.00    -0.389 OA
ATOM     33  H   UNL     1      -1.565   3.422   0.257  0.00  0.00    +0.210 HD
ENDBRANCH  29  32
ENDBRANCH  28  29
ENDBRANCH  27  28
ENDBRANCH  25  27
ENDBRANCH  23  25
BRANCH  23  34
ATOM     34  O   UNL     1      -3.898  -1.271  -0.086  0.00  0.00    -0.381 OA
ATOM     35  H   UNL     1      -3.286  -0.749  -0.622  0.00  0.00    +0.211 HD
ENDBRANCH  23  34
ENDBRANCH  13  23
BRANCH  18  36
ATOM     36  O   UNL     1      -7.950  -4.391  -4.643  0.00  0.00    -0.388 OA
ATOM     37  H   UNL     1      -8.811  -4.139  -4.283  0.00  0.00    +0.210 HD
ENDBRANCH  18  36
BRANCH  17  38
ATOM     38  O   UNL     1      -7.944  -2.029  -2.922  0.00  0.00    -0.389 OA
ATOM     39  H   UNL     1      -7.854  -1.614  -2.053  0.00  0.00    +0.210 HD
ENDBRANCH  17  38
BRANCH   1  40
ATOM     40  O   UNL     1      -1.274  -1.227  -0.363  0.00  0.00    -0.461 OA
BRANCH  40  42
ATOM     41  C   UNL     1      -0.062   0.820  -1.025  0.00  0.00    +0.136 C 
ATOM     42  C   UNL     1      -0.097  -0.615  -0.566  0.00  0.00    +0.304 C 
ATOM     43  O   UNL     1       0.936  -1.215  -0.379  0.00  0.00    -0.251 OA
ENDBRANCH  40  42
ENDBRANCH   1  40
TORSDOF 11
