REMARK  Name = ZINC39795887
REMARK  11 active torsions:
REMARK  status: ('A' for Active; 'I' for Inactive)
REMARK    1  A    between atoms: C_1  and  C_2
REMARK    2  A    between atoms: C_4  and  C_33
REMARK    3  A    between atoms: C_5  and  N_9
REMARK    4  A    between atoms: C_6  and  C_8
REMARK    5  A    between atoms: C_10  and  C_12
REMARK    6  A    between atoms: C_12  and  N_13
REMARK    7  A    between atoms: N_13  and  C_14
REMARK    8  A    between atoms: N_13  and  C_15
REMARK    9  A    between atoms: C_15  and  C_16
REMARK   10  A    between atoms: C_18  and  C_21
REMARK   11  A    between atoms: C_23  and  C_26
REMARK                            x       y       z     vdW  Elec       q    Type
REMARK                         _______ _______ _______ _____ _____    ______ ____
ROOT
ATOM      1  C   UNL     1       0.798  -8.453   2.268  0.00  0.00    -0.015 C 
ENDROOT
BRANCH   1   2
ATOM      2  C   UNL     1       1.152  -8.970   3.639  0.00  0.00    +0.062 A 
ATOM      3  N   UNL     1       0.349  -9.209   4.639  0.00  0.00    -0.246 NA
ATOM      4  C   UNL     1       0.872  -9.670   5.780  0.00  0.00    +0.076 A 
ATOM      5  C   UNL     1       2.242  -9.849   5.783  0.00  0.00    +0.075 A 
ATOM      6  S   UNL     1       2.670  -9.378   4.228  0.00  0.00    -0.082 S 
BRANCH   4   7
ATOM      7  C   UNL     1       0.044  -9.966   6.956  0.00  0.00    +0.002 C 
ATOM      8  C   UNL     1      -1.299  -9.833   7.062  0.00  0.00    +0.040 C 
ATOM      9  C   UNL     1      -1.717 -10.237   8.400  0.00  0.00    +0.121 C 
ATOM     10  N   UNL     1      -0.697 -10.610   9.117  0.00  0.00    -0.274 NA
ATOM     11  C   UNL     1       0.514 -10.488   8.295  0.00  0.00    +0.179 C 
BRANCH   9  12
ATOM     12  C   UNL     1      -3.125 -10.223   8.882  0.00  0.00    +0.265 C 
ATOM     13  O   UNL     1      -4.016  -9.859   8.143  0.00  0.00    -0.268 OA
ATOM     14  N   UNL     1      -3.410 -10.616  10.140  0.00  0.00    -0.296 N 
ATOM     15  C   UNL     1      -2.432 -11.073  11.137  0.00  0.00    +0.108 C 
ATOM     16  C   UNL     1      -3.217 -11.441  12.414  0.00  0.00    +0.020 C 
ATOM     17  C   UNL     1      -4.648 -11.707  11.877  0.00  0.00    +0.020 C 
ATOM     18  C   UNL     1      -4.754 -10.653  10.744  0.00  0.00    +0.108 C 
ENDBRANCH   9  12
ENDBRANCH   4   7
ENDBRANCH   1   2
BRANCH   1  19
ATOM     19  N   UNL     1       0.859  -6.985   2.268  0.00  0.00    +0.388 N 
ATOM     20  C   UNL     1       2.244  -6.552   2.501  0.00  0.00    -0.095 C 
ATOM     21  H   UNL     1       0.267  -6.623   3.000  0.00  0.00    -0.081 HD
BRANCH  19  22
ATOM     22  C   UNL     1       0.399  -6.476   0.970  0.00  0.00    +0.019 C 
BRANCH  22  24
ATOM     23  N   UNL     1      -0.052  -4.280  -0.077  0.00  0.00    -0.287 N 
ATOM     24  C   UNL     1       0.345  -4.970   1.011  0.00  0.00    +0.201 C 
ATOM     25  O   UNL     1       0.659  -4.380   2.022  0.00  0.00    -0.278 OA
ATOM     26  H   UNL     1      -0.370  -4.753  -0.862  0.00  0.00    +0.155 HD
BRANCH  23  31
ATOM     27  C   UNL     1       0.136   1.390  -0.065  0.00  0.00    +0.044 C 
ATOM     28  C   UNL     1       0.086  -0.116  -0.068  0.00  0.00    -0.050 A 
ATOM     29  C   UNL     1       0.759  -0.827  -1.045  0.00  0.00    +0.008 A 
ATOM     30  C   UNL     1       0.715  -2.207  -1.051  0.00  0.00    -0.029 A 
ATOM     31  C   UNL     1      -0.005  -2.882  -0.074  0.00  0.00    +0.039 A 
ATOM     32  C   UNL     1      -0.679  -2.165   0.906  0.00  0.00    -0.029 A 
ATOM     33  C   UNL     1      -0.628  -0.785   0.909  0.00  0.00    +0.008 A 
ATOM     34  C   UNL     1      -1.463  -2.893   1.968  0.00  0.00    +0.045 C 
ATOM     35  C   UNL     1       1.448  -2.981  -2.116  0.00  0.00    +0.045 C 
ENDBRANCH  23  31
ENDBRANCH  22  24
ENDBRANCH  19  22
ENDBRANCH   1  19
TORSDOF 7
