REMARK  Name = ZINC04222439
REMARK  13 active torsions:
REMARK  status: ('A' for Active; 'I' for Inactive)
REMARK    1  A    between atoms: C_1  and  C_2
REMARK    2  A    between atoms: C_5  and  O_37
REMARK    3  A    between atoms: C_7  and  C_34
REMARK    4  A    between atoms: C_7  and  C_35
REMARK    5  A    between atoms: C_17  and  C_19
REMARK    6  A    between atoms: C_24  and  C_26
REMARK    7  A    between atoms: C_26  and  C_27
REMARK    8  A    between atoms: N_29  and  C_30
REMARK    9  A    between atoms: C_30  and  C_31
REMARK   10  A    between atoms: C_31  and  N_71
REMARK   11  A    between atoms: C_32  and  N_71
REMARK   12  A    between atoms: C_33  and  N_71
REMARK   13  A    between atoms: C_35  and  O_36
REMARK                            x       y       z     vdW  Elec       q    Type
REMARK                         _______ _______ _______ _____ _____    ______ ____
ROOT
ATOM      1  C   UNL     1       2.337   3.577   2.412  0.00  0.00    +0.012 C 
ATOM      2  C   UNL     1       3.208   3.223   1.205  0.00  0.00    -0.019 C 
ATOM      3  C   UNL     1       3.474   1.714   1.188  0.00  0.00    +0.010 C 
ATOM      4  C   UNL     1       2.164   0.944   1.028  0.00  0.00    +0.032 C 
ATOM      5  C   UNL     1       1.517   1.345  -0.301  0.00  0.00    +0.123 C 
ATOM      6  C   UNL     1       1.207   2.840  -0.266  0.00  0.00    +0.021 C 
ATOM      7  C   UNL     1       2.497   3.647  -0.082  0.00  0.00    +0.011 C 
ATOM      8  C   UNL     1       2.094   5.130   0.034  0.00  0.00    +0.049 C 
ATOM      9  C   UNL     1       3.252   5.907   0.553  0.00  0.00    +0.015 A 
ATOM     10  C   UNL     1       4.380   5.426   1.136  0.00  0.00    +0.058 A 
ATOM     11  N   UNL     1       5.272   6.336   1.520  0.00  0.00    -0.229 NA
ATOM     12  C   UNL     1       5.077   7.627   1.346  0.00  0.00    +0.165 A 
ATOM     13  S   UNL     1       3.517   7.659   0.578  0.00  0.00    -0.057 S 
ATOM     14  N   UNL     1       5.904   8.689   1.688  0.00  0.00    -0.258 N 
ATOM     15  C   UNL     1       5.521   9.954   1.423  0.00  0.00    +0.285 C 
ATOM     16  O   UNL     1       4.450  10.165   0.884  0.00  0.00    -0.266 OA
ATOM     17  C   UNL     1       4.567   3.927   1.316  0.00  0.00    +0.054 C 
ATOM     18  C   UNL     1       0.540   3.251  -1.580  0.00  0.00    +0.016 C 
ATOM     19  H   UNL     1       6.757   8.521   2.117  0.00  0.00    +0.157 HD
ENDROOT
BRANCH  15  20
ATOM     20  C   UNL     1       6.393  11.075   1.784  0.00  0.00    +0.189 A 
ATOM     21  C   UNL     1       6.131  12.398   1.568  0.00  0.00    +0.054 A 
ATOM     22  C   UNL     1       7.229  13.114   2.070  0.00  0.00    +0.042 A 
ATOM     23  C   UNL     1       8.106  12.208   2.555  0.00  0.00    +0.196 A 
ATOM     24  O   UNL     1       7.599  10.980   2.381  0.00  0.00    -0.458 OA
ENDBRANCH  15  20
BRANCH   5  25
ATOM     25  O   UNL     1       0.305   0.609  -0.485  0.00  0.00    -0.391 OA
ATOM     26  H   UNL     1       0.428  -0.349  -0.517  0.00  0.00    +0.210 HD
ENDBRANCH   5  25
BRANCH  17  27
ATOM     27  C   UNL     1       5.172   3.651   2.694  0.00  0.00    +0.106 C 
BRANCH  27  28
ATOM     28  C   UNL     1       6.585   4.173   2.735  0.00  0.00    +0.214 C 
ATOM     29  O   UNL     1       7.061   4.713   1.759  0.00  0.00    -0.276 OA
ATOM     30  N   UNL     1       7.320   4.041   3.857  0.00  0.00    -0.317 N 
ATOM     31  H   UNL     1       6.940   3.609   4.638  0.00  0.00    +0.149 HD
BRANCH  30  32
ATOM     32  C   UNL     1       8.694   4.548   3.897  0.00  0.00    +0.085 C 
BRANCH  32  33
ATOM     33  C   UNL     1       9.299   4.273   5.275  0.00  0.00    -0.061 C 
BRANCH  33  36
ATOM     34  C   UNL     1      10.700   6.247   5.210  0.00  0.00    -0.097 C 
ATOM     35  C   UNL     1      11.370   4.330   6.529  0.00  0.00    -0.097 C 
ATOM     36  N   UNL     1      10.691   4.771   5.292  0.00  0.00    +0.377 N 
ATOM     37  H   UNL     1      11.192   4.389   4.482  0.00  0.00    -0.083 HD
ENDBRANCH  33  36
ENDBRANCH  32  33
ENDBRANCH  30  32
ENDBRANCH  27  28
ENDBRANCH  17  27
BRANCH   6  38
ATOM     38  C   UNL     1       0.257   3.133   0.898  0.00  0.00    +0.165 C 
BRANCH  38  39
ATOM     39  O   UNL     1      -1.011   2.528   0.641  0.00  0.00    -0.394 OA
ATOM     40  H   UNL     1      -1.665   2.673   1.339  0.00  0.00    +0.209 HD
ENDBRANCH  38  39
ENDBRANCH   6  38
TORSDOF 9
