REMARK  Name = ZINC09359197
REMARK  7 active torsions:
REMARK  status: ('A' for Active; 'I' for Inactive)
REMARK    1  A    between atoms: C_1  and  C_2
REMARK    2  A    between atoms: C_5  and  C_7
REMARK    3  A    between atoms: C_7  and  C_9
REMARK    4  A    between atoms: C_14  and  C_16
REMARK    5  A    between atoms: C_24  and  S_26
REMARK    6  A    between atoms: S_26  and  C_27
REMARK    7  A    between atoms: C_27  and  C_28
REMARK                            x       y       z     vdW  Elec       q    Type
REMARK                         _______ _______ _______ _____ _____    ______ ____
ROOT
ATOM      1  C   UNL     1      -4.981   2.568   2.307  0.00  0.00    +0.083 C 
ATOM      2  C   UNL     1      -6.243   2.965   2.594  0.00  0.00    +0.250 C 
ATOM      3  C   UNL     1      -7.077   2.845   1.383  0.00  0.00    +0.293 C 
ATOM      4  O   UNL     1      -8.259   3.126   1.319  0.00  0.00    -0.266 OA
ATOM      5  N   UNL     1      -6.339   2.379   0.359  0.00  0.00    -0.227 N 
ATOM      6  C   UNL     1      -4.970   2.173   0.848  0.00  0.00    +0.187 C 
ATOM      7  C   UNL     1      -6.790   2.140  -0.933  0.00  0.00    +0.192 A 
ATOM      8  N   UNL     1      -6.137   1.692  -1.993  0.00  0.00    -0.125 NA
ATOM      9  N   UNL     1      -6.704   1.526  -3.108  0.00  0.00    -0.133 NA
ATOM     10  C   UNL     1      -7.988   1.802  -3.288  0.00  0.00    +0.160 A 
ATOM     11  S   UNL     1      -8.420   2.359  -1.642  0.00  0.00    -0.024 S 
ATOM     12  O   UNL     1      -6.672   3.404   3.800  0.00  0.00    -0.282 OA
ENDROOT
BRANCH   6  13
ATOM     13  C   UNL     1      -4.585   0.723   0.706  0.00  0.00    +0.130 A 
ATOM     14  C   UNL     1      -3.368   0.263   0.364  0.00  0.00    +0.047 A 
ATOM     15  C   UNL     1      -3.452  -1.149   0.354  0.00  0.00    +0.041 A 
ATOM     16  C   UNL     1      -4.718  -1.466   0.682  0.00  0.00    +0.195 A 
ATOM     17  O   UNL     1      -5.399  -0.328   0.894  0.00  0.00    -0.466 OA
ENDBRANCH   6  13
BRANCH   1  18
ATOM     18  C   UNL     1      -3.844   2.533   3.232  0.00  0.00    +0.230 C 
ATOM     19  O   UNL     1      -3.848   1.761   4.175  0.00  0.00    -0.283 OA
BRANCH  18  24
ATOM     20  C   UNL     1      -0.815   5.936   1.154  0.00  0.00    +0.086 C 
ATOM     21  C   UNL     1      -1.367   4.917   2.117  0.00  0.00    +0.103 A 
ATOM     22  C   UNL     1      -0.776   4.523   3.268  0.00  0.00    +0.045 A 
ATOM     23  C   UNL     1      -1.616   3.568   3.860  0.00  0.00    +0.053 A 
ATOM     24  C   UNL     1      -2.700   3.427   3.021  0.00  0.00    +0.175 A 
ATOM     25  O   UNL     1      -2.526   4.261   1.975  0.00  0.00    -0.457 OA
ENDBRANCH  18  24
ENDBRANCH   1  18
BRANCH  10  26
ATOM     26  S   UNL     1      -8.985   1.660  -4.734  0.00  0.00    -0.092 S 
BRANCH  26  27
ATOM     27  C   UNL     1      -7.844   1.028  -5.994  0.00  0.00    +0.111 C 
BRANCH  27  28
ATOM     28  C   UNL     1      -8.579   0.859  -7.298  0.00  0.00    -0.037 A 
ATOM     29  C   UNL     1      -9.195  -0.342  -7.594  0.00  0.00    +0.004 A 
ATOM     30  C   UNL     1      -9.873  -0.496  -8.788  0.00  0.00    +0.000 A 
ATOM     31  C   UNL     1      -9.928   0.549  -9.692  0.00  0.00    +0.000 A 
ATOM     32  C   UNL     1      -9.307   1.749  -9.399  0.00  0.00    +0.000 A 
ATOM     33  C   UNL     1      -8.632   1.904  -8.202  0.00  0.00    +0.004 A 
ENDBRANCH  27  28
ENDBRANCH  26  27
ENDBRANCH  10  26
TORSDOF 6
