REMARK  Name = ZINC13117124
REMARK  11 active torsions:
REMARK  status: ('A' for Active; 'I' for Inactive)
REMARK    1  A    between atoms: C_1  and  C_2
REMARK    2  A    between atoms: C_2  and  N_3
REMARK    3  A    between atoms: C_7  and  S_30
REMARK    4  A    between atoms: C_11  and  S_12
REMARK    5  A    between atoms: S_12  and  C_13
REMARK    6  A    between atoms: C_13  and  C_15
REMARK    7  A    between atoms: C_13  and  C_16
REMARK    8  A    between atoms: N_18  and  C_19
REMARK    9  A    between atoms: C_24  and  C_29
REMARK   10  A    between atoms: C_26  and  C_28
REMARK   11  A    between atoms: S_30  and  N_33
REMARK                            x       y       z     vdW  Elec       q    Type
REMARK                         _______ _______ _______ _____ _____    ______ ____
ROOT
ATOM      1  N   UNL     1      -0.656   6.726   3.106  0.00  0.00    -0.319 N 
ATOM      2  C   UNL     1      -0.778   5.702   2.180  0.00  0.00    +0.070 A 
ATOM      3  C   UNL     1      -0.596   5.621   0.808  0.00  0.00    +0.030 A 
ATOM      4  C   UNL     1      -0.804   4.422   0.157  0.00  0.00    +0.030 A 
ATOM      5  C   UNL     1      -1.195   3.296   0.867  0.00  0.00    +0.107 A 
ATOM      6  C   UNL     1      -1.386   3.361   2.229  0.00  0.00    +0.058 A 
ATOM      7  C   UNL     1      -1.174   4.566   2.904  0.00  0.00    +0.092 A 
ATOM      8  N   UNL     1      -1.274   4.936   4.207  0.00  0.00    -0.222 NA
ATOM      9  C   UNL     1      -0.970   6.205   4.329  0.00  0.00    +0.171 A 
ENDROOT
BRANCH   5  10
ATOM     10  S   UNL     1      -1.456   1.774   0.019  0.00  0.00    +0.056 S 
ATOM     11  O   UNL     1      -1.746   2.107  -1.332  0.00  0.00    -0.153 OA
ATOM     12  O   UNL     1      -2.344   1.008   0.822  0.00  0.00    -0.153 OA
BRANCH  10  13
ATOM     13  N   UNL     1      -0.011   0.966   0.007  0.00  0.00    -0.204 NA
ATOM     14  H   UNL     1       0.002  -0.004   0.002  0.00  0.00    +0.144 HD
ATOM     15  H   UNL     1       0.822   1.462   0.002  0.00  0.00    +0.144 HD
ENDBRANCH  10  13
ENDBRANCH   5  10
BRANCH   1  17
ATOM     16  C   UNL     1      -1.510   8.942   2.521  0.00  0.00    +0.027 C 
ATOM     17  C   UNL     1      -0.263   8.109   2.825  0.00  0.00    +0.121 C 
ENDBRANCH   1  17
BRANCH   9  18
ATOM     18  S   UNL     1      -0.967   7.104   5.844  0.00  0.00    -0.075 S 
BRANCH  18  19
ATOM     19  C   UNL     1      -1.470   5.795   6.988  0.00  0.00    +0.137 C 
ATOM     20  C   UNL     1      -0.388   4.714   7.033  0.00  0.00    +0.029 C 
BRANCH  19  21
ATOM     21  C   UNL     1      -1.656   6.376   8.366  0.00  0.00    +0.226 C 
ATOM     22  O   UNL     1      -1.138   7.435   8.653  0.00  0.00    -0.275 OA
ATOM     23  N   UNL     1      -2.398   5.720   9.280  0.00  0.00    -0.311 N 
ATOM     24  H   UNL     1      -2.812   4.873   9.050  0.00  0.00    +0.149 HD
BRANCH  23  25
ATOM     25  C   UNL     1      -2.579   6.285  10.619  0.00  0.00    +0.076 C 
ATOM     26  C   UNL     1      -3.744   7.276  10.601  0.00  0.00    +0.022 C 
ATOM     27  C   UNL     1      -3.933   7.866  12.000  0.00  0.00    +0.002 C 
ATOM     28  C   UNL     1      -4.236   6.741  12.992  0.00  0.00    +0.003 C 
ATOM     29  C   UNL     1      -3.071   5.750  13.010  0.00  0.00    -0.009 C 
ATOM     30  C   UNL     1      -2.882   5.160  11.611  0.00  0.00    +0.009 C 
ATOM     31  C   UNL     1      -1.716   4.168  11.629  0.00  0.00    +0.009 C 
ATOM     32  C   UNL     1      -3.374   4.624  14.001  0.00  0.00    +0.008 C 
ENDBRANCH  23  25
ENDBRANCH  19  21
ENDBRANCH  18  19
ENDBRANCH   9  18
TORSDOF 7
