REMARK  Name = ZINC40036206
REMARK  9 active torsions:
REMARK  status: ('A' for Active; 'I' for Inactive)
REMARK    1  A    between atoms: C_1  and  C_2
REMARK    2  A    between atoms: C_2  and  C_3
REMARK    3  A    between atoms: C_3  and  C_4
REMARK    4  A    between atoms: C_4  and  C_40
REMARK    5  A    between atoms: N_16  and  C_32
REMARK    6  A    between atoms: N_19  and  N_20
REMARK    7  A    between atoms: C_21  and  C_22
REMARK    8  A    between atoms: C_35  and  O_38
REMARK    9  A    between atoms: O_38  and  C_39
REMARK                            x       y       z     vdW  Elec       q    Type
REMARK                         _______ _______ _______ _____ _____    ______ ____
ROOT
ATOM      1  C   UNL     1       0.937  -0.864  -1.099  0.00  0.00    +0.004 C 
ATOM      2  C   UNL     1       1.349  -0.777  -2.567  0.00  0.00    +0.047 C 
ATOM      3  C   UNL     1       2.848  -0.815  -2.698  0.00  0.00    -0.037 A 
ATOM      4  C   UNL     1       3.483  -0.076  -3.675  0.00  0.00    +0.004 A 
ATOM      5  C   UNL     1       4.861  -0.119  -3.791  0.00  0.00    +0.000 A 
ATOM      6  C   UNL     1       5.612  -0.903  -2.933  0.00  0.00    +0.001 A 
ATOM      7  C   UNL     1       4.988  -1.646  -1.950  0.00  0.00    +0.010 A 
ATOM      8  C   UNL     1       3.603  -1.603  -1.829  0.00  0.00    +0.004 A 
ATOM      9  C   UNL     1       2.907  -2.381  -0.779  0.00  0.00    +0.084 A 
ATOM     10  C   UNL     1       1.612  -2.026  -0.428  0.00  0.00    +0.050 A 
ATOM     11  C   UNL     1       0.952  -2.769   0.559  0.00  0.00    +0.264 A 
ATOM     12  O   UNL     1      -0.188  -2.487   0.893  0.00  0.00    -0.267 OA
ATOM     13  N   UNL     1       1.604  -3.802   1.135  0.00  0.00    -0.248 N 
ATOM     14  C   UNL     1       2.878  -4.106   0.757  0.00  0.00    +0.223 A 
ATOM     15  N   UNL     1       3.504  -3.412  -0.172  0.00  0.00    -0.214 NA
ATOM     16  N   UNL     1       3.523  -5.156   1.358  0.00  0.00    -0.206 N 
ATOM     17  C   UNL     1      -0.580  -1.043  -1.013  0.00  0.00    +0.017 C 
ATOM     18  H   UNL     1       3.102  -5.627   2.094  0.00  0.00    +0.177 HD
ENDROOT
BRANCH  13  19
ATOM     19  C   UNL     1       0.968  -4.565   2.123  0.00  0.00    +0.053 A 
ATOM     20  C   UNL     1       1.054  -4.186   3.456  0.00  0.00    +0.030 A 
ATOM     21  C   UNL     1       0.427  -4.938   4.430  0.00  0.00    +0.047 A 
ATOM     22  C   UNL     1      -0.289  -6.072   4.077  0.00  0.00    +0.120 A 
ATOM     23  C   UNL     1      -0.376  -6.452   2.745  0.00  0.00    +0.047 A 
ATOM     24  C   UNL     1       0.246  -5.698   1.770  0.00  0.00    +0.030 A 
BRANCH  22  25
ATOM     25  O   UNL     1      -0.907  -6.812   5.036  0.00  0.00    -0.495 OA
ATOM     26  C   UNL     1      -1.627  -7.967   4.601  0.00  0.00    +0.277 C 
ENDBRANCH  22  25
ENDBRANCH  13  19
BRANCH  16  27
ATOM     27  N   UNL     1       4.790  -5.550   0.908  0.00  0.00    -0.188 NA
ATOM     28  C   UNL     1       5.401  -6.546   1.477  0.00  0.00    +0.139 C 
BRANCH  28  29
ATOM     29  C   UNL     1       6.731  -6.960   1.004  0.00  0.00    +0.002 A 
ATOM     30  C   UNL     1       7.447  -7.947   1.672  0.00  0.00    +0.010 A 
ATOM     31  C   UNL     1       8.701  -8.335   1.224  0.00  0.00    +0.001 A 
ATOM     32  C   UNL     1       9.277  -7.773   0.126  0.00  0.00    +0.008 A 
ATOM     33  C   UNL     1       8.612  -6.769  -0.598  0.00  0.00    -0.017 A 
ATOM     34  C   UNL     1       7.327  -6.346  -0.181  0.00  0.00    -0.009 A 
ATOM     35  C   UNL     1       6.658  -5.350  -0.903  0.00  0.00    +0.009 A 
ATOM     36  C   UNL     1       7.249  -4.803  -2.003  0.00  0.00    +0.001 A 
ATOM     37  C   UNL     1       8.511  -5.222  -2.419  0.00  0.00    +0.001 A 
ATOM     38  C   UNL     1       9.194  -6.180  -1.734  0.00  0.00    +0.008 A 
ENDBRANCH  28  29
ENDBRANCH  16  27
BRANCH   1  39
ATOM     39  C   UNL     1       1.333   0.430  -0.386  0.00  0.00    +0.011 C 
BRANCH  39  41
ATOM     40  C   UNL     1       1.293   1.654   1.792  0.00  0.00    +0.004 C 
ATOM     41  C   UNL     1       0.896   0.360   1.078  0.00  0.00    -0.003 C 
ENDBRANCH  39  41
ENDBRANCH   1  39
TORSDOF 6
