REMARK  Name = ZINC09041438
REMARK  11 active torsions:
REMARK  status: ('A' for Active; 'I' for Inactive)
REMARK    1  A    between atoms: C_1  and  C_2
REMARK    2  A    between atoms: C_12  and  C_21
REMARK    3  A    between atoms: C_15  and  C_17
REMARK    4  A    between atoms: C_17  and  C_18
REMARK    5  A    between atoms: C_18  and  S_19
REMARK    6  A    between atoms: S_19  and  C_20
REMARK    7  A    between atoms: N_23  and  C_24
REMARK    8  A    between atoms: C_26  and  O_32
REMARK    9  A    between atoms: C_29  and  O_30
REMARK   10  A    between atoms: O_30  and  C_31
REMARK   11  A    between atoms: O_32  and  C_33
REMARK                            x       y       z     vdW  Elec       q    Type
REMARK                         _______ _______ _______ _____ _____    ______ ____
ROOT
ATOM      1  C   UNL     1      -3.032   4.379   0.055  0.00  0.00    +0.046 C 
ATOM      2  C   UNL     1      -1.531   4.520   0.056  0.00  0.00    -0.028 A 
ATOM      3  C   UNL     1      -0.958   5.775   0.071  0.00  0.00    +0.025 A 
ATOM      4  C   UNL     1       0.418   5.914   0.071  0.00  0.00    +0.042 A 
ATOM      5  C   UNL     1       1.224   4.788   0.056  0.00  0.00    +0.024 A 
ATOM      6  C   UNL     1       0.656   3.535   0.041  0.00  0.00    -0.026 A 
ATOM      7  C   UNL     1      -0.727   3.383   0.041  0.00  0.00    +0.039 A 
ATOM      8  N   UNL     1      -1.064   2.027   0.019  0.00  0.00    -0.286 N 
ATOM      9  C   UNL     1       0.024   1.234   0.014  0.00  0.00    +0.211 C 
ATOM     10  O   UNL     1       0.034   0.021  -0.001  0.00  0.00    -0.277 OA
ATOM     11  C   UNL     1       1.226   2.142   0.023  0.00  0.00    +0.049 C 
ATOM     12  C   UNL     1       2.097   1.886   1.259  0.00  0.00    +0.076 C 
ATOM     13  C   UNL     1       3.480   1.482   0.693  0.00  0.00    -0.004 C 
ATOM     14  C   UNL     1       3.140   0.997  -0.740  0.00  0.00    -0.068 C 
ATOM     15 CL   UNL     1       1.133   7.496   0.090  0.00  0.00    -0.084 Cl
ATOM     16  H   UNL     1      -1.976   1.696   0.011  0.00  0.00    +0.155 HD
ATOM     17  N   UNL     1       2.064   1.915  -1.145  0.00  0.00    +0.394 N 
ATOM     18  H   UNL     1       2.464   2.803  -1.470  0.00  0.00    -0.083 HD
ATOM     19  H   UNL     1       1.509   1.493  -1.900  0.00  0.00    -0.083 HD
ENDROOT
BRANCH  12  20
ATOM     20  C   UNL     1       1.518   0.766   2.084  0.00  0.00    +0.220 C 
ATOM     21  O   UNL     1       1.794  -0.386   1.823  0.00  0.00    -0.275 OA
ATOM     22  N   UNL     1       0.694   1.044   3.114  0.00  0.00    -0.282 N 
ATOM     23  H   UNL     1       0.407   1.957   3.272  0.00  0.00    +0.155 HD
BRANCH  22  24
ATOM     24  C   UNL     1       0.253   0.014   3.956  0.00  0.00    +0.079 A 
ATOM     25  C   UNL     1       1.085  -1.059   4.236  0.00  0.00    +0.072 A 
ATOM     26  C   UNL     1       0.648  -2.073   5.074  0.00  0.00    +0.122 A 
ATOM     27  C   UNL     1      -0.625  -2.021   5.622  0.00  0.00    +0.049 A 
ATOM     28  C   UNL     1      -1.459  -0.955   5.340  0.00  0.00    +0.051 A 
ATOM     29  C   UNL     1      -1.025   0.064   4.508  0.00  0.00    +0.141 A 
BRANCH  29  30
ATOM     30  O   UNL     1      -1.846   1.113   4.231  0.00  0.00    -0.493 OA
ATOM     31  C   UNL     1      -3.142   1.098   4.832  0.00  0.00    +0.277 C 
ENDBRANCH  29  30
BRANCH  26  32
ATOM     32  O   UNL     1       1.466  -3.123   5.355  0.00  0.00    -0.495 OA
ATOM     33  C   UNL     1       0.949  -4.135   6.221  0.00  0.00    +0.277 C 
ENDBRANCH  26  32
ENDBRANCH  22  24
ENDBRANCH  12  20
BRANCH  14  34
ATOM     34  C   UNL     1       4.359   1.126  -1.656  0.00  0.00    -0.005 C 
BRANCH  34  35
ATOM     35  C   UNL     1       4.034   0.526  -3.025  0.00  0.00    +0.067 C 
BRANCH  35  36
ATOM     36  S   UNL     1       5.478   0.679  -4.111  0.00  0.00    -0.164 S 
ATOM     37  C   UNL     1       4.935  -0.069  -5.672  0.00  0.00    +0.084 C 
ENDBRANCH  35  36
ENDBRANCH  34  35
ENDBRANCH  14  34
TORSDOF 7
