REMARK  Name = ZINC20878971
REMARK  12 active torsions:
REMARK  status: ('A' for Active; 'I' for Inactive)
REMARK    1  A    between atoms: C_1  and  C_2
REMARK    2  A    between atoms: C_4  and  C_33
REMARK    3  A    between atoms: C_7  and  N_8
REMARK    4  A    between atoms: N_8  and  C_9
REMARK    5  A    between atoms: C_9  and  C_10
REMARK    6  A    between atoms: C_15  and  O_16
REMARK    7  A    between atoms: O_16  and  C_17
REMARK    8  A    between atoms: C_17  and  C_18
REMARK    9  A    between atoms: C_18  and  C_20
REMARK   10  A    between atoms: C_18  and  O_32
REMARK   11  A    between atoms: N_26  and  C_31
REMARK   12  A    between atoms: N_29  and  C_30
REMARK                            x       y       z     vdW  Elec       q    Type
REMARK                         _______ _______ _______ _____ _____    ______ ____
ROOT
ATOM      1  C   UNL     1      -3.809  -0.952   0.016  0.00  0.00    +0.011 A 
ATOM      2  C   UNL     1      -4.379  -1.394   1.195  0.00  0.00    +0.009 A 
ATOM      3  C   UNL     1      -5.674  -1.876   1.200  0.00  0.00    +0.001 A 
ATOM      4  C   UNL     1      -6.404  -1.917   0.025  0.00  0.00    +0.004 A 
ATOM      5  C   UNL     1      -5.839  -1.476  -1.155  0.00  0.00    +0.046 A 
ATOM      6  C   UNL     1      -4.540  -0.988  -1.162  0.00  0.00    +0.125 A 
ENDROOT
BRANCH   1   7
ATOM      7  C   UNL     1      -2.397  -0.426   0.012  0.00  0.00    +0.140 C 
BRANCH   7   8
ATOM      8  N   UNL     1      -2.421   1.038   0.020  0.00  0.00    -0.339 N 
ATOM      9  H   UNL     1      -3.383   1.572   0.027  0.00  0.00    +0.146 HD
BRANCH   8  16
ATOM     10  C   UNL     1      -2.572   3.876   0.046  0.00  0.00    +0.045 C 
ATOM     11  C   UNL     1      -1.254   3.146   0.030  0.00  0.00    -0.029 A 
ATOM     12  C   UNL     1      -0.074   3.854   0.022  0.00  0.00    +0.020 A 
ATOM     13  C   UNL     1       1.147   3.171   0.007  0.00  0.00    +0.064 A 
ATOM     14  C   UNL     1       1.162   1.773   0.001  0.00  0.00    +0.017 A 
ATOM     15  C   UNL     1      -0.013   1.076   0.008  0.00  0.00    +0.024 A 
ATOM     16  C   UNL     1      -1.229   1.753   0.017  0.00  0.00    +0.030 A 
BRANCH  13  17
ATOM     17  C   UNL     1       2.414   3.924  -0.001  0.00  0.00    +0.387 C 
ATOM     18  O   UNL     1       2.399   5.139   0.005  0.00  0.00    -0.241 OA
ATOM     19  O   UNL     1       3.589   3.264  -0.015  0.00  0.00    -0.241 OA
ENDBRANCH  13  17
ENDBRANCH   8  16
ENDBRANCH   7   8
ENDBRANCH   1   7
BRANCH   6  20
ATOM     20  O   UNL     1      -3.984  -0.548  -2.321  0.00  0.00    -0.489 OA
BRANCH  20  21
ATOM     21  C   UNL     1      -4.795  -0.614  -3.496  0.00  0.00    +0.265 C 
BRANCH  21  22
ATOM     22  C   UNL     1      -4.005  -0.081  -4.692  0.00  0.00    +0.182 C 
BRANCH  22  23
ATOM     23  C   UNL     1      -4.814  -0.263  -5.951  0.00  0.00    -0.014 A 
ATOM     24  C   UNL     1      -5.751   0.690  -6.312  0.00  0.00    +0.008 A 
ATOM     25  C   UNL     1      -6.497   0.531  -7.464  0.00  0.00    +0.028 A 
ATOM     26  C   UNL     1      -6.306  -0.587  -8.261  0.00  0.00    +0.070 A 
ATOM     27  C   UNL     1      -5.361  -1.548  -7.896  0.00  0.00    +0.070 A 
ATOM     28  C   UNL     1      -4.613  -1.378  -6.741  0.00  0.00    +0.034 A 
ATOM     29  N   UNL     1      -5.395  -2.538  -8.876  0.00  0.00    -0.295 N 
ATOM     30  C   UNL     1      -6.319  -2.195  -9.794  0.00  0.00    +0.330 A 
ATOM     31  O   UNL     1      -6.598  -2.845 -10.784  0.00  0.00    -0.246 OA
ATOM     32  N   UNL     1      -6.885  -1.023  -9.451  0.00  0.00    -0.295 N 
ATOM     33  C   UNL     1      -7.933  -0.325 -10.200  0.00  0.00    +0.154 C 
ATOM     34  C   UNL     1      -4.568  -3.747  -8.902  0.00  0.00    +0.154 C 
ENDBRANCH  22  23
BRANCH  22  35
ATOM     35  O   UNL     1      -3.730   1.308  -4.500  0.00  0.00    -0.384 OA
ATOM     36  H   UNL     1      -3.167   1.868  -5.262  0.00  0.00    +0.210 HD
ENDBRANCH  22  35
ENDBRANCH  21  22
ENDBRANCH  20  21
ENDBRANCH   6  20
TORSDOF 9
