REMARK  Name = ZINC35177735
REMARK  12 active torsions:
REMARK  status: ('A' for Active; 'I' for Inactive)
REMARK    1  A    between atoms: C_1  and  C_2
REMARK    2  A    between atoms: C_2  and  C_4
REMARK    3  A    between atoms: C_2  and  N_17
REMARK    4  A    between atoms: N_14  and  C_15
REMARK    5  A    between atoms: N_17  and  C_18
REMARK    6  A    between atoms: C_18  and  C_19
REMARK    7  A    between atoms: C_19  and  C_20
REMARK    8  A    between atoms: C_20  and  C_21
REMARK    9  A    between atoms: C_21  and  C_22
REMARK   10  A    between atoms: C_22  and  C_23
REMARK   11  A    between atoms: C_23  and  N_24
REMARK   12  A    between atoms: C_25  and  C_27
REMARK                            x       y       z     vdW  Elec       q    Type
REMARK                         _______ _______ _______ _____ _____    ______ ____
ROOT
ATOM      1  N   UNL     1       1.595  -0.613  -0.724  0.00  0.00    -0.288 N 
ATOM      2  C   UNL     1       2.619   0.263  -0.751  0.00  0.00    +0.247 C 
ATOM      3  O   UNL     1       3.087   0.617  -1.816  0.00  0.00    -0.270 OA
ENDROOT
BRANCH   2   4
ATOM      4  C   UNL     1       3.172   0.794   0.513  0.00  0.00    +0.038 A 
ATOM      5  C   UNL     1       2.367   0.875   1.651  0.00  0.00    +0.013 A 
ATOM      6  C   UNL     1       2.889   1.371   2.827  0.00  0.00    +0.002 A 
ATOM      7  C   UNL     1       4.207   1.789   2.881  0.00  0.00    +0.015 A 
ATOM      8  C   UNL     1       5.011   1.712   1.757  0.00  0.00    +0.019 A 
ATOM      9  C   UNL     1       4.502   1.211   0.575  0.00  0.00    +0.028 A 
ATOM     10 BR   UNL     1       6.810   2.287   1.842  0.00  0.00    -0.050 Br
ENDBRANCH   2   4
BRANCH   1  12
ATOM     11  C   UNL     1       0.202   1.025   0.442  0.00  0.00    +0.036 C 
ATOM     12  C   UNL     1       0.527  -0.460   0.267  0.00  0.00    +0.139 C 
BRANCH  12  13
ATOM     13  C   UNL     1       0.978  -1.034   1.585  0.00  0.00    +0.133 A 
ATOM     14  N   UNL     1       2.236  -1.320   1.735  0.00  0.00    -0.232 NA
ATOM     15  C   UNL     1       2.714  -1.839   2.893  0.00  0.00    +0.080 A 
ATOM     16  C   UNL     1       4.066  -2.146   3.056  0.00  0.00    +0.048 A 
ATOM     17  C   UNL     1       4.504  -2.671   4.253  0.00  0.00    +0.043 A 
ATOM     18  C   UNL     1       3.616  -2.899   5.297  0.00  0.00    +0.021 A 
ATOM     19  C   UNL     1       2.287  -2.606   5.160  0.00  0.00    +0.017 A 
ATOM     20  C   UNL     1       1.819  -2.073   3.961  0.00  0.00    +0.065 A 
ATOM     21  C   UNL     1       0.402  -1.739   3.759  0.00  0.00    +0.262 A 
ATOM     22  O   UNL     1      -0.421  -1.916   4.638  0.00  0.00    -0.267 OA
ATOM     23  N   UNL     1       0.049  -1.222   2.559  0.00  0.00    -0.298 N 
ATOM     24  C   UNL     1      -1.349  -0.866   2.305  0.00  0.00    +0.154 C 
ATOM     25 CL   UNL     1       6.185  -3.054   4.457  0.00  0.00    -0.083 Cl
ENDBRANCH  12  13
ENDBRANCH   1  12
BRANCH   1  26
ATOM     26  C   UNL     1       1.550  -1.718  -1.684  0.00  0.00    +0.109 C 
BRANCH  26  27
ATOM     27  C   UNL     1       0.799  -1.272  -2.940  0.00  0.00    +0.019 C 
BRANCH  27  28
ATOM     28  C   UNL     1       0.753  -2.427  -3.943  0.00  0.00    +0.001 C 
BRANCH  28  29
ATOM     29  C   UNL     1       0.001  -1.981  -5.199  0.00  0.00    -0.002 C 
BRANCH  29  30
ATOM     30  C   UNL     1      -0.045  -3.135  -6.202  0.00  0.00    -0.020 C 
BRANCH  30  31
ATOM     31  C   UNL     1      -0.797  -2.689  -7.458  0.00  0.00    -0.086 C 
BRANCH  31  32
ATOM     32  N   UNL     1      -0.841  -3.798  -8.421  0.00  0.00    +0.378 N 
ATOM     33  H   UNL     1      -1.337  -3.504  -9.250  0.00  0.00    -0.090 HD
ATOM     34  H   UNL     1       0.099  -4.066  -8.670  0.00  0.00    -0.090 HD
ATOM     35  H   UNL     1      -1.317  -4.585  -8.007  0.00  0.00    -0.090 HD
ENDBRANCH  31  32
ENDBRANCH  30  31
ENDBRANCH  29  30
ENDBRANCH  28  29
ENDBRANCH  27  28
ENDBRANCH  26  27
ENDBRANCH   1  26
TORSDOF 10
