REMARK  Name = ZINC61862549
REMARK  6 active torsions:
REMARK  status: ('A' for Active; 'I' for Inactive)
REMARK    1  A    between atoms: C_4  and  C_8
REMARK    2  A    between atoms: C_8  and  C_9
REMARK    3  A    between atoms: C_8  and  N_22
REMARK    4  A    between atoms: C_9  and  N_10
REMARK    5  A    between atoms: N_13  and  N_14
REMARK    6  A    between atoms: C_15  and  C_17
REMARK                            x       y       z     vdW  Elec       q    Type
REMARK                         _______ _______ _______ _____ _____    ______ ____
ROOT
ATOM      1  C   UNL     1       3.751  -1.379   1.331  0.00  0.00    +0.095 C 
ENDROOT
BRANCH   1   2
ATOM      2  N   UNL     1       3.878  -0.357   2.373  0.00  0.00    -0.299 N 
ATOM      3  C   UNL     1       3.831  -0.711   3.673  0.00  0.00    +0.316 C 
ATOM      4  O   UNL     1       3.684  -1.878   3.980  0.00  0.00    -0.251 OA
ATOM      5  N   UNL     1       3.948   0.229   4.631  0.00  0.00    -0.218 N 
ATOM      6  H   UNL     1       3.995   0.574   2.128  0.00  0.00    +0.150 HD
ATOM      7  H   UNL     1       3.914  -0.025   5.567  0.00  0.00    +0.174 HD
BRANCH   5   8
ATOM      8  N   UNL     1       4.118   1.574   4.277  0.00  0.00    -0.229 N 
ATOM      9  C   UNL     1       4.234   2.514   5.236  0.00  0.00    +0.263 C 
ATOM     10  O   UNL     1       4.192   2.195   6.408  0.00  0.00    -0.269 OA
ATOM     11  H   UNL     1       4.151   1.829   3.341  0.00  0.00    +0.173 HD
BRANCH   9  12
ATOM     12  C   UNL     1       4.412   3.929   4.863  0.00  0.00    +0.076 A 
ATOM     13  C   UNL     1       4.561   5.075   5.771  0.00  0.00    +0.054 A 
ATOM     14  C   UNL     1       4.695   6.154   4.984  0.00  0.00    +0.195 A 
ATOM     15  O   UNL     1       4.642   5.770   3.699  0.00  0.00    -0.470 OA
ATOM     16  C   UNL     1       4.480   4.447   3.603  0.00  0.00    +0.208 A 
ENDBRANCH   9  12
ENDBRANCH   5   8
ENDBRANCH   1   2
BRANCH   1  17
ATOM     17  C   UNL     1       3.691  -0.704  -0.041  0.00  0.00    -0.016 C 
BRANCH  17  21
ATOM     18  C   UNL     1       0.095   1.586  -0.345  0.00  0.00    +0.004 A 
ATOM     19  C   UNL     1       1.318   2.227  -0.278  0.00  0.00    +0.038 A 
ATOM     20  C   UNL     1       2.483   1.487  -0.179  0.00  0.00    +0.126 A 
ATOM     21  C   UNL     1       2.423   0.104  -0.148  0.00  0.00    -0.006 A 
ATOM     22  C   UNL     1       1.199  -0.536  -0.215  0.00  0.00    +0.045 A 
ATOM     23  C   UNL     1       0.035   0.206  -0.313  0.00  0.00    +0.020 A 
ATOM     24 CL   UNL     1       1.122  -2.270  -0.175  0.00  0.00    -0.083 Cl
ATOM     25  F   UNL     1       3.679   2.113  -0.115  0.00  0.00    -0.205 F 
ENDBRANCH  17  21
BRANCH  17  26
ATOM     26  N   UNL     1       3.708  -1.729  -1.092  0.00  0.00    +0.385 N 
ATOM     27  C   UNL     1       3.584  -1.094  -2.429  0.00  0.00    -0.078 C 
ATOM     28  C   UNL     1       4.171  -2.163  -3.386  0.00  0.00    -0.020 C 
ATOM     29  C   UNL     1       5.343  -2.751  -2.568  0.00  0.00    -0.020 C 
ATOM     30  C   UNL     1       5.011  -2.431  -1.099  0.00  0.00    -0.078 C 
ATOM     31  H   UNL     1       2.959  -2.389  -0.948  0.00  0.00    -0.081 HD
ENDBRANCH  17  26
ENDBRANCH   1  17
TORSDOF 6
