REMARK  Name = ZINC12602922
REMARK  10 active torsions:
REMARK  status: ('A' for Active; 'I' for Inactive)
REMARK    1  A    between atoms: C_1  and  C_2
REMARK    2  A    between atoms: C_5  and  C_8
REMARK    3  A    between atoms: C_11  and  N_34
REMARK    4  A    between atoms: C_17  and  C_30
REMARK    5  A    between atoms: C_30  and  O_32
REMARK    6  A    between atoms: O_32  and  C_33
REMARK    7  A    between atoms: N_34  and  C_35
REMARK    8  A    between atoms: C_35  and  C_36
REMARK    9  A    between atoms: C_36  and  N_37
REMARK   10  A    between atoms: C_38  and  C_40
REMARK                            x       y       z     vdW  Elec       q    Type
REMARK                         _______ _______ _______ _____ _____    ______ ____
ROOT
ATOM      1  C   UNL     1      -5.763   1.311  -1.553  0.00  0.00    +0.087 C 
ATOM      2  C   UNL     1      -5.566   0.224  -0.493  0.00  0.00    +0.008 C 
ATOM      3  C   UNL     1      -5.564   0.863   0.898  0.00  0.00    -0.068 C 
ATOM      4  C   UNL     1      -6.872   1.633   1.106  0.00  0.00    +0.009 C 
ATOM      5  C   UNL     1      -7.015   2.680   0.001  0.00  0.00    +0.103 C 
ATOM      6  N   UNL     1      -7.031   2.007  -1.306  0.00  0.00    -0.274 NA
ATOM      7  C   UNL     1      -7.364   2.935  -2.392  0.00  0.00    +0.172 C 
ATOM      8  C   UNL     1      -8.845   3.328  -2.292  0.00  0.00    +0.068 C 
ATOM      9  C   UNL     1      -9.132   3.723  -0.866  0.00  0.00    -0.016 A 
ATOM     10  C   UNL     1      -8.311   3.433   0.170  0.00  0.00    +0.038 A 
ATOM     11  N   UNL     1      -8.844   3.920   1.333  0.00  0.00    -0.356 N 
ATOM     12  H   UNL     1      -8.312   3.775   2.285  0.00  0.00    +0.166 HD
ATOM     13  C   UNL     1     -10.031   4.543   1.072  0.00  0.00    +0.047 A 
ATOM     14  C   UNL     1     -10.262   4.446  -0.326  0.00  0.00    +0.003 A 
ATOM     15  C   UNL     1     -11.408   4.994  -0.911  0.00  0.00    +0.010 A 
ATOM     16  C   UNL     1     -12.291   5.627  -0.072  0.00  0.00    +0.001 A 
ATOM     17  C   UNL     1     -12.070   5.725   1.292  0.00  0.00    +0.002 A 
ATOM     18  C   UNL     1     -10.946   5.192   1.898  0.00  0.00    +0.026 A 
ENDROOT
BRANCH   1  23
ATOM     19  C   UNL     1      -5.881  -1.109  -6.799  0.00  0.00    +0.044 C 
ATOM     20  C   UNL     1      -5.850  -0.478  -5.431  0.00  0.00    -0.050 A 
ATOM     21  C   UNL     1      -4.695   0.130  -4.976  0.00  0.00    +0.003 A 
ATOM     22  C   UNL     1      -4.667   0.709  -3.721  0.00  0.00    +0.005 A 
ATOM     23  C   UNL     1      -5.793   0.680  -2.921  0.00  0.00    -0.030 A 
ATOM     24  C   UNL     1      -6.947   0.067  -3.374  0.00  0.00    +0.005 A 
ATOM     25  C   UNL     1      -6.976  -0.509  -4.630  0.00  0.00    +0.003 A 
ENDBRANCH   1  23
BRANCH   3  26
ATOM     26  N   UNL     1      -4.428   1.787   1.011  0.00  0.00    +0.382 N 
ATOM     27  H   UNL     1      -4.253   2.273   0.040  0.00  0.00    -0.085 HD
ATOM     28  H   UNL     1      -4.652   2.553   1.769  0.00  0.00    -0.085 HD
BRANCH  26  29
ATOM     29  C   UNL     1      -3.207   1.074   1.409  0.00  0.00    -0.063 C 
BRANCH  29  30
ATOM     30  C   UNL     1      -2.048   2.068   1.516  0.00  0.00    +0.085 C 
BRANCH  30  31
ATOM     31  N   UNL     1      -0.830   1.357   1.912  0.00  0.00    -0.317 N 
ATOM     32  C   UNL     1       0.326   2.033   2.064  0.00  0.00    +0.210 C 
ATOM     33  O   UNL     1       0.356   3.231   1.877  0.00  0.00    -0.276 OA
ATOM     34  C   UNL     1       1.580   1.301   2.465  0.00  0.00    +0.109 C 
ATOM     35  H   UNL     1      -0.859   0.271   2.085  0.00  0.00    +0.149 HD
ENDBRANCH  30  31
ENDBRANCH  29  30
ENDBRANCH  26  29
ENDBRANCH   3  26
BRANCH   7  36
ATOM     36  C   UNL     1      -6.508   4.170  -2.277  0.00  0.00    +0.325 C 
ATOM     37  O   UNL     1      -5.571   4.186  -1.515  0.00  0.00    -0.249 OA
BRANCH  36  38
ATOM     38  O   UNL     1      -6.787   5.251  -3.021  0.00  0.00    -0.467 OA
ATOM     39  C   UNL     1      -5.921   6.405  -2.859  0.00  0.00    +0.280 C 
ENDBRANCH  36  38
ENDBRANCH   7  36
TORSDOF 7
