REMARK  Name = ZINC21237649
REMARK  8 active torsions:
REMARK  status: ('A' for Active; 'I' for Inactive)
REMARK    1  A    between atoms: C_1  and  O_2
REMARK    2  A    between atoms: O_2  and  C_3
REMARK    3  A    between atoms: C_6  and  C_13
REMARK    4  A    between atoms: C_7  and  O_11
REMARK    5  A    between atoms: C_8  and  O_9
REMARK    6  A    between atoms: O_9  and  C_10
REMARK    7  A    between atoms: O_11  and  C_12
REMARK    8  A    between atoms: C_24  and  C_27
REMARK                            x       y       z     vdW  Elec       q    Type
REMARK                         _______ _______ _______ _____ _____    ______ ____
ROOT
ATOM      1  C   UNL     1      -2.127   3.263  -2.414  0.00  0.00    +0.066 C 
ATOM      2  C   UNL     1      -2.724   2.071  -3.164  0.00  0.00    +0.109 C 
ATOM      3  C   UNL     1      -1.671   1.004  -3.315  0.00  0.00    +0.218 C 
ATOM      4  O   UNL     1      -1.656   0.305  -4.305  0.00  0.00    -0.275 OA
ATOM      5  N   UNL     1      -0.746   0.827  -2.355  0.00  0.00    -0.289 N 
ATOM      6  C   UNL     1      -0.753   1.587  -1.214  0.00  0.00    +0.018 C 
ATOM      7  C   UNL     1      -1.404   2.769  -1.183  0.00  0.00    +0.020 C 
ATOM      8  C   UNL     1      -1.430   3.560  -0.022  0.00  0.00    +0.162 C 
ATOM      9  O   UNL     1      -2.015   4.625  -0.036  0.00  0.00    -0.292 OA
ATOM     10  C   UNL     1      -0.743   3.109   1.240  0.00  0.00    +0.088 C 
ATOM     11  C   UNL     1      -0.716   1.577   1.269  0.00  0.00    +0.032 C 
ATOM     12  C   UNL     1      -0.019   1.077   0.002  0.00  0.00    +0.059 C 
ATOM     13  H   UNL     1       0.034   0.061  -2.478  0.00  0.00    +0.155 HD
ENDROOT
BRANCH  11  14
ATOM     14  C   UNL     1       0.045   1.109   2.483  0.00  0.00    -0.042 A 
ATOM     15  C   UNL     1       1.366   1.479   2.655  0.00  0.00    +0.005 A 
ATOM     16  C   UNL     1       2.064   1.055   3.770  0.00  0.00    +0.022 A 
ATOM     17  C   UNL     1       1.444   0.249   4.709  0.00  0.00    +0.059 A 
ATOM     18  C   UNL     1       0.123  -0.126   4.533  0.00  0.00    +0.060 A 
ATOM     19  C   UNL     1      -0.576   0.305   3.420  0.00  0.00    +0.025 A 
ATOM     20 CL   UNL     1      -0.657  -1.135   5.711  0.00  0.00    -0.082 Cl
ATOM     21 CL   UNL     1       2.322  -0.290   6.106  0.00  0.00    -0.082 Cl
ENDBRANCH  11  14
BRANCH   1  25
ATOM     22  C   UNL     1       0.634   5.311  -4.962  0.00  0.00    +0.165 A 
ATOM     23  C   UNL     1       0.903   4.019  -4.537  0.00  0.00    +0.050 A 
ATOM     24  C   UNL     1       0.012   3.362  -3.709  0.00  0.00    +0.011 A 
ATOM     25  C   UNL     1      -1.156   3.986  -3.311  0.00  0.00    +0.006 A 
ATOM     26  C   UNL     1      -1.432   5.277  -3.732  0.00  0.00    +0.169 A 
ATOM     27  C   UNL     1      -0.536   5.944  -4.560  0.00  0.00    +0.204 A 
BRANCH  22  29
ATOM     28  C   UNL     1       2.696   5.247  -6.146  0.00  0.00    +0.277 C 
ATOM     29  O   UNL     1       1.514   5.958  -5.772  0.00  0.00    -0.491 OA
ENDBRANCH  22  29
BRANCH  27  30
ATOM     30  O   UNL     1      -0.803   7.212  -4.974  0.00  0.00    -0.488 OA
ATOM     31  C   UNL     1      -0.238   8.278  -4.209  0.00  0.00    +0.277 C 
ENDBRANCH  27  30
BRANCH  26  32
ATOM     32  O   UNL     1      -2.579   5.892  -3.336  0.00  0.00    -0.491 OA
ATOM     33  C   UNL     1      -3.751   5.641  -4.113  0.00  0.00    +0.277 C 
ENDBRANCH  26  32
ENDBRANCH   1  25
TORSDOF 5
