REMARK  Name = ZINC67377141
REMARK  7 active torsions:
REMARK  status: ('A' for Active; 'I' for Inactive)
REMARK    1  A    between atoms: C_1  and  C_2
REMARK    2  A    between atoms: C_2  and  C_3
REMARK    3  A    between atoms: C_2  and  C_4
REMARK    4  A    between atoms: N_6  and  C_7
REMARK    5  A    between atoms: N_10  and  C_13
REMARK    6  A    between atoms: N_17  and  C_20
REMARK    7  A    between atoms: C_24  and  N_26
REMARK                            x       y       z     vdW  Elec       q    Type
REMARK                         _______ _______ _______ _____ _____    ______ ____
ROOT
ATOM      1  C   UNL     1       1.450  -2.131   7.618  0.00  0.00    +0.021 C 
ATOM      2  C   UNL     1       0.725  -3.412   8.092  0.00  0.00    +0.013 C 
ATOM      3  C   UNL     1      -0.326  -2.836   9.066  0.00  0.00    +0.112 C 
ATOM      4  N   UNL     1       0.233  -1.565   9.539  0.00  0.00    -0.273 N 
ATOM      5  C   UNL     1       1.232  -1.141   8.740  0.00  0.00    +0.206 C 
ATOM      6  O   UNL     1       1.864  -0.118   8.896  0.00  0.00    -0.277 OA
ENDROOT
BRANCH   1  10
ATOM      7  C   UNL     1       0.980  -0.732   3.621  0.00  0.00    +0.069 C 
ATOM      8  C   UNL     1       0.442  -2.114   4.003  0.00  0.00    +0.004 C 
ATOM      9  C   UNL     1       1.129  -2.585   5.286  0.00  0.00    -0.076 C 
ATOM     10  N   UNL     1       0.855  -1.635   6.370  0.00  0.00    +0.387 N 
ATOM     11  C   UNL     1       1.431  -0.325   6.042  0.00  0.00    -0.076 C 
ATOM     12  C   UNL     1       0.755   0.234   4.788  0.00  0.00    +0.004 C 
ATOM     13  H   UNL     1      -0.143  -1.542   6.490  0.00  0.00    -0.081 HD
BRANCH   7  16
ATOM     14  C   UNL     1       0.693  -0.593   1.205  0.00  0.00    +0.216 C 
ATOM     15  O   UNL     1       1.659  -1.317   1.078  0.00  0.00    -0.276 OA
ATOM     16  N   UNL     1       0.272  -0.241   2.436  0.00  0.00    -0.312 N 
ATOM     17  H   UNL     1      -0.500   0.338   2.537  0.00  0.00    +0.149 HD
BRANCH  14  19
ATOM     18  C   UNL     1       0.004   1.441  -0.034  0.00  0.00    +0.017 C 
ATOM     19  C   UNL     1      -0.035  -0.088  -0.014  0.00  0.00    +0.069 C 
ATOM     20  C   UNL     1       0.642  -0.632  -1.274  0.00  0.00    +0.017 C 
ENDBRANCH  14  19
ENDBRANCH   7  16
ENDBRANCH   1  10
BRANCH   4  21
ATOM     21  C   UNL     1      -0.213  -0.880  10.675  0.00  0.00    +0.038 A 
ATOM     22  C   UNL     1      -1.248  -1.401  11.440  0.00  0.00    +0.023 A 
ATOM     23  C   UNL     1      -1.685  -0.723  12.561  0.00  0.00    +0.004 A 
ATOM     24  C   UNL     1      -1.094   0.474  12.921  0.00  0.00    +0.033 A 
ATOM     25  C   UNL     1      -0.064   0.996  12.161  0.00  0.00    +0.128 A 
ATOM     26  C   UNL     1       0.382   0.320  11.042  0.00  0.00    +0.056 A 
BRANCH  25  27
ATOM     27  N   UNL     1       0.565   2.279  12.549  0.00  0.00    +0.056 N 
ATOM     28  O   UNL     1       0.178   2.869  13.531  0.00  0.00    -0.126 OA
ATOM     29  O   UNL     1       1.466   2.736  11.885  0.00  0.00    -0.126 OA
ENDBRANCH  25  27
ENDBRANCH   4  21
TORSDOF 5
