REMARK  Name = ZINC66887586
REMARK  9 active torsions:
REMARK  status: ('A' for Active; 'I' for Inactive)
REMARK    1  A    between atoms: C_1  and  C_2
REMARK    2  A    between atoms: C_2  and  O_3
REMARK    3  A    between atoms: O_3  and  C_4
REMARK    4  A    between atoms: C_8  and  C_11
REMARK    5  A    between atoms: C_9  and  O_10
REMARK    6  A    between atoms: N_12  and  C_13
REMARK    7  A    between atoms: N_17  and  C_19
REMARK    8  A    between atoms: C_19  and  C_21
REMARK    9  A    between atoms: C_19  and  C_22
REMARK                            x       y       z     vdW  Elec       q    Type
REMARK                         _______ _______ _______ _____ _____    ______ ____
ROOT
ATOM      1  C   UNL     1       3.457  -4.103   5.782  0.00  0.00    +0.087 C 
ATOM      2  C   UNL     1       2.840  -3.580   7.105  0.00  0.00    +0.006 C 
ATOM      3  C   UNL     1       4.012  -3.687   8.103  0.00  0.00    -0.076 C 
ATOM      4  N   UNL     1       5.258  -3.693   7.314  0.00  0.00    +0.385 N 
ATOM      5  C   UNL     1       4.909  -3.571   5.882  0.00  0.00    -0.051 C 
ATOM      6  H   UNL     1       5.754  -4.558   7.469  0.00  0.00    -0.081 HD
ENDROOT
BRANCH   1   8
ATOM      7  C   UNL     1       2.259  -4.315   3.724  0.00  0.00    +0.116 C 
ATOM      8  N   UNL     1       2.769  -3.534   4.620  0.00  0.00    -0.289 NA
BRANCH   7  13
ATOM      9  C   UNL     1       0.802  -1.825   1.306  0.00  0.00    +0.162 A 
ATOM     10  C   UNL     1       0.260  -2.671   0.352  0.00  0.00    +0.049 A 
ATOM     11  C   UNL     1       0.367  -4.045   0.494  0.00  0.00    +0.004 A 
ATOM     12  C   UNL     1       1.014  -4.583   1.585  0.00  0.00    +0.013 A 
ATOM     13  C   UNL     1       1.566  -3.743   2.555  0.00  0.00    +0.038 A 
ATOM     14  C   UNL     1       1.462  -2.354   2.410  0.00  0.00    +0.167 A 
BRANCH  14  15
ATOM     15  O   UNL     1       1.999  -1.528   3.344  0.00  0.00    -0.503 OA
ATOM     16  H   UNL     1       1.394  -1.301   4.063  0.00  0.00    +0.292 HD
ENDBRANCH  14  15
BRANCH   9  17
ATOM     17  O   UNL     1       0.693  -0.477   1.160  0.00  0.00    -0.489 OA
BRANCH  17  19
ATOM     18  C   UNL     1      -0.019   1.526   0.010  0.00  0.00    +0.048 C 
ATOM     19  C   UNL     1       0.002  -0.004   0.002  0.00  0.00    +0.226 C 
ENDBRANCH  17  19
ENDBRANCH   9  17
ENDBRANCH   7  13
ENDBRANCH   1   8
BRANCH   4  20
ATOM     20  C   UNL     1       6.103  -2.561   7.715  0.00  0.00    -0.041 C 
ATOM     21  C   UNL     1       6.473  -2.699   9.194  0.00  0.00    -0.008 C 
BRANCH  20  22
ATOM     22  C   UNL     1       7.359  -2.551   6.882  0.00  0.00    -0.061 A 
ATOM     23  C   UNL     1       7.991  -3.740   6.571  0.00  0.00    +0.002 A 
ATOM     24  C   UNL     1       9.143  -3.731   5.807  0.00  0.00    +0.000 A 
ATOM     25  C   UNL     1       9.662  -2.533   5.353  0.00  0.00    +0.000 A 
ATOM     26  C   UNL     1       9.029  -1.343   5.663  0.00  0.00    +0.000 A 
ATOM     27  C   UNL     1       7.875  -1.353   6.424  0.00  0.00    +0.002 A 
ENDBRANCH  20  22
ENDBRANCH   4  20
TORSDOF 7
