REMARK  Name = ZINC00634089
REMARK  7 active torsions:
REMARK  status: ('A' for Active; 'I' for Inactive)
REMARK    1  A    between atoms: C_1  and  C_2
REMARK    2  A    between atoms: C_6  and  C_25
REMARK    3  A    between atoms: C_7  and  C_11
REMARK    4  A    between atoms: N_13  and  C_14
REMARK    5  A    between atoms: C_14  and  C_15
REMARK    6  A    between atoms: C_18  and  S_21
REMARK    7  A    between atoms: S_21  and  N_24
REMARK                            x       y       z     vdW  Elec       q    Type
REMARK                         _______ _______ _______ _____ _____    ______ ____
ROOT
ATOM      1  C   UNL     1       0.088  -5.494   2.446  0.00  0.00    +0.280 C 
ATOM      2  O   UNL     1       0.100  -6.572   1.882  0.00  0.00    -0.267 OA
ATOM      3  N   UNL     1       0.093  -5.438   3.792  0.00  0.00    -0.305 N 
ATOM      4  H   UNL     1       0.084  -4.578   4.242  0.00  0.00    +0.149 HD
ENDROOT
BRANCH   1  11
ATOM      5  C   UNL     1      -0.018   1.503   0.010  0.00  0.00    +0.044 C 
ATOM      6  C   UNL     1       0.002  -0.004   0.002  0.00  0.00    -0.047 A 
ATOM      7  C   UNL     1       0.006  -0.684  -1.209  0.00  0.00    +0.004 A 
ATOM      8  C   UNL     1       0.024  -2.050  -1.236  0.00  0.00    +0.012 A 
ATOM      9  C   UNL     1       0.039  -2.766  -0.036  0.00  0.00    +0.024 A 
ATOM     10  C   UNL     1       0.060  -4.189   0.301  0.00  0.00    +0.008 A 
ATOM     11  C   UNL     1       0.068  -4.253   1.658  0.00  0.00    +0.193 A 
ATOM     12  O   UNL     1       0.053  -3.006   2.174  0.00  0.00    -0.450 OA
ATOM     13  C   UNL     1       0.036  -2.082   1.194  0.00  0.00    +0.136 A 
ATOM     14  C   UNL     1       0.023  -0.692   1.196  0.00  0.00    +0.050 A 
ATOM     15  C   UNL     1       0.072  -5.348  -0.661  0.00  0.00    +0.048 C 
ENDBRANCH   1  11
BRANCH   3  16
ATOM     16  C   UNL     1       0.114  -6.674   4.577  0.00  0.00    +0.140 C 
BRANCH  16  17
ATOM     17  C   UNL     1       0.116  -6.337   6.046  0.00  0.00    -0.030 A 
ATOM     18  C   UNL     1       1.314  -6.161   6.713  0.00  0.00    +0.007 A 
ATOM     19  C   UNL     1       1.316  -5.852   8.060  0.00  0.00    +0.029 A 
ATOM     20  C   UNL     1       0.121  -5.718   8.740  0.00  0.00    +0.105 A 
ATOM     21  C   UNL     1      -1.077  -5.893   8.073  0.00  0.00    +0.029 A 
ATOM     22  C   UNL     1      -1.080  -6.198   6.725  0.00  0.00    +0.007 A 
BRANCH  20  23
ATOM     23  S   UNL     1       0.123  -5.325  10.458  0.00  0.00    +0.056 S 
ATOM     24  O   UNL     1      -1.111  -5.793  10.984  0.00  0.00    -0.153 OA
ATOM     25  O   UNL     1       1.379  -5.750  10.970  0.00  0.00    -0.153 OA
BRANCH  23  26
ATOM     26  N   UNL     1       0.096  -3.674  10.582  0.00  0.00    -0.204 NA
ATOM     27  H   UNL     1      -0.327  -3.252  11.347  0.00  0.00    +0.144 HD
ATOM     28  H   UNL     1       0.503  -3.128   9.891  0.00  0.00    +0.144 HD
ENDBRANCH  23  26
ENDBRANCH  20  23
ENDBRANCH  16  17
ENDBRANCH   3  16
TORSDOF 5
