REMARK  Name = ZINC67582608
REMARK  10 active torsions:
REMARK  status: ('A' for Active; 'I' for Inactive)
REMARK    1  A    between atoms: C_1  and  C_2
REMARK    2  A    between atoms: C_2  and  C_3
REMARK    3  A    between atoms: C_2  and  C_4
REMARK    4  A    between atoms: C_2  and  N_24
REMARK    5  A    between atoms: C_4  and  N_5
REMARK    6  A    between atoms: C_11  and  C_14
REMARK    7  A    between atoms: C_14  and  C_16
REMARK    8  A    between atoms: C_14  and  O_23
REMARK    9  A    between atoms: N_24  and  C_25
REMARK   10  A    between atoms: N_24  and  C_26
REMARK                            x       y       z     vdW  Elec       q    Type
REMARK                         _______ _______ _______ _____ _____    ______ ____
ROOT
ATOM      1  N   UNL     1      -1.488  -1.885  -0.257  0.00  0.00    -0.301 N 
ATOM      2  C   UNL     1      -2.667  -2.501  -0.475  0.00  0.00    +0.302 C 
ATOM      3  O   UNL     1      -3.700  -1.861  -0.452  0.00  0.00    -0.253 OA
ATOM      4  N   UNL     1      -2.700  -3.826  -0.718  0.00  0.00    -0.286 N 
ATOM      5  C   UNL     1      -1.477  -4.635  -0.629  0.00  0.00    +0.109 C 
ATOM      6  C   UNL     1      -1.300  -5.408  -1.940  0.00  0.00    +0.025 C 
ATOM      7  C   UNL     1      -2.568  -6.216  -2.225  0.00  0.00    +0.025 C 
ATOM      8  C   UNL     1      -3.757  -5.265  -2.381  0.00  0.00    +0.025 C 
ATOM      9  C   UNL     1      -3.962  -4.491  -1.070  0.00  0.00    +0.109 C 
ATOM     10  H   UNL     1      -0.672  -2.407  -0.197  0.00  0.00    +0.150 HD
ENDROOT
BRANCH   1  11
ATOM     11  C   UNL     1      -1.438  -0.429  -0.110  0.00  0.00    +0.093 C 
BRANCH  11  13
ATOM     12  C   UNL     1       0.772  -0.361  -1.274  0.00  0.00    -0.008 C 
ATOM     13  C   UNL     1       0.019   0.023   0.002  0.00  0.00    -0.056 C 
ATOM     14  C   UNL     1       0.070   1.541   0.186  0.00  0.00    -0.008 C 
BRANCH  13  15
ATOM     15  N   UNL     1       0.648  -0.632   1.157  0.00  0.00    +0.380 N 
ATOM     16  C   UNL     1       2.014  -0.120   1.326  0.00  0.00    -0.096 C 
ATOM     17  C   UNL     1      -0.135  -0.348   2.367  0.00  0.00    -0.096 C 
ATOM     18  H   UNL     1       0.679  -1.629   1.002  0.00  0.00    -0.082 HD
ENDBRANCH  13  15
ENDBRANCH  11  13
ENDBRANCH   1  11
BRANCH   7  19
ATOM     19  C   UNL     1      -2.383  -7.017  -3.515  0.00  0.00    +0.148 C 
BRANCH  19  20
ATOM     20  C   UNL     1      -3.631  -7.812  -3.797  0.00  0.00    -0.019 A 
ATOM     21  C   UNL     1      -4.685  -7.228  -4.474  0.00  0.00    +0.007 A 
ATOM     22  C   UNL     1      -5.830  -7.957  -4.732  0.00  0.00    +0.020 A 
ATOM     23  C   UNL     1      -5.922  -9.273  -4.313  0.00  0.00    +0.041 A 
ATOM     24  C   UNL     1      -4.867  -9.857  -3.636  0.00  0.00    +0.020 A 
ATOM     25  C   UNL     1      -3.720  -9.128  -3.383  0.00  0.00    +0.007 A 
ATOM     26 CL   UNL     1      -7.360 -10.189  -4.637  0.00  0.00    -0.084 Cl
ENDBRANCH  19  20
BRANCH  19  27
ATOM     27  O   UNL     1      -2.135  -6.120  -4.601  0.00  0.00    -0.387 OA
ATOM     28  H   UNL     1      -2.848  -5.487  -4.758  0.00  0.00    +0.210 HD
ENDBRANCH  19  27
ENDBRANCH   7  19
TORSDOF 6
