REMARK  Name = ZINC42995874
REMARK  10 active torsions:
REMARK  status: ('A' for Active; 'I' for Inactive)
REMARK    1  A    between atoms: C_1  and  C_2
REMARK    2  A    between atoms: C_7  and  C_9
REMARK    3  A    between atoms: C_7  and  C_10
REMARK    4  A    between atoms: N_11  and  C_13
REMARK    5  A    between atoms: C_13  and  C_14
REMARK    6  A    between atoms: C_17  and  C_22
REMARK    7  A    between atoms: N_24  and  C_25
REMARK    8  A    between atoms: C_25  and  C_26
REMARK    9  A    between atoms: C_26  and  C_27
REMARK   10  A    between atoms: N_35  and  C_36
REMARK                            x       y       z     vdW  Elec       q    Type
REMARK                         _______ _______ _______ _____ _____    ______ ____
ROOT
ATOM      1  C   UNL     1      -3.598  -2.630  -0.541  0.00  0.00    +0.003 A 
ATOM      2  C   UNL     1      -4.417  -3.347  -1.352  0.00  0.00    +0.020 A 
ATOM      3  C   UNL     1      -5.795  -3.131  -1.323  0.00  0.00    +0.020 A 
ATOM      4  C   UNL     1      -6.309  -2.173  -0.453  0.00  0.00    +0.101 A 
ATOM      5  C   UNL     1      -5.413  -1.450   0.376  0.00  0.00    +0.261 A 
ATOM      6  O   UNL     1      -5.838  -0.606   1.146  0.00  0.00    -0.267 OA
ATOM      7  N   UNL     1      -4.092  -1.701   0.311  0.00  0.00    -0.327 N 
ATOM      8  H   UNL     1      -3.483  -1.206   0.882  0.00  0.00    +0.169 HD
ENDROOT
BRANCH   4   9
ATOM      9  C   UNL     1      -7.756  -1.916  -0.393  0.00  0.00    +0.249 C 
ATOM     10  O   UNL     1      -8.525  -2.614  -1.027  0.00  0.00    -0.270 OA
ATOM     11  N   UNL     1      -8.231  -0.907   0.364  0.00  0.00    -0.311 N 
ATOM     12  H   UNL     1      -7.627  -0.397   0.926  0.00  0.00    +0.149 HD
BRANCH  11  13
ATOM     13  C   UNL     1      -9.659  -0.581   0.339  0.00  0.00    +0.112 C 
BRANCH  13  14
ATOM     14  C   UNL     1      -9.931   0.594   1.280  0.00  0.00    +0.093 C 
BRANCH  14  15
ATOM     15  C   UNL     1     -11.400   0.929   1.254  0.00  0.00    +0.112 A 
ATOM     16  N   UNL     1     -11.957   1.773   0.436  0.00  0.00    -0.232 NA
ATOM     17  C   UNL     1     -13.291   1.837   0.684  0.00  0.00    +0.089 A 
ATOM     18  C   UNL     1     -14.343   2.562   0.118  0.00  0.00    +0.030 A 
ATOM     19  C   UNL     1     -15.612   2.406   0.599  0.00  0.00    +0.002 A 
ATOM     20  C   UNL     1     -15.871   1.534   1.646  0.00  0.00    +0.002 A 
ATOM     21  C   UNL     1     -14.848   0.808   2.220  0.00  0.00    +0.028 A 
ATOM     22  C   UNL     1     -13.552   0.953   1.744  0.00  0.00    +0.069 A 
ATOM     23  N   UNL     1     -12.337   0.390   2.080  0.00  0.00    -0.331 N 
ATOM     24  C   UNL     1     -12.100  -0.603   3.131  0.00  0.00    +0.150 C 
ENDBRANCH  14  15
ENDBRANCH  13  14
ENDBRANCH  11  13
ENDBRANCH   4   9
BRANCH   1  25
ATOM     25  C   UNL     1      -2.112  -2.877  -0.587  0.00  0.00    -0.024 C 
BRANCH  25  35
ATOM     26  C   UNL     1      -1.626  -6.458   2.745  0.00  0.00    +0.009 C 
ATOM     27  C   UNL     1      -1.137  -5.621   1.555  0.00  0.00    -0.048 C 
ATOM     28  C   UNL     1      -0.052  -4.587   1.964  0.00  0.00    -0.011 C 
ATOM     29  C   UNL     1      -0.206  -3.580   0.790  0.00  0.00    -0.067 C 
ATOM     30  C   UNL     1       0.394  -4.218  -0.447  0.00  0.00    -0.009 C 
ATOM     31  C   UNL     1       0.085  -5.678  -0.692  0.00  0.00    -0.036 C 
ATOM     32  C   UNL     1      -0.525  -6.474   0.444  0.00  0.00    +0.011 C 
ATOM     33  C   UNL     1       1.422  -6.371  -1.064  0.00  0.00    +0.011 C 
ATOM     34  C   UNL     1      -0.816  -5.807  -1.935  0.00  0.00    +0.011 C 
ATOM     35  N   UNL     1      -1.671  -3.426   0.690  0.00  0.00    +0.386 N 
ATOM     36  C   UNL     1      -2.261  -4.753   0.944  0.00  0.00    -0.071 C 
ATOM     37  H   UNL     1      -1.978  -2.799   1.437  0.00  0.00    -0.081 HD
ENDBRANCH  25  35
ENDBRANCH   1  25
TORSDOF 6
