REMARK  Name = ZINC39638720
REMARK  9 active torsions:
REMARK  status: ('A' for Active; 'I' for Inactive)
REMARK    1  A    between atoms: C_1  and  C_2
REMARK    2  A    between atoms: C_2  and  O_3
REMARK    3  A    between atoms: O_3  and  C_4
REMARK    4  A    between atoms: C_9  and  C_10
REMARK    5  A    between atoms: C_10  and  N_11
REMARK    6  A    between atoms: C_12  and  C_14
REMARK    7  A    between atoms: C_25  and  C_27
REMARK    8  A    between atoms: C_30  and  O_33
REMARK    9  A    between atoms: O_33  and  C_34
REMARK                            x       y       z     vdW  Elec       q    Type
REMARK                         _______ _______ _______ _____ _____    ______ ____
ROOT
ATOM      1  C   UNL     1       4.508   1.088  -2.961  0.00  0.00    +0.100 C 
ATOM      2  C   UNL     1       4.665   1.922  -1.670  0.00  0.00    +0.121 C 
ATOM      3  N   UNL     1       5.763   2.872  -1.968  0.00  0.00    -0.296 N 
ATOM      4  C   UNL     1       5.529   3.274  -3.376  0.00  0.00    +0.115 C 
ATOM      5  C   UNL     1       5.077   1.979  -4.078  0.00  0.00    -0.004 C 
ATOM      6  C   UNL     1       6.267   1.296  -4.745  0.00  0.00    -0.010 C 
ATOM      7  C   UNL     1       6.779   2.175  -5.889  0.00  0.00    -0.082 C 
ATOM      8  N   UNL     1       5.702   2.388  -6.864  0.00  0.00    +0.379 N 
ATOM      9  C   UNL     1       4.599   3.128  -6.239  0.00  0.00    -0.082 C 
ATOM     10  C   UNL     1       3.995   2.289  -5.109  0.00  0.00    -0.010 C 
ATOM     11  C   UNL     1       6.750   3.277  -1.146  0.00  0.00    +0.248 C 
ATOM     12  O   UNL     1       6.885   2.757  -0.055  0.00  0.00    -0.270 OA
ATOM     13  H   UNL     1       6.059   2.917  -7.646  0.00  0.00    -0.086 HD
ATOM     14  H   UNL     1       5.365   1.496  -7.191  0.00  0.00    -0.086 HD
ENDROOT
BRANCH  11  15
ATOM     15  C   UNL     1       7.668   4.353  -1.569  0.00  0.00    +0.055 A 
ATOM     16  C   UNL     1       7.307   5.232  -2.601  0.00  0.00    +0.020 A 
ATOM     17  C   UNL     1       8.198   6.221  -2.961  0.00  0.00    +0.068 A 
ATOM     18  C   UNL     1       9.417   6.314  -2.295  0.00  0.00    +0.220 A 
ATOM     19  N   UNL     1       9.729   5.469  -1.325  0.00  0.00    -0.220 NA
ATOM     20  C   UNL     1       8.906   4.514  -0.945  0.00  0.00    +0.127 A 
BRANCH  18  21
ATOM     21  O   UNL     1      10.296   7.284  -2.644  0.00  0.00    -0.438 OA
BRANCH  21  22
ATOM     22  C   UNL     1      11.434   7.407  -1.911  0.00  0.00    +0.130 A 
ATOM     23  C   UNL     1      12.497   6.542  -2.128  0.00  0.00    +0.046 A 
ATOM     24  C   UNL     1      13.653   6.670  -1.381  0.00  0.00    +0.004 A 
ATOM     25  C   UNL     1      13.750   7.659  -0.420  0.00  0.00    +0.000 A 
ATOM     26  C   UNL     1      12.692   8.522  -0.202  0.00  0.00    +0.004 A 
ATOM     27  C   UNL     1      11.537   8.402  -0.950  0.00  0.00    +0.046 A 
ENDBRANCH  21  22
ENDBRANCH  18  21
ENDBRANCH  11  15
BRANCH   1  29
ATOM     28  N   UNL     1       2.705  -0.334  -3.881  0.00  0.00    -0.311 N 
ATOM     29  C   UNL     1       3.054   0.787  -3.219  0.00  0.00    +0.218 C 
ATOM     30  O   UNL     1       2.198   1.553  -2.829  0.00  0.00    -0.275 OA
ATOM     31  H   UNL     1       3.390  -0.947  -4.192  0.00  0.00    +0.149 HD
BRANCH  28  32
ATOM     32  C   UNL     1       1.292  -0.627  -4.131  0.00  0.00    +0.143 C 
BRANCH  32  38
ATOM     33  C   UNL     1       1.267  -3.133  -4.204  0.00  0.00    +0.125 A 
ATOM     34  C   UNL     1       1.152  -4.329  -4.899  0.00  0.00    +0.046 A 
ATOM     35  C   UNL     1       0.951  -4.316  -6.265  0.00  0.00    +0.004 A 
ATOM     36  C   UNL     1       0.863  -3.112  -6.941  0.00  0.00    +0.001 A 
ATOM     37  C   UNL     1       0.978  -1.919  -6.251  0.00  0.00    +0.009 A 
ATOM     38  C   UNL     1       1.173  -1.927  -4.883  0.00  0.00    +0.011 A 
BRANCH  33  39
ATOM     39  O   UNL     1       1.464  -3.143  -2.860  0.00  0.00    -0.492 OA
BRANCH  39  41
ATOM     40  C   UNL     1       1.773  -4.232  -0.724  0.00  0.00    +0.048 C 
ATOM     41  C   UNL     1       1.551  -4.421  -2.226  0.00  0.00    +0.225 C 
ENDBRANCH  39  41
ENDBRANCH  33  39
ENDBRANCH  32  38
ENDBRANCH  28  32
ENDBRANCH   1  29
TORSDOF 8
