REMARK  Name = ZINC66253714
REMARK  8 active torsions:
REMARK  status: ('A' for Active; 'I' for Inactive)
REMARK    1  A    between atoms: C_1  and  C_2
REMARK    2  A    between atoms: C_10  and  S_12
REMARK    3  A    between atoms: S_12  and  N_15
REMARK    4  A    between atoms: N_15  and  C_16
REMARK    5  A    between atoms: C_18  and  C_25
REMARK    6  A    between atoms: C_19  and  S_21
REMARK    7  A    between atoms: S_21  and  C_22
REMARK    8  A    between atoms: C_22  and  C_23
REMARK                            x       y       z     vdW  Elec       q    Type
REMARK                         _______ _______ _______ _____ _____    ______ ____
ROOT
ATOM      1  S   UNL     1       0.055  -2.911   2.780  0.00  0.00    +0.096 S 
ATOM      2  O   UNL     1       1.094  -3.877   2.697  0.00  0.00    -0.148 OA
ATOM      3  O   UNL     1       0.019  -1.917   3.794  0.00  0.00    -0.148 OA
ENDROOT
BRANCH   1  13
ATOM      4  C   UNL     1      -0.018   1.503   0.010  0.00  0.00    +0.044 C 
ATOM      5  C   UNL     1       0.002  -0.004   0.002  0.00  0.00    -0.048 A 
ATOM      6  C   UNL     1       0.005  -0.669  -1.186  0.00  0.00    +0.013 A 
ATOM      7  C   UNL     1       0.025  -2.073  -1.195  0.00  0.00    +0.003 A 
ATOM      8  C   UNL     1       0.030  -2.799  -2.401  0.00  0.00    +0.011 A 
ATOM      9  C   UNL     1       0.050  -4.162  -2.333  0.00  0.00    +0.020 A 
ATOM     10  C   UNL     1       0.064  -4.796  -1.092  0.00  0.00    +0.111 A 
ATOM     11  N   UNL     1       0.060  -4.118   0.029  0.00  0.00    -0.253 NA
ATOM     12  C   UNL     1       0.041  -2.781   0.033  0.00  0.00    +0.098 A 
ATOM     13  C   UNL     1       0.036  -2.059   1.238  0.00  0.00    +0.136 A 
ATOM     14  C   UNL     1       0.023  -0.698   1.210  0.00  0.00    +0.034 A 
ENDBRANCH   1  13
BRANCH   1  15
ATOM     15  N   UNL     1      -1.367  -3.753   2.892  0.00  0.00    -0.070 NA
BRANCH  15  16
ATOM     16  C   UNL     1      -1.630  -4.526   4.016  0.00  0.00    +0.203 A 
ATOM     17  N   UNL     1      -2.687  -5.267   4.292  0.00  0.00    -0.226 NA
ATOM     18  C   UNL     1      -2.772  -5.946   5.424  0.00  0.00    +0.061 A 
ATOM     19  C   UNL     1      -1.753  -5.882   6.324  0.00  0.00    +0.070 A 
ATOM     20  S   UNL     1      -0.625  -4.790   5.470  0.00  0.00    -0.043 S 
ATOM     21  C   UNL     1      -3.990  -6.784   5.715  0.00  0.00    +0.067 C 
BRANCH  19  22
ATOM     22  S   UNL     1      -1.589  -6.666   7.894  0.00  0.00    -0.101 S 
BRANCH  22  23
ATOM     23  C   UNL     1       0.027  -6.106   8.497  0.00  0.00    +0.193 C 
BRANCH  23  24
ATOM     24  C   UNL     1       0.290  -6.697   9.819  0.00  0.00    +0.074 C 
ATOM     25  N   UNL     1       0.492  -7.153  10.839  0.00  0.00    -0.196 NA
ENDBRANCH  23  24
ENDBRANCH  22  23
ENDBRANCH  19  22
ENDBRANCH  15  16
ENDBRANCH   1  15
TORSDOF 6
