REMARK  Name = ZINC66978693
REMARK  10 active torsions:
REMARK  status: ('A' for Active; 'I' for Inactive)
REMARK    1  A    between atoms: C_1  and  C_2
REMARK    2  A    between atoms: C_2  and  N_3
REMARK    3  A    between atoms: N_3  and  C_4
REMARK    4  A    between atoms: N_3  and  S_24
REMARK    5  A    between atoms: N_12  and  C_13
REMARK    6  A    between atoms: N_18  and  C_20
REMARK    7  A    between atoms: C_20  and  C_21
REMARK    8  A    between atoms: C_21  and  O_22
REMARK    9  A    between atoms: O_22  and  C_23
REMARK   10  A    between atoms: S_24  and  C_27
REMARK                            x       y       z     vdW  Elec       q    Type
REMARK                         _______ _______ _______ _____ _____    ______ ____
ROOT
ATOM      1  C   UNL     1      -2.010  -0.659  -1.426  0.00  0.00    +0.082 C 
ATOM      2  C   UNL     1      -1.919   0.660  -2.197  0.00  0.00    +0.039 C 
ATOM      3  C   UNL     1      -2.591   0.495  -3.564  0.00  0.00    +0.111 C 
ATOM      4  N   UNL     1      -1.983  -0.650  -4.255  0.00  0.00    -0.286 N 
ATOM      5  C   UNL     1      -1.936  -1.947  -3.565  0.00  0.00    +0.111 C 
ATOM      6  C   UNL     1      -1.272  -1.755  -2.198  0.00  0.00    +0.039 C 
ATOM      7  C   UNL     1      -1.479  -0.514  -5.497  0.00  0.00    +0.302 C 
ATOM      8  O   UNL     1      -1.603   0.539  -6.091  0.00  0.00    -0.253 OA
ATOM      9  N   UNL     1      -0.837  -1.546  -6.080  0.00  0.00    -0.298 N 
ATOM     10  H   UNL     1      -0.797  -2.407  -5.635  0.00  0.00    +0.150 HD
ENDROOT
BRANCH   9  11
ATOM     11  C   UNL     1      -0.199  -1.367  -7.387  0.00  0.00    +0.058 C 
ATOM     12  C   UNL     1      -1.234  -1.579  -8.495  0.00  0.00    +0.018 C 
ATOM     13  C   UNL     1      -0.541  -1.468  -9.856  0.00  0.00    -0.017 C 
ATOM     14  C   UNL     1       0.600  -2.485  -9.926  0.00  0.00    -0.079 C 
ATOM     15  N   UNL     1       1.569  -2.213  -8.858  0.00  0.00    +0.382 N 
ATOM     16  C   UNL     1       0.930  -2.387  -7.548  0.00  0.00    -0.056 C 
ATOM     17  H   UNL     1       1.905  -1.265  -8.943  0.00  0.00    -0.082 HD
BRANCH  15  18
ATOM     18  C   UNL     1       2.701  -3.142  -8.977  0.00  0.00    -0.050 C 
BRANCH  18  19
ATOM     19  C   UNL     1       3.449  -2.869 -10.283  0.00  0.00    +0.141 C 
BRANCH  19  20
ATOM     20  O   UNL     1       4.034  -1.566 -10.234  0.00  0.00    -0.385 OA
ATOM     21  C   UNL     1       4.760  -1.210 -11.412  0.00  0.00    +0.193 C 
ENDBRANCH  19  20
ENDBRANCH  18  19
ENDBRANCH  15  18
ENDBRANCH   9  11
BRANCH   1  22
ATOM     22  N   UNL     1      -1.398  -0.496  -0.105  0.00  0.00    -0.179 NA
BRANCH  22  23
ATOM     23  S   UNL     1      -2.276  -0.821   1.260  0.00  0.00    +0.029 S 
ATOM     24  O   UNL     1      -3.256  -1.764   0.846  0.00  0.00    -0.158 OA
ATOM     25  O   UNL     1      -1.308  -1.167   2.241  0.00  0.00    -0.158 OA
ATOM     26  C   UNL     1      -3.068   0.753   1.691  0.00  0.00    +0.215 C 
ENDBRANCH  22  23
BRANCH  22  28
ATOM     27  C   UNL     1       0.927  -1.254  -0.065  0.00  0.00    +0.022 C 
ATOM     28  C   UNL     1      -0.009  -0.045   0.008  0.00  0.00    +0.106 C 
ENDBRANCH  22  28
ENDBRANCH   1  22
TORSDOF 7
