REMARK  Name = ZINC42431848
REMARK  6 active torsions:
REMARK  status: ('A' for Active; 'I' for Inactive)
REMARK    1  A    between atoms: C_1  and  C_2
REMARK    2  A    between atoms: C_2  and  N_3
REMARK    3  A    between atoms: N_3  and  C_4
REMARK    4  A    between atoms: N_7  and  C_8
REMARK    5  A    between atoms: C_11  and  O_17
REMARK    6  A    between atoms: C_13  and  C_14
REMARK                            x       y       z     vdW  Elec       q    Type
REMARK                         _______ _______ _______ _____ _____    ______ ____
ROOT
ATOM      1  C   UNL     1      -3.869  -1.559   2.398  0.00  0.00    +0.049 A 
ATOM      2  C   UNL     1      -3.590  -0.836   3.551  0.00  0.00    +0.028 A 
ATOM      3  C   UNL     1      -4.184  -1.183   4.747  0.00  0.00    +0.047 A 
ATOM      4  C   UNL     1      -5.065  -2.257   4.809  0.00  0.00    +0.118 A 
ATOM      5  C   UNL     1      -5.355  -2.987   3.672  0.00  0.00    +0.062 A 
ATOM      6  C   UNL     1      -4.763  -2.640   2.453  0.00  0.00    +0.088 A 
ENDROOT
BRANCH   1  11
ATOM      7  N   UNL     1      -1.394  -0.485   0.004  0.00  0.00    -0.289 N 
ATOM      8  C   UNL     1      -2.103  -0.716  -1.257  0.00  0.00    +0.133 C 
ATOM      9  C   UNL     1      -2.006  -0.740   1.177  0.00  0.00    +0.306 C 
ATOM     10  O   UNL     1      -1.417  -0.548   2.224  0.00  0.00    -0.252 OA
ATOM     11  N   UNL     1      -3.269  -1.208   1.191  0.00  0.00    -0.269 N 
ATOM     12  H   UNL     1      -3.761  -1.300   0.360  0.00  0.00    +0.156 HD
BRANCH   7  14
ATOM     13  C   UNL     1      -0.042   1.554   0.017  0.00  0.00    +0.024 C 
ATOM     14  C   UNL     1      -0.020   0.024  -0.011  0.00  0.00    +0.105 C 
ENDBRANCH   7  14
ENDBRANCH   1  11
BRANCH   6  15
ATOM     15  C   UNL     1      -5.070  -3.409   1.236  0.00  0.00    +0.388 C 
ATOM     16  O   UNL     1      -5.921  -4.287   1.266  0.00  0.00    -0.241 OA
ATOM     17  O   UNL     1      -4.474  -3.169   0.195  0.00  0.00    -0.241 OA
ENDBRANCH   6  15
BRANCH   4  18
ATOM     18  O   UNL     1      -5.644  -2.591   5.994  0.00  0.00    -0.507 OA
ATOM     19  H   UNL     1      -6.485  -2.144   6.160  0.00  0.00    +0.292 HD
ENDBRANCH   4  18
TORSDOF 4
