REMARK  Name = ZINC44963187
REMARK  6 active torsions:
REMARK  status: ('A' for Active; 'I' for Inactive)
REMARK    1  A    between atoms: C_9  and  N_11
REMARK    2  A    between atoms: N_18  and  C1*_21
REMARK    3  A    between atoms: C2*_23  and  O2*_33
REMARK    4  A    between atoms: C3*_25  and  O3*_32
REMARK    5  A    between atoms: C4*_27  and  C5*_30
REMARK    6  A    between atoms: C5*_30  and  O5*_31
REMARK                            x       y       z     vdW  Elec       q    Type
REMARK                         _______ _______ _______ _____ _____    ______ ____
ROOT
ATOM      1  N   UNL     1       4.147  -1.058   1.302  0.00  0.00    -0.320 N 
ATOM      2  C   UNL     1       5.115  -0.159   1.715  0.00  0.00    +0.150 A 
ATOM      3  C   UNL     1       5.689  -0.259   2.994  0.00  0.00    +0.147 A 
ATOM      4  C   UNL     1       6.667   0.682   3.357  0.00  0.00    +0.167 A 
ATOM      5  N   UNL     1       7.012   1.624   2.485  0.00  0.00    -0.216 NA
ATOM      6  C   UNL     1       6.447   1.679   1.297  0.00  0.00    +0.225 A 
ATOM      7  N   UNL     1       5.527   0.814   0.910  0.00  0.00    -0.219 NA
ATOM      8  N   UNL     1       7.050   0.357   4.634  0.00  0.00    -0.286 N 
ATOM      9  C   UNL     1       6.326  -0.734   5.012  0.00  0.00    +0.203 A 
ATOM     10  N   UNL     1       5.528  -1.094   4.048  0.00  0.00    -0.231 NA
ATOM     11  H   UNL     1       3.854  -1.764   1.899  0.00  0.00    +0.148 HD
ENDROOT
BRANCH   1  20
ATOM     12  C   UNL     1      -0.017   1.377   0.010  0.00  0.00    +0.000 A 
ATOM     13  C   UNL     1       1.172   2.083   0.002  0.00  0.00    +0.000 A 
ATOM     14  C   UNL     1       2.376   1.406  -0.013  0.00  0.00    +0.006 A 
ATOM     15  C   UNL     1       2.396   0.021  -0.021  0.00  0.00    -0.024 A 
ATOM     16  C   UNL     1       1.208  -0.685  -0.013  0.00  0.00    -0.042 A 
ATOM     17  C   UNL     1       0.002  -0.004   0.002  0.00  0.00    +0.004 A 
ATOM     18  C   UNL     1       1.496  -2.171  -0.025  0.00  0.00    +0.037 C 
ATOM     19  C   UNL     1       2.966  -2.294  -0.480  0.00  0.00    +0.032 C 
ATOM     20  C   UNL     1       3.564  -0.942  -0.037  0.00  0.00    +0.103 C 
ENDBRANCH   1  20
BRANCH   8  21
ATOM     21  C1* UNL     1       8.053   1.054   5.442  0.00  0.00    +0.253 C 
ATOM     22  C2* UNL     1       7.405   2.233   6.203  0.00  0.00    +0.195 C 
ATOM     23  C3* UNL     1       8.125   2.238   7.570  0.00  0.00    +0.178 C 
ATOM     24  C4* UNL     1       9.123   1.062   7.474  0.00  0.00    +0.177 C 
ATOM     25  O4* UNL     1       8.562   0.182   6.474  0.00  0.00    -0.346 OA
BRANCH  23  26
ATOM     26  O3* UNL     1       7.191   2.021   8.629  0.00  0.00    -0.386 OA
ATOM     27  H3* UNL     1       7.589   2.014   9.510  0.00  0.00    +0.210 HD
ENDBRANCH  23  26
BRANCH  22  28
ATOM     28  O2* UNL     1       7.633   3.462   5.509  0.00  0.00    -0.385 OA
ATOM     29  H2* UNL     1       7.248   4.235   5.943  0.00  0.00    +0.210 HD
ENDBRANCH  22  28
BRANCH  24  30
ATOM     30  C5* UNL     1       9.231   0.344   8.820  0.00  0.00    +0.190 C 
BRANCH  30  31
ATOM     31  O5* UNL     1      10.241  -0.664   8.743  0.00  0.00    -0.392 OA
ATOM     32  H5* UNL     1      10.364  -1.161   9.563  0.00  0.00    +0.210 HD
ENDBRANCH  30  31
ENDBRANCH  24  30
ENDBRANCH   8  21
TORSDOF 6
