REMARK  Name = ZINC43766980
REMARK  11 active torsions:
REMARK  status: ('A' for Active; 'I' for Inactive)
REMARK    1  A    between atoms: C_1  and  C_2
REMARK    2  A    between atoms: C_2  and  C_3
REMARK    3  A    between atoms: C_14  and  O_37
REMARK    4  A    between atoms: C_18  and  C_36
REMARK    5  A    between atoms: C_23  and  C_35
REMARK    6  A    between atoms: C_24  and  C_26
REMARK    7  A    between atoms: C_26  and  C_34
REMARK    8  A    between atoms: N_27  and  N_28
REMARK    9  A    between atoms: C_29  and  O_31
REMARK   10  A    between atoms: O_31  and  C_32
REMARK   11  A    between atoms: C_32  and  C_33
REMARK                            x       y       z     vdW  Elec       q    Type
REMARK                         _______ _______ _______ _____ _____    ______ ____
ROOT
ATOM      1  C   UNL     1       1.038  -0.308  -1.056  0.00  0.00    -0.002 C 
ATOM      2  C   UNL     1       0.232   0.265  -2.253  0.00  0.00    +0.008 C 
ATOM      3  C   UNL     1       0.234  -0.895  -3.255  0.00  0.00    -0.000 C 
ATOM      4  C   UNL     1      -0.871  -0.871  -4.296  0.00  0.00    +0.000 C 
ATOM      5  C   UNL     1      -0.689   0.347  -5.208  0.00  0.00    +0.031 C 
ATOM      6  C   UNL     1      -1.679   0.273  -6.333  0.00  0.00    -0.027 C 
ATOM      7  C   UNL     1      -2.173  -0.848  -6.771  0.00  0.00    -0.065 C 
ATOM      8  C   UNL     1      -3.161  -0.798  -7.924  0.00  0.00    +0.062 C 
ATOM      9  C   UNL     1      -2.687  -1.771  -9.008  0.00  0.00    +0.119 C 
ATOM     10  C   UNL     1      -2.512  -3.164  -8.401  0.00  0.00    +0.032 C 
ATOM     11  C   UNL     1      -1.408  -3.131  -7.343  0.00  0.00    +0.014 C 
ATOM     12  C   UNL     1      -1.823  -2.193  -6.206  0.00  0.00    -0.008 C 
ATOM     13  C   UNL     1      -0.743  -2.148  -5.138  0.00  0.00    +0.003 C 
ATOM     14  C   UNL     1      -0.793  -3.405  -4.273  0.00  0.00    +0.005 C 
ATOM     15  C   UNL     1       0.247  -3.361  -3.142  0.00  0.00    +0.008 C 
ATOM     16  C   UNL     1      -0.012  -2.114  -2.326  0.00  0.00    -0.021 C 
ATOM     17  C   UNL     1       0.921  -1.850  -1.147  0.00  0.00    +0.044 C 
ATOM     18  C   UNL     1      -1.467  -2.121  -1.853  0.00  0.00    +0.012 C 
ATOM     19  C   UNL     1      -3.074  -2.772  -5.543  0.00  0.00    +0.016 C 
ENDROOT
BRANCH  17  20
ATOM     20  C   UNL     1       2.274  -2.462  -1.403  0.00  0.00    +0.038 C 
ATOM     21  N   UNL     1       2.808  -3.224  -0.524  0.00  0.00    -0.187 NA
ATOM     22  C   UNL     1       2.998  -2.178  -2.694  0.00  0.00    +0.062 C 
BRANCH  21  23
ATOM     23  N   UNL     1       2.092  -3.575   0.628  0.00  0.00    -0.172 N 
ATOM     24  C   UNL     1       2.608  -4.467   1.496  0.00  0.00    +0.420 C 
ATOM     25  O   UNL     1       1.949  -4.841   2.447  0.00  0.00    -0.225 OA
ATOM     26  H   UNL     1       1.225  -3.176   0.800  0.00  0.00    +0.181 HD
BRANCH  24  27
ATOM     27  O   UNL     1       3.853  -4.944   1.312  0.00  0.00    -0.450 OA
BRANCH  27  28
ATOM     28  C   UNL     1       4.336  -5.886   2.272  0.00  0.00    +0.230 C 
ATOM     29  C   UNL     1       5.758  -6.311   1.898  0.00  0.00    +0.048 C 
ENDBRANCH  27  28
ENDBRANCH  24  27
ENDBRANCH  21  23
ENDBRANCH  17  20
BRANCH   1  31
ATOM     30  C   UNL     1       0.660   1.697   0.385  0.00  0.00    +0.004 C 
ATOM     31  C   UNL     1       0.444   0.188   0.263  0.00  0.00    +0.001 C 
ENDBRANCH   1  31
BRANCH   9  32
ATOM     32  O   UNL     1      -1.439  -1.322  -9.539  0.00  0.00    -0.391 OA
ATOM     33  H   UNL     1      -1.475  -0.443  -9.940  0.00  0.00    +0.210 HD
ENDBRANCH   9  32
TORSDOF 6
