REMARK  Name = ZINC11036541
REMARK  3 active torsions:
REMARK  status: ('A' for Active; 'I' for Inactive)
REMARK    1  A    between atoms: C_1  and  C_2
REMARK    2  A    between atoms: C_4  and  C_23
REMARK    3  A    between atoms: C_14  and  C_17
REMARK                            x       y       z     vdW  Elec       q    Type
REMARK                         _______ _______ _______ _____ _____    ______ ____
ROOT
ATOM      1  C   UNL     1      -4.234   2.459   2.321  0.00  0.00    +0.044 C 
ATOM      2  C   UNL     1      -2.745   2.229   2.346  0.00  0.00    -0.037 A 
ATOM      3  C   UNL     1      -2.087   1.788   1.221  0.00  0.00    +0.027 A 
ATOM      4  C   UNL     1      -0.718   1.572   1.248  0.00  0.00    +0.040 A 
ATOM      5  N   UNL     1      -0.028   1.794   2.350  0.00  0.00    -0.245 NA
ATOM      6  C   UNL     1      -0.611   2.218   3.450  0.00  0.00    +0.111 A 
ATOM      7  C   UNL     1      -2.000   2.468   3.528  0.00  0.00    +0.032 A 
ATOM      8  C   UNL     1      -2.487   2.945   4.819  0.00  0.00    +0.058 A 
ATOM      9  C   UNL     1      -1.540   3.078   5.824  0.00  0.00    +0.097 A 
ATOM     10  S   UNL     1      -0.012   2.605   5.079  0.00  0.00    -0.062 S 
ATOM     11  C   UNL     1      -1.836   3.504   7.133  0.00  0.00    +0.254 C 
ATOM     12  O   UNL     1      -0.969   3.783   7.942  0.00  0.00    -0.270 OA
ATOM     13  N   UNL     1      -3.163   3.582   7.427  0.00  0.00    -0.288 N 
ATOM     14  C   UNL     1      -4.149   3.030   6.501  0.00  0.00    +0.196 C 
ATOM     15  N   UNL     1      -3.821   3.284   5.097  0.00  0.00    -0.320 N 
ATOM     16  C   UNL     1      -0.013   1.086   0.008  0.00  0.00    +0.065 C 
ATOM     17  H   UNL     1      -3.453   4.002   8.252  0.00  0.00    +0.151 HD
ATOM     18  H   UNL     1      -4.009   4.244   4.850  0.00  0.00    +0.148 HD
ENDROOT
BRANCH  14  19
ATOM     19  C   UNL     1      -4.237   1.542   6.717  0.00  0.00    +0.029 A 
ATOM     20  C   UNL     1      -4.034   0.830   7.852  0.00  0.00    +0.016 A 
ATOM     21  C   UNL     1      -4.172  -0.545   7.816  0.00  0.00    +0.028 A 
ATOM     22  C   UNL     1      -4.508  -1.141   6.645  0.00  0.00    +0.078 A 
ATOM     23  S   UNL     1      -4.645   0.258   5.545  0.00  0.00    -0.078 S 
ATOM     24 CL   UNL     1      -4.748  -2.826   6.305  0.00  0.00    -0.076 Cl
ENDBRANCH  14  19
TORSDOF 1
