REMARK  Name = ZINC66317628
REMARK  9 active torsions:
REMARK  status: ('A' for Active; 'I' for Inactive)
REMARK    1  A    between atoms: C_4  and  C_7
REMARK    2  A    between atoms: C_10  and  C_12
REMARK    3  A    between atoms: N_14  and  C_15
REMARK    4  A    between atoms: C_15  and  C_16
REMARK    5  A    between atoms: C_16  and  C_17
REMARK    6  A    between atoms: C_17  and  C_18
REMARK    7  A    between atoms: C_19  and  C_30
REMARK    8  A    between atoms: C_20  and  N_29
REMARK    9  A    between atoms: N_21  and  C_23
REMARK                            x       y       z     vdW  Elec       q    Type
REMARK                         _______ _______ _______ _____ _____    ______ ____
ROOT
ATOM      1  C   UNL     1       1.577  -3.822   6.469  0.00  0.00    +0.060 C 
ENDROOT
BRANCH   1   2
ATOM      2  C   UNL     1       2.052  -4.792   7.521  0.00  0.00    +0.083 A 
ATOM      3  C   UNL     1       1.828  -6.188   7.522  0.00  0.00    +0.114 A 
ATOM      4  C   UNL     1       2.434  -6.697   8.668  0.00  0.00    +0.138 A 
ATOM      5  N   UNL     1       2.994  -5.652   9.318  0.00  0.00    -0.217 N 
ATOM      6  N   UNL     1       2.745  -4.488   8.582  0.00  0.00    -0.168 NA
BRANCH   5   7
ATOM      7  C   UNL     1       3.706  -5.723  10.523  0.00  0.00    +0.067 A 
ATOM      8  C   UNL     1       3.337  -6.641  11.496  0.00  0.00    +0.028 A 
ATOM      9  C   UNL     1       4.042  -6.709  12.682  0.00  0.00    +0.002 A 
ATOM     10  C   UNL     1       5.114  -5.864  12.901  0.00  0.00    +0.000 A 
ATOM     11  C   UNL     1       5.483  -4.947  11.934  0.00  0.00    +0.002 A 
ATOM     12  C   UNL     1       4.786  -4.878  10.743  0.00  0.00    +0.028 A 
ENDBRANCH   5   7
BRANCH   4  13
ATOM     13  N   UNL     1       2.459  -8.020   9.065  0.00  0.00    -0.342 N 
ATOM     14  H   UNL     1       2.025  -8.697   8.523  0.00  0.00    +0.144 HD
ATOM     15  H   UNL     1       2.912  -8.271   9.886  0.00  0.00    +0.144 HD
ENDBRANCH   4  13
BRANCH   3  16
ATOM     16  C   UNL     1       1.113  -6.937   6.533  0.00  0.00    +0.104 C 
ATOM     17  N   UNL     1       0.546  -7.531   5.748  0.00  0.00    -0.191 NA
ENDBRANCH   3  16
ENDBRANCH   1   2
BRANCH   1  18
ATOM     18  C   UNL     1       2.638  -3.697   5.374  0.00  0.00    +0.025 C 
BRANCH  18  19
ATOM     19  C   UNL     1       2.156  -2.713   4.307  0.00  0.00    +0.104 C 
BRANCH  19  22
ATOM     20  C   UNL     1       2.963  -1.775   2.208  0.00  0.00    +0.217 C 
ATOM     21  O   UNL     1       1.933  -1.139   2.130  0.00  0.00    -0.275 OA
ATOM     22  N   UNL     1       3.172  -2.593   3.258  0.00  0.00    -0.315 N 
ATOM     23  H   UNL     1       3.995  -3.102   3.320  0.00  0.00    +0.149 HD
BRANCH  20  26
ATOM     24  C   UNL     1       3.711  -0.707  -0.038  0.00  0.00    +0.032 C 
ATOM     25  C   UNL     1       3.671  -2.222  -0.251  0.00  0.00    +0.022 C 
ATOM     26  C   UNL     1       4.008  -1.652   1.129  0.00  0.00    +0.083 C 
BRANCH  24  30
ATOM     27  C   UNL     1      -0.017   1.378   0.010  0.00  0.00    +0.000 A 
ATOM     28  C   UNL     1       1.171   2.086   0.002  0.00  0.00    +0.000 A 
ATOM     29  C   UNL     1       2.377   1.411  -0.013  0.00  0.00    +0.004 A 
ATOM     30  C   UNL     1       2.396   0.029  -0.020  0.00  0.00    -0.044 A 
ATOM     31  C   UNL     1       1.208  -0.679  -0.012  0.00  0.00    +0.004 A 
ATOM     32  C   UNL     1       0.002  -0.004   0.002  0.00  0.00    +0.000 A 
ENDBRANCH  24  30
ENDBRANCH  20  26
ENDBRANCH  19  22
ENDBRANCH  18  19
ENDBRANCH   1  18
TORSDOF 9
