REMARK  Name = ZINC18199202
REMARK  4 active torsions:
REMARK  status: ('A' for Active; 'I' for Inactive)
REMARK    1  A    between atoms: C_1  and  C_2
REMARK    2  A    between atoms: N_5  and  C_7
REMARK    3  A    between atoms: C_12  and  C_13
REMARK    4  A    between atoms: C_18  and  C_20
REMARK                            x       y       z     vdW  Elec       q    Type
REMARK                         _______ _______ _______ _____ _____    ______ ____
ROOT
ATOM      1  C   UNL     1       3.707   0.017   1.258  0.00  0.00    +0.068 C 
ATOM      2  C   UNL     1       2.288   0.137   0.765  0.00  0.00    +0.066 A 
ATOM      3  C   UNL     1       1.726   1.260   0.172  0.00  0.00    +0.030 A 
ATOM      4  C   UNL     1       0.422   0.968  -0.130  0.00  0.00    +0.131 A 
ATOM      5  N   UNL     1       0.185  -0.302   0.263  0.00  0.00    -0.217 N 
ATOM      6  N   UNL     1       1.372  -0.801   0.824  0.00  0.00    -0.170 NA
ATOM      7  N   UNL     1      -0.410   1.904  -0.730  0.00  0.00    -0.302 N 
ATOM      8  C   UNL     1      -0.011   3.216  -0.754  0.00  0.00    +0.017 C 
ATOM      9  C   UNL     1       1.255   3.593  -0.472  0.00  0.00    +0.027 C 
ATOM     10  C   UNL     1       2.342   2.596  -0.133  0.00  0.00    +0.125 C 
ATOM     11  C   UNL     1       1.623   4.950  -0.479  0.00  0.00    +0.162 C 
ATOM     12  O   UNL     1       2.772   5.255  -0.227  0.00  0.00    -0.292 OA
ATOM     13  C   UNL     1       0.628   6.032  -0.792  0.00  0.00    +0.080 C 
ATOM     14  C   UNL     1      -0.769   5.556  -0.380  0.00  0.00    +0.014 C 
ATOM     15  C   UNL     1      -1.063   4.243  -1.109  0.00  0.00    +0.051 C 
ATOM     16  H   UNL     1      -1.255   1.636  -1.123  0.00  0.00    +0.153 HD
ENDROOT
BRANCH   5  17
ATOM     17  C   UNL     1      -1.022  -0.993   0.137  0.00  0.00    +0.082 A 
ATOM     18  C   UNL     1      -2.034  -0.804   1.067  0.00  0.00    +0.029 A 
ATOM     19  C   UNL     1      -3.229  -1.484   0.937  0.00  0.00    +0.002 A 
ATOM     20  C   UNL     1      -3.422  -2.367  -0.113  0.00  0.00    +0.001 A 
ATOM     21  C   UNL     1      -2.426  -2.571  -1.043  0.00  0.00    +0.017 A 
ATOM     22  C   UNL     1      -1.214  -1.886  -0.928  0.00  0.00    +0.089 A 
BRANCH  22  23
ATOM     23  C   UNL     1      -0.144  -2.099  -1.920  0.00  0.00    +0.389 C 
ATOM     24  O   UNL     1       0.870  -1.431  -1.873  0.00  0.00    -0.241 OA
ATOM     25  O   UNL     1      -0.290  -3.035  -2.878  0.00  0.00    -0.241 OA
ENDBRANCH  22  23
ENDBRANCH   5  17
BRANCH  10  26
ATOM     26  C   UNL     1       3.280   2.459  -1.305  0.00  0.00    +0.119 A 
ATOM     27  N   UNL     1       3.103   1.640  -2.364  0.00  0.00    -0.348 N 
ATOM     28  H   UNL     1       2.333   1.019  -2.511  0.00  0.00    +0.167 HD
ATOM     29  C   UNL     1       4.174   1.818  -3.197  0.00  0.00    +0.104 A 
ATOM     30  C   UNL     1       4.968   2.739  -2.619  0.00  0.00    +0.130 A 
ATOM     31  N   UNL     1       4.396   3.117  -1.467  0.00  0.00    -0.240 NA
ENDBRANCH  10  26
TORSDOF 3
