REMARK  Name = ZINC30962247
REMARK  11 active torsions:
REMARK  status: ('A' for Active; 'I' for Inactive)
REMARK    1  A    between atoms: C_1  and  C_2
REMARK    2  A    between atoms: C_2  and  C_3
REMARK    3  A    between atoms: C_2  and  C_4
REMARK    4  A    between atoms: C_4  and  C_6
REMARK    5  A    between atoms: C_4  and  N_27
REMARK    6  A    between atoms: N_8  and  N_9
REMARK    7  A    between atoms: C_10  and  C_11
REMARK    8  A    between atoms: C_15  and  O_17
REMARK    9  A    between atoms: O_17  and  C_18
REMARK   10  A    between atoms: C_18  and  C_19
REMARK   11  A    between atoms: C_28  and  C_30
REMARK                            x       y       z     vdW  Elec       q    Type
REMARK                         _______ _______ _______ _____ _____    ______ ____
ROOT
ATOM      1  C   UNL     1      -3.677   5.826  -0.073  0.00  0.00    +0.253 C 
ATOM      2  O   UNL     1      -3.666   7.021  -0.282  0.00  0.00    -0.272 OA
ATOM      3  N   UNL     1      -2.559   5.207   0.355  0.00  0.00    -0.205 N 
ATOM      4  H   UNL     1      -2.586   4.136   0.605  0.00  0.00    +0.177 HD
ENDROOT
BRANCH   3   5
ATOM      5  N   UNL     1      -1.364   5.927   0.482  0.00  0.00    -0.188 NA
ATOM      6  C   UNL     1      -0.322   5.365   1.012  0.00  0.00    +0.138 C 
BRANCH   6   7
ATOM      7  C   UNL     1      -0.477   4.157   1.843  0.00  0.00    -0.002 A 
ATOM      8  C   UNL     1       0.637   3.375   2.160  0.00  0.00    +0.010 A 
ATOM      9  C   UNL     1       0.488   2.250   2.944  0.00  0.00    +0.004 A 
ATOM     10  C   UNL     1      -0.763   1.885   3.408  0.00  0.00    +0.046 A 
ATOM     11  C   UNL     1      -1.876   2.655   3.098  0.00  0.00    +0.122 A 
ATOM     12  C   UNL     1      -1.738   3.790   2.317  0.00  0.00    +0.055 A 
BRANCH  11  13
ATOM     13  O   UNL     1      -3.102   2.295   3.562  0.00  0.00    -0.483 OA
BRANCH  13  14
ATOM     14  C   UNL     1      -3.171   1.113   4.362  0.00  0.00    +0.324 C 
BRANCH  14  15
ATOM     15  C   UNL     1      -4.598   0.873   4.782  0.00  0.00    +0.253 C 
ATOM     16  O   UNL     1      -5.470   1.639   4.430  0.00  0.00    -0.272 OA
ATOM     17  N   UNL     1      -4.905  -0.193   5.547  0.00  0.00    -0.294 N 
ATOM     18  C   UNL     1      -3.865  -1.139   5.981  0.00  0.00    +0.136 C 
ATOM     19  C   UNL     1      -3.992  -1.328   7.501  0.00  0.00    +0.179 C 
ATOM     20  O   UNL     1      -5.341  -1.679   7.819  0.00  0.00    -0.377 OA
ATOM     21  C   UNL     1      -6.301  -0.673   7.486  0.00  0.00    +0.179 C 
ATOM     22  C   UNL     1      -6.292  -0.448   5.970  0.00  0.00    +0.136 C 
ENDBRANCH  14  15
ENDBRANCH  13  14
ENDBRANCH  11  13
ENDBRANCH   6   7
ENDBRANCH   3   5
BRANCH   1  23
ATOM     23  C   UNL     1      -4.941   5.035  -0.291  0.00  0.00    +0.163 C 
BRANCH  23  24
ATOM     24  N   UNL     1      -6.037   5.947  -0.624  0.00  0.00    -0.300 N 
ATOM     25  C   UNL     1      -7.312   5.588  -0.376  0.00  0.00    +0.246 C 
ATOM     26  O   UNL     1      -7.552   4.506   0.124  0.00  0.00    -0.270 OA
ATOM     27  H   UNL     1      -5.820   6.926  -1.076  0.00  0.00    +0.150 HD
BRANCH  25  28
ATOM     28  C   UNL     1      -8.418   6.508  -0.711  0.00  0.00    +0.055 A 
ATOM     29  C   UNL     1      -8.146   7.754  -1.280  0.00  0.00    +0.014 A 
ATOM     30  C   UNL     1      -9.183   8.606  -1.596  0.00  0.00    +0.001 A 
ATOM     31  C   UNL     1     -10.492   8.234  -1.341  0.00  0.00    +0.001 A 
ATOM     32  C   UNL     1     -10.770   7.005  -0.772  0.00  0.00    +0.021 A 
ATOM     33  C   UNL     1      -9.741   6.139  -0.456  0.00  0.00    +0.053 A 
ATOM     34 CL   UNL     1     -10.091   4.596   0.259  0.00  0.00    -0.083 Cl
ENDBRANCH  25  28
ENDBRANCH  23  24
BRANCH  23  36
ATOM     35  C   UNL     1      -3.664   3.025  -1.049  0.00  0.00    +0.009 C 
ATOM     36  C   UNL     1      -4.732   4.048  -1.442  0.00  0.00    +0.012 C 
ATOM     37  C   UNL     1      -6.047   3.324  -1.738  0.00  0.00    +0.009 C 
ENDBRANCH  23  36
ENDBRANCH   1  23
TORSDOF 9
