REMARK  Name = ZINC50635395
REMARK  6 active torsions:
REMARK  status: ('A' for Active; 'I' for Inactive)
REMARK    1  A    between atoms: C_1  and  C_2
REMARK    2  A    between atoms: C_5  and  N_8
REMARK    3  A    between atoms: N_8  and  S_9
REMARK    4  A    between atoms: S_9  and  C_12
REMARK    5  A    between atoms: C_17  and  N_18
REMARK    6  A    between atoms: N_18  and  C_19
REMARK                            x       y       z     vdW  Elec       q    Type
REMARK                         _______ _______ _______ _____ _____    ______ ____
ROOT
ATOM      1  S   UNL     1       2.869  -4.821   0.440  0.00  0.00    +0.062 S 
ATOM      2  O   UNL     1       2.746  -6.221   0.230  0.00  0.00    -0.153 OA
ATOM      3  O   UNL     1       3.891  -4.046  -0.172  0.00  0.00    -0.153 OA
ENDROOT
BRANCH   1   4
ATOM      4  C   UNL     1       3.032  -4.585   2.179  0.00  0.00    +0.146 A 
ATOM      5  C   UNL     1       4.050  -3.797   2.687  0.00  0.00    +0.048 A 
ATOM      6  C   UNL     1       4.141  -3.639   4.064  0.00  0.00    +0.038 A 
ATOM      7  C   UNL     1       3.219  -4.267   4.879  0.00  0.00    +0.128 A 
ATOM      8  N   UNL     1       2.259  -5.012   4.365  0.00  0.00    -0.237 NA
ATOM      9  C   UNL     1       2.136  -5.183   3.058  0.00  0.00    +0.145 A 
ATOM     10 BR   UNL     1       5.511  -2.574   4.815  0.00  0.00    -0.049 Br
BRANCH   9  11
ATOM     11  N   UNL     1       1.105  -5.971   2.560  0.00  0.00    -0.331 N 
ATOM     12  C   UNL     1       0.227  -6.697   3.482  0.00  0.00    +0.127 C 
ATOM     13  H   UNL     1       0.966  -6.041   1.603  0.00  0.00    +0.147 HD
ENDBRANCH   9  11
ENDBRANCH   1   4
BRANCH   1  14
ATOM     14  N   UNL     1       1.427  -4.145  -0.013  0.00  0.00    -0.187 NA
ATOM     15  H   UNL     1       0.715  -4.707  -0.358  0.00  0.00    +0.148 HD
BRANCH  14  20
ATOM     16  C   UNL     1      -0.762   1.125   0.499  0.00  0.00    +0.007 C 
ATOM     17  C   UNL     1      -0.552  -0.385   0.374  0.00  0.00    -0.014 C 
ATOM     18  C   UNL     1       0.169  -0.692  -0.941  0.00  0.00    +0.005 C 
ATOM     19  C   UNL     1       0.379  -2.203  -1.066  0.00  0.00    +0.020 C 
ATOM     20  C   UNL     1       1.226  -2.699   0.107  0.00  0.00    +0.077 C 
ATOM     21  C   UNL     1       0.505  -2.392   1.422  0.00  0.00    +0.020 C 
ATOM     22  C   UNL     1       0.295  -0.882   1.548  0.00  0.00    +0.005 C 
ENDBRANCH  14  20
ENDBRANCH   1  14
TORSDOF 4
