REMARK  Name = ZINC39675772
REMARK  9 active torsions:
REMARK  status: ('A' for Active; 'I' for Inactive)
REMARK    1  A    between atoms: C_1  and  N_2
REMARK    2  A    between atoms: C_6  and  C_7
REMARK    3  A    between atoms: C_11  and  C_20
REMARK    4  A    between atoms: N_22  and  C_23
REMARK    5  A    between atoms: C_23  and  C_24
REMARK    6  A    between atoms: C_24  and  C_26
REMARK    7  A    between atoms: C_24  and  N_32
REMARK    8  A    between atoms: N_32  and  C_33
REMARK    9  A    between atoms: N_32  and  C_34
REMARK                            x       y       z     vdW  Elec       q    Type
REMARK                         _______ _______ _______ _____ _____    ______ ____
ROOT
ATOM      1  C   UNL     1      -0.203  -0.372   2.574  0.00  0.00    +0.263 C 
ATOM      2  O   UNL     1      -0.140  -1.175   3.486  0.00  0.00    -0.268 OA
ATOM      3  N   UNL     1      -0.403   0.934   2.839  0.00  0.00    -0.295 N 
ATOM      4  C   UNL     1      -0.648   2.029   1.871  0.00  0.00    +0.121 C 
ATOM      5  C   UNL     1      -1.714   2.918   2.550  0.00  0.00    +0.100 C 
ATOM      6  C   UNL     1      -1.563   2.633   4.054  0.00  0.00    -0.004 C 
ATOM      7  C   UNL     1      -0.434   1.598   4.164  0.00  0.00    +0.115 C 
ATOM      8  C   UNL     1      -1.185   3.910   4.798  0.00  0.00    -0.010 C 
ATOM      9  C   UNL     1      -1.098   3.614   6.298  0.00  0.00    -0.082 C 
ATOM     10  N   UNL     1      -2.392   3.110   6.776  0.00  0.00    +0.379 N 
ATOM     11  C   UNL     1      -2.703   1.833   6.121  0.00  0.00    -0.082 C 
ATOM     12  C   UNL     1      -2.859   2.054   4.614  0.00  0.00    -0.010 C 
ATOM     13  H   UNL     1      -2.350   2.973   7.774  0.00  0.00    -0.086 HD
ATOM     14  H   UNL     1      -3.113   3.781   6.560  0.00  0.00    -0.086 HD
ENDROOT
BRANCH   1  20
ATOM     15  C   UNL     1      -0.087  -3.317   1.620  0.00  0.00    +0.149 C 
ATOM     16  N   UNL     1      -0.010  -2.134   0.760  0.00  0.00    -0.346 N 
ATOM     17  C   UNL     1       0.119  -2.145  -0.590  0.00  0.00    +0.086 A 
ATOM     18  C   UNL     1       0.156  -0.866  -1.036  0.00  0.00    +0.020 A 
ATOM     19  C   UNL     1       0.046  -0.021   0.073  0.00  0.00    +0.032 A 
ATOM     20  C   UNL     1      -0.062  -0.827   1.187  0.00  0.00    +0.104 A 
ENDBRANCH   1  20
BRANCH   5  21
ATOM     21  C   UNL     1      -1.446   4.373   2.260  0.00  0.00    +0.218 C 
ATOM     22  O   UNL     1      -0.305   4.773   2.170  0.00  0.00    -0.275 OA
ATOM     23  N   UNL     1      -2.475   5.229   2.101  0.00  0.00    -0.316 N 
ATOM     24  H   UNL     1      -3.388   4.908   2.173  0.00  0.00    +0.149 HD
BRANCH  23  25
ATOM     25  C   UNL     1      -2.215   6.642   1.819  0.00  0.00    +0.093 C 
BRANCH  25  26
ATOM     26  C   UNL     1      -3.538   7.412   1.807  0.00  0.00    -0.021 C 
BRANCH  26  27
ATOM     27  C   UNL     1      -4.433   6.855   0.730  0.00  0.00    -0.059 A 
ATOM     28  C   UNL     1      -4.240   7.224  -0.588  0.00  0.00    +0.002 A 
ATOM     29  C   UNL     1      -5.062   6.714  -1.575  0.00  0.00    +0.000 A 
ATOM     30  C   UNL     1      -6.076   5.834  -1.245  0.00  0.00    +0.000 A 
ATOM     31  C   UNL     1      -6.268   5.465   0.073  0.00  0.00    +0.000 A 
ATOM     32  C   UNL     1      -5.444   5.972   1.060  0.00  0.00    +0.002 A 
ENDBRANCH  26  27
BRANCH  26  33
ATOM     33  N   UNL     1      -3.275   8.832   1.540  0.00  0.00    +0.382 N 
ATOM     34  C   UNL     1      -4.530   9.590   1.643  0.00  0.00    -0.096 C 
ATOM     35  C   UNL     1      -2.311   9.345   2.523  0.00  0.00    -0.096 C 
ATOM     36  H   UNL     1      -2.896   8.935   0.611  0.00  0.00    -0.082 HD
ENDBRANCH  26  33
ENDBRANCH  25  26
ENDBRANCH  23  25
ENDBRANCH   5  21
TORSDOF 6
