REMARK  Name = ZINC20549898
REMARK  14 active torsions:
REMARK  status: ('A' for Active; 'I' for Inactive)
REMARK    1  A    between atoms: C_1  and  C_2
REMARK    2  A    between atoms: C_2  and  O_3
REMARK    3  A    between atoms: C_2  and  C_35
REMARK    4  A    between atoms: O_3  and  C_4
REMARK    5  A    between atoms: C_7  and  C_10
REMARK    6  A    between atoms: N_11  and  N_12
REMARK    7  A    between atoms: C_13  and  C_15
REMARK    8  A    between atoms: C_17  and  C_20
REMARK    9  A    between atoms: N_22  and  N_23
REMARK   10  A    between atoms: C_24  and  C_25
REMARK   11  A    between atoms: C_28  and  O_31
REMARK   12  A    between atoms: O_31  and  C_32
REMARK   13  A    between atoms: C_32  and  C_33
REMARK   14  A    between atoms: C_32  and  C_34
REMARK                            x       y       z     vdW  Elec       q    Type
REMARK                         _______ _______ _______ _____ _____    ______ ____
ROOT
ATOM      1  C   UNL     1      10.484  -2.253   2.518  0.00  0.00    +0.192 A 
ATOM      2  O   UNL     1      11.240  -1.842   1.483  0.00  0.00    -0.445 OA
ATOM      3  C   UNL     1      12.512  -2.236   1.675  0.00  0.00    +0.192 A 
ATOM      4  C   UNL     1      12.579  -2.915   2.859  0.00  0.00    +0.055 A 
ATOM      5  C   UNL     1      11.288  -2.921   3.399  0.00  0.00    +0.055 A 
ENDROOT
BRANCH   1   7
ATOM      6  N   UNL     1       8.360  -1.341   1.732  0.00  0.00    -0.200 N 
ATOM      7  C   UNL     1       9.041  -2.018   2.678  0.00  0.00    +0.299 C 
ATOM      8  O   UNL     1       8.462  -2.434   3.664  0.00  0.00    -0.265 OA
ATOM      9  H   UNL     1       8.821  -1.009   0.946  0.00  0.00    +0.178 HD
BRANCH   6  11
ATOM     10  C   UNL     1       6.329  -0.465   0.973  0.00  0.00    +0.138 C 
ATOM     11  N   UNL     1       6.985  -1.117   1.884  0.00  0.00    -0.187 NA
BRANCH  10  15
ATOM     12  C   UNL     1       2.164   0.213   1.432  0.00  0.00    +0.121 A 
ATOM     13  C   UNL     1       2.823   0.690   0.306  0.00  0.00    +0.046 A 
ATOM     14  C   UNL     1       4.175   0.473   0.153  0.00  0.00    +0.013 A 
ATOM     15  C   UNL     1       4.883  -0.229   1.133  0.00  0.00    -0.005 A 
ATOM     16  C   UNL     1       4.216  -0.707   2.264  0.00  0.00    +0.013 A 
ATOM     17  C   UNL     1       2.865  -0.479   2.411  0.00  0.00    +0.046 A 
BRANCH  12  18
ATOM     18  O   UNL     1       0.831   0.430   1.579  0.00  0.00    -0.489 OA
BRANCH  18  20
ATOM     19  C   UNL     1      -0.140  -1.458   2.733  0.00  0.00    +0.051 C 
ATOM     20  C   UNL     1       0.239   0.022   2.814  0.00  0.00    +0.167 C 
ATOM     21  C   UNL     1      -1.016   0.856   3.079  0.00  0.00    +0.051 C 
ENDBRANCH  18  20
ENDBRANCH  12  18
ENDBRANCH  10  15
ENDBRANCH   6  11
ENDBRANCH   1   7
BRANCH   3  22
ATOM     22  C   UNL     1      13.639  -1.979   0.765  0.00  0.00    +0.299 C 
ATOM     23  O   UNL     1      14.752  -2.386   1.044  0.00  0.00    -0.265 OA
ATOM     24  N   UNL     1      13.440  -1.293  -0.378  0.00  0.00    -0.200 N 
ATOM     25  H   UNL     1      12.553  -0.968  -0.600  0.00  0.00    +0.178 HD
BRANCH  24  26
ATOM     26  N   UNL     1      14.513  -1.048  -1.244  0.00  0.00    -0.187 NA
ATOM     27  C   UNL     1      14.321  -0.387  -2.345  0.00  0.00    +0.138 C 
BRANCH  27  28
ATOM     28  C   UNL     1      15.451  -0.130  -3.257  0.00  0.00    -0.005 A 
ATOM     29  C   UNL     1      16.728  -0.602  -2.941  0.00  0.00    +0.013 A 
ATOM     30  C   UNL     1      17.780  -0.359  -3.797  0.00  0.00    +0.046 A 
ATOM     31  C   UNL     1      17.574   0.354  -4.971  0.00  0.00    +0.121 A 
ATOM     32  C   UNL     1      16.306   0.825  -5.289  0.00  0.00    +0.046 A 
ATOM     33  C   UNL     1      15.246   0.582  -4.442  0.00  0.00    +0.013 A 
BRANCH  31  34
ATOM     34  O   UNL     1      18.615   0.591  -5.811  0.00  0.00    -0.489 OA
BRANCH  34  35
ATOM     35  C   UNL     1      19.911   0.184  -5.369  0.00  0.00    +0.167 C 
ATOM     36  C   UNL     1      20.122  -1.295  -5.700  0.00  0.00    +0.051 C 
ATOM     37  C   UNL     1      20.978   1.022  -6.077  0.00  0.00    +0.051 C 
ENDBRANCH  34  35
ENDBRANCH  31  34
ENDBRANCH  27  28
ENDBRANCH  24  26
ENDBRANCH   3  22
TORSDOF 10
