REMARK  Name = ZINC63642939
REMARK  7 active torsions:
REMARK  status: ('A' for Active; 'I' for Inactive)
REMARK    1  A    between atoms: C_1  and  O_2
REMARK    2  A    between atoms: O_2  and  C_3
REMARK    3  A    between atoms: C_6  and  C_9
REMARK    4  A    between atoms: C_12  and  C_28
REMARK    5  A    between atoms: C_15  and  C_17
REMARK    6  A    between atoms: C_17  and  S_18
REMARK    7  A    between atoms: S_18  and  C_19
REMARK                            x       y       z     vdW  Elec       q    Type
REMARK                         _______ _______ _______ _____ _____    ______ ____
ROOT
ATOM      1  C   UNL     1       2.521  -2.495  -4.437  0.00  0.00    +0.137 C 
ATOM      2  C   UNL     1       3.925  -2.999  -4.049  0.00  0.00    +0.087 C 
ATOM      3  C   UNL     1       3.839  -4.497  -4.234  0.00  0.00    +0.075 C 
ATOM      4  N   UNL     1       2.654  -4.813  -4.639  0.00  0.00    -0.180 NA
ATOM      5  N   UNL     1       1.795  -3.723  -4.796  0.00  0.00    -0.184 N 
ATOM      6  C   UNL     1       0.513  -3.784  -5.207  0.00  0.00    +0.246 C 
ATOM      7  O   UNL     1      -0.141  -2.767  -5.306  0.00  0.00    -0.273 OA
ENDROOT
BRANCH   1  11
ATOM      8  C   UNL     1       0.649  -0.558  -1.120  0.00  0.00    +0.120 A 
ATOM      9  C   UNL     1       1.211   0.198  -2.139  0.00  0.00    +0.046 A 
ATOM     10  C   UNL     1       1.816  -0.431  -3.210  0.00  0.00    +0.009 A 
ATOM     11  C   UNL     1       1.861  -1.812  -3.267  0.00  0.00    -0.024 A 
ATOM     12  C   UNL     1       1.301  -2.567  -2.253  0.00  0.00    +0.009 A 
ATOM     13  C   UNL     1       0.701  -1.943  -1.177  0.00  0.00    +0.046 A 
BRANCH   8  15
ATOM     14  C   UNL     1       0.038   1.487  -0.072  0.00  0.00    +0.277 C 
ATOM     15  O   UNL     1       0.054   0.058  -0.065  0.00  0.00    -0.495 OA
ENDBRANCH   8  15
ENDBRANCH   1  11
BRANCH   3  16
ATOM     16  C   UNL     1       4.931  -5.445  -3.991  0.00  0.00    +0.035 A 
ATOM     17  C   UNL     1       4.942  -6.821  -4.138  0.00  0.00    +0.017 A 
ATOM     18  C   UNL     1       6.101  -7.500  -3.845  0.00  0.00    +0.008 A 
ATOM     19  C   UNL     1       7.191  -6.807  -3.423  0.00  0.00    +0.046 A 
ATOM     20  S   UNL     1       6.598  -5.123  -3.436  0.00  0.00    -0.095 S 
ENDBRANCH   3  16
BRANCH   6  21
ATOM     21  C   UNL     1      -0.108  -5.116  -5.544  0.00  0.00    +0.171 C 
BRANCH  21  22
ATOM     22  S   UNL     1      -1.829  -4.867  -6.061  0.00  0.00    -0.118 S 
BRANCH  22  23
ATOM     23  C   UNL     1      -2.324  -6.375  -6.547  0.00  0.00    +0.014 C 
ATOM     24  C   UNL     1      -1.609  -7.565  -6.454  0.00  0.00    +0.009 A 
ATOM     25  C   UNL     1      -0.323  -7.867  -5.955  0.00  0.00    +0.011 A 
ATOM     26  C   UNL     1       0.130  -9.146  -5.991  0.00  0.00    +0.001 A 
ATOM     27  C   UNL     1      -0.647 -10.182  -6.512  0.00  0.00    +0.002 A 
ATOM     28  C   UNL     1      -1.891  -9.963  -7.008  0.00  0.00    +0.026 A 
ATOM     29  C   UNL     1      -2.431  -8.653  -7.004  0.00  0.00    +0.044 A 
ATOM     30  N   UNL     1      -3.594  -8.187  -7.421  0.00  0.00    -0.379 N 
ATOM     31  C   UNL     1      -3.649  -6.742  -7.177  0.00  0.00    +0.155 C 
ATOM     32  H   UNL     1      -4.301  -8.717  -7.821  0.00  0.00    +0.160 HD
ENDBRANCH  22  23
ENDBRANCH  21  22
ENDBRANCH   6  21
TORSDOF 6
