REMARK  Name = ZINC33771381
REMARK  9 active torsions:
REMARK  status: ('A' for Active; 'I' for Inactive)
REMARK    1  A    between atoms: C_1  and  C_2
REMARK    2  A    between atoms: C_3  and  C_33
REMARK    3  A    between atoms: C_8  and  C_23
REMARK    4  A    between atoms: C_10  and  C_11
REMARK    5  A    between atoms: C_11  and  C_12
REMARK    6  A    between atoms: C_26  and  O_29
REMARK    7  A    between atoms: O_29  and  C_30
REMARK    8  A    between atoms: C_30  and  C_31
REMARK    9  A    between atoms: C_33  and  C_35
REMARK                            x       y       z     vdW  Elec       q    Type
REMARK                         _______ _______ _______ _____ _____    ______ ____
ROOT
ATOM      1  C   UNL     1       4.147   8.665  -0.728  0.00  0.00    +0.067 C 
ATOM      2  C   UNL     1       5.072   7.476  -0.768  0.00  0.00    +0.058 A 
ATOM      3  C   UNL     1       6.435   7.631  -1.015  0.00  0.00    +0.078 A 
ATOM      4  S   UNL     1       6.977   5.930  -0.939  0.00  0.00    -0.049 S 
ATOM      5  C   UNL     1       5.430   5.213  -0.606  0.00  0.00    +0.169 A 
ATOM      6  N   UNL     1       4.625   6.265  -0.578  0.00  0.00    -0.229 NA
ATOM      7  N   UNL     1       5.118   3.881  -0.422  0.00  0.00    -0.232 N 
ATOM      8  C   UNL     1       3.780   3.352  -0.142  0.00  0.00    +0.152 C 
ATOM      9  C   UNL     1       3.923   1.853  -0.019  0.00  0.00    +0.077 C 
ATOM     10  C   UNL     1       5.289   1.574  -0.217  0.00  0.00    +0.250 C 
ATOM     11  O   UNL     1       5.804   0.472  -0.191  0.00  0.00    -0.282 OA
ATOM     12  C   UNL     1       5.992   2.862  -0.463  0.00  0.00    +0.293 C 
ATOM     13  O   UNL     1       7.182   2.975  -0.674  0.00  0.00    -0.266 OA
ENDROOT
BRANCH   8  14
ATOM     14  C   UNL     1       3.256   3.928   1.148  0.00  0.00    -0.022 A 
ATOM     15  C   UNL     1       4.081   4.004   2.255  0.00  0.00    +0.009 A 
ATOM     16  C   UNL     1       3.605   4.537   3.437  0.00  0.00    +0.046 A 
ATOM     17  C   UNL     1       2.295   4.986   3.517  0.00  0.00    +0.121 A 
ATOM     18  C   UNL     1       1.467   4.904   2.406  0.00  0.00    +0.046 A 
ATOM     19  C   UNL     1       1.950   4.375   1.224  0.00  0.00    +0.009 A 
BRANCH  17  20
ATOM     20  O   UNL     1       1.823   5.506   4.680  0.00  0.00    -0.488 OA
BRANCH  20  21
ATOM     21  C   UNL     1       2.731   5.560   5.782  0.00  0.00    +0.256 C 
BRANCH  21  22
ATOM     22  C   UNL     1       2.036   6.162   6.976  0.00  0.00    +0.006 C 
ATOM     23  C   UNL     1       2.168   5.611   8.158  0.00  0.00    +0.007 C 
ENDBRANCH  21  22
ENDBRANCH  20  21
ENDBRANCH  17  20
ENDBRANCH   8  14
BRANCH   3  24
ATOM     24  C   UNL     1       7.179   8.803  -1.256  0.00  0.00    +0.168 C 
ATOM     25  O   UNL     1       6.624   9.884  -1.268  0.00  0.00    -0.292 OA
ATOM     26  C   UNL     1       8.664   8.716  -1.499  0.00  0.00    +0.092 C 
ENDBRANCH   3  24
BRANCH   9  27
ATOM     27  C   UNL     1       2.921   0.944   0.236  0.00  0.00    +0.195 C 
ATOM     28  O   UNL     1       3.225  -0.357   0.434  0.00  0.00    -0.287 OA
BRANCH  27  29
ATOM     29  C   UNL     1       1.516   1.390   0.291  0.00  0.00    +0.025 A 
ATOM     30  C   UNL     1       0.691   1.042   1.369  0.00  0.00    +0.031 A 
ATOM     31  C   UNL     1      -0.619   1.478   1.377  0.00  0.00    +0.111 A 
ATOM     32  N   UNL     1      -1.092   2.220   0.395  0.00  0.00    -0.263 NA
ATOM     33  C   UNL     1      -0.351   2.571  -0.638  0.00  0.00    +0.111 A 
ATOM     34  C   UNL     1       0.968   2.175  -0.732  0.00  0.00    +0.031 A 
ENDBRANCH  27  29
ENDBRANCH   9  27
TORSDOF 7
