REMARK  Name = ZINC38803819
REMARK  7 active torsions:
REMARK  status: ('A' for Active; 'I' for Inactive)
REMARK    1  A    between atoms: C_1  and  C_2
REMARK    2  A    between atoms: C_2  and  C_24
REMARK    3  A    between atoms: C_3  and  C_17
REMARK    4  A    between atoms: C_3  and  N_23
REMARK    5  A    between atoms: N_4  and  O_16
REMARK    6  A    between atoms: C_5  and  C_8
REMARK    7  A    between atoms: C_8  and  C_10
REMARK                            x       y       z     vdW  Elec       q    Type
REMARK                         _______ _______ _______ _____ _____    ______ ____
ROOT
ATOM      1  C   UNL     1      -0.713   1.938   0.716  0.00  0.00    -0.018 C 
ATOM      2  C   UNL     1      -0.396   0.470   0.427  0.00  0.00    -0.118 C 
ATOM      3  C   UNL     1      -1.697  -0.350   0.343  0.00  0.00    +0.015 C 
ATOM      4  N   UNL     1      -1.599  -1.363   1.421  0.00  0.00    -0.214 NA
ATOM      5  C   UNL     1      -0.140  -1.501   1.665  0.00  0.00    +0.038 C 
ATOM      6  N   UNL     1       0.373  -0.116   1.546  0.00  0.00    +0.393 NA
ATOM      7  C   UNL     1       0.394   0.347  -0.878  0.00  0.00    -0.018 C 
ENDROOT
BRANCH   3   8
ATOM      8  C   UNL     1      -2.890   0.541   0.573  0.00  0.00    -0.044 A 
ATOM      9  C   UNL     1      -3.372   0.735   1.855  0.00  0.00    +0.003 A 
ATOM     10  C   UNL     1      -4.466   1.553   2.066  0.00  0.00    +0.000 A 
ATOM     11  C   UNL     1      -5.079   2.177   0.996  0.00  0.00    +0.000 A 
ATOM     12  C   UNL     1      -4.597   1.985  -0.286  0.00  0.00    +0.000 A 
ATOM     13  C   UNL     1      -3.500   1.170  -0.496  0.00  0.00    +0.003 A 
ENDBRANCH   3   8
BRANCH   3  14
ATOM     14  N   UNL     1      -1.799  -1.009  -0.966  0.00  0.00    +0.393 N 
ATOM     15  H   UNL     1      -1.012  -1.626  -1.094  0.00  0.00    -0.087 HD
ATOM     16  H   UNL     1      -2.655  -1.542  -1.009  0.00  0.00    -0.087 HD
ATOM     17  H   UNL     1      -1.801  -0.311  -1.695  0.00  0.00    -0.087 HD
ENDBRANCH   3  14
BRANCH   5  18
ATOM     18  C   UNL     1       0.116  -2.046   3.046  0.00  0.00    +0.158 C 
ATOM     19  O   UNL     1      -0.774  -2.603   3.653  0.00  0.00    -0.293 OA
BRANCH  18  20
ATOM     20  C   UNL     1       1.446  -1.902   3.659  0.00  0.00    +0.017 A 
ATOM     21  C   UNL     1       1.657  -2.303   4.982  0.00  0.00    +0.011 A 
ATOM     22  C   UNL     1       2.907  -2.165   5.550  0.00  0.00    +0.001 A 
ATOM     23  C   UNL     1       3.950  -1.633   4.813  0.00  0.00    +0.000 A 
ATOM     24  C   UNL     1       3.749  -1.233   3.503  0.00  0.00    +0.001 A 
ATOM     25  C   UNL     1       2.507  -1.369   2.920  0.00  0.00    +0.011 A 
ENDBRANCH  18  20
ENDBRANCH   5  18
BRANCH   4  26
ATOM     26  O   UNL     1      -2.182  -2.636   0.998  0.00  0.00    -0.315 OA
ATOM     27  H   UNL     1      -2.141  -3.330   1.670  0.00  0.00    +0.236 HD
ENDBRANCH   4  26
TORSDOF 5
