REMARK  Name = ZINC43423867
REMARK  5 active torsions:
REMARK  status: ('A' for Active; 'I' for Inactive)
REMARK    1  A    between atoms: C_1  and  C_2
REMARK    2  A    between atoms: C_2  and  C_4
REMARK    3  A    between atoms: C_2  and  N_25
REMARK    4  A    between atoms: C_4  and  C_6
REMARK    5  A    between atoms: C_4  and  N_13
REMARK                            x       y       z     vdW  Elec       q    Type
REMARK                         _______ _______ _______ _____ _____    ______ ____
ROOT
ATOM      1  C   UNL     1       0.859  -0.544   1.274  0.00  0.00    +0.073 C 
ENDROOT
BRANCH   1   2
ATOM      2  N   UNL     1       2.238  -0.053   1.403  0.00  0.00    -0.289 NA
ATOM      3  C   UNL     1       2.259   1.388   1.698  0.00  0.00    +0.113 C 
ATOM      4  C   UNL     1       3.709   1.871   1.779  0.00  0.00    +0.175 C 
ATOM      5  O   UNL     1       4.415   1.103   2.759  0.00  0.00    -0.374 OA
ATOM      6  C   UNL     1       4.414  -0.300   2.490  0.00  0.00    +0.135 C 
ATOM      7  C   UNL     1       2.967  -0.800   2.436  0.00  0.00    +0.086 C 
ATOM      8  C   UNL     1       2.961  -2.293   2.109  0.00  0.00    +0.021 C 
ATOM      9  C   UNL     1       3.717  -3.052   3.202  0.00  0.00    +0.002 C 
ATOM     10  C   UNL     1       5.159  -2.547   3.277  0.00  0.00    +0.003 C 
ATOM     11  C   UNL     1       5.164  -1.049   3.592  0.00  0.00    +0.033 C 
ENDBRANCH   1   2
BRANCH   1  12
ATOM     12  C   UNL     1      -0.026   0.571   0.778  0.00  0.00    -0.032 A 
ATOM     13  C   UNL     1       0.337   1.296  -0.342  0.00  0.00    +0.006 A 
ATOM     14  C   UNL     1      -0.475   2.317  -0.797  0.00  0.00    +0.015 A 
ATOM     15  C   UNL     1      -1.651   2.615  -0.132  0.00  0.00    +0.018 A 
ATOM     16  C   UNL     1      -2.014   1.889   0.989  0.00  0.00    +0.015 A 
ATOM     17  C   UNL     1      -1.204   0.864   1.440  0.00  0.00    +0.006 A 
ATOM     18 BR   UNL     1      -2.762   4.013  -0.753  0.00  0.00    -0.050 Br
ENDBRANCH   1  12
BRANCH   1  20
ATOM     19  C   UNL     1       1.419  -1.252  -1.056  0.00  0.00    -0.012 C 
ATOM     20  C   UNL     1       0.823  -1.705   0.278  0.00  0.00    -0.056 C 
BRANCH  20  21
ATOM     21  N   UNL     1      -0.568  -2.131   0.073  0.00  0.00    +0.381 N 
ATOM     22  H   UNL     1      -1.106  -1.359  -0.291  0.00  0.00    -0.090 HD
ATOM     23  H   UNL     1      -0.592  -2.897  -0.583  0.00  0.00    -0.090 HD
ATOM     24  H   UNL     1      -0.961  -2.430   0.953  0.00  0.00    -0.090 HD
ENDBRANCH  20  21
ENDBRANCH   1  20
TORSDOF 4
