REMARK  Name = ZINC39432554
REMARK  7 active torsions:
REMARK  status: ('A' for Active; 'I' for Inactive)
REMARK    1  A    between atoms: C_1  and  C_2
REMARK    2  A    between atoms: C_2  and  C_4
REMARK    3  A    between atoms: C_2  and  S_25
REMARK    4  A    between atoms: N_6  and  C_7
REMARK    5  A    between atoms: C_8  and  C_23
REMARK    6  A    between atoms: C_13  and  C_17
REMARK    7  A    between atoms: S_25  and  C_26
REMARK                            x       y       z     vdW  Elec       q    Type
REMARK                         _______ _______ _______ _____ _____    ______ ____
ROOT
ATOM      1  C   UNL     1      -3.392  -1.138  -1.135  0.00  0.00    +0.090 A 
ATOM      2  C   UNL     1      -4.233  -1.343  -2.216  0.00  0.00    +0.084 A 
ATOM      3  C   UNL     1      -5.561  -1.859  -1.938  0.00  0.00    -0.018 A 
ATOM      4  C   UNL     1      -5.806  -2.076  -0.627  0.00  0.00    -0.003 A 
ATOM      5  S   UNL     1      -4.308  -1.611   0.191  0.00  0.00    -0.077 S 
ATOM      6  C   UNL     1      -7.072  -2.599  -0.023  0.00  0.00    +0.051 C 
ATOM      7  C   UNL     1      -8.185  -2.499  -1.076  0.00  0.00    +0.024 C 
ATOM      8  C   UNL     1      -7.671  -3.077  -2.398  0.00  0.00    +0.013 C 
ATOM      9  C   UNL     1      -6.615  -2.146  -2.997  0.00  0.00    +0.038 C 
ENDROOT
BRANCH   7  10
ATOM     10  C   UNL     1      -9.388  -3.281  -0.615  0.00  0.00    -0.044 A 
ATOM     11  C   UNL     1      -9.278  -4.637  -0.368  0.00  0.00    +0.004 A 
ATOM     12  C   UNL     1     -10.382  -5.354   0.055  0.00  0.00    +0.000 A 
ATOM     13  C   UNL     1     -11.595  -4.716   0.232  0.00  0.00    +0.000 A 
ATOM     14  C   UNL     1     -11.704  -3.360  -0.013  0.00  0.00    +0.000 A 
ATOM     15  C   UNL     1     -10.600  -2.642  -0.433  0.00  0.00    +0.004 A 
ENDBRANCH   7  10
BRANCH   1  18
ATOM     16  C   UNL     1      -1.412  -0.526   0.013  0.00  0.00    +0.231 C 
ATOM     17  O   UNL     1      -1.939  -0.827   1.063  0.00  0.00    -0.274 OA
ATOM     18  N   UNL     1      -2.090  -0.657  -1.144  0.00  0.00    -0.278 N 
ATOM     19  H   UNL     1      -1.669  -0.416  -1.984  0.00  0.00    +0.155 HD
BRANCH  16  21
ATOM     20  C   UNL     1      -0.019   1.526   0.010  0.00  0.00    +0.029 C 
ATOM     21  C   UNL     1       0.002  -0.004   0.002  0.00  0.00    +0.136 C 
BRANCH  21  22
ATOM     22  S   UNL     1       0.879  -0.605   1.472  0.00  0.00    -0.084 S 
BRANCH  22  23
ATOM     23  C   UNL     1       2.533  -0.042   1.241  0.00  0.00    +0.161 A 
ATOM     24  N   UNL     1       3.046   0.660   0.249  0.00  0.00    -0.133 NA
ATOM     25  N   UNL     1       4.380   0.997   0.267  0.00  0.00    -0.125 NA
ATOM     26  C   UNL     1       5.139   0.617   1.277  0.00  0.00    +0.180 A 
ATOM     27  S   UNL     1       3.961  -0.262   2.291  0.00  0.00    -0.025 S 
ATOM     28  N   UNL     1       6.493   0.845   1.495  0.00  0.00    -0.336 N 
ATOM     29  H   UNL     1       7.010   1.350   0.849  0.00  0.00    +0.144 HD
ATOM     30  H   UNL     1       6.920   0.499   2.294  0.00  0.00    +0.144 HD
ENDBRANCH  22  23
ENDBRANCH  21  22
ENDBRANCH  16  21
ENDBRANCH   1  18
BRANCH   2  31
ATOM     31  C   UNL     1      -3.809  -1.056  -3.554  0.00  0.00    +0.102 C 
ATOM     32  N   UNL     1      -3.473  -0.829  -4.615  0.00  0.00    -0.191 NA
ENDBRANCH   2  31
TORSDOF 6
