REMARK  Name = ZINC48340299
REMARK  11 active torsions:
REMARK  status: ('A' for Active; 'I' for Inactive)
REMARK    1  A    between atoms: C_1  and  C_2
REMARK    2  A    between atoms: C_4  and  C_34
REMARK    3  A    between atoms: C_5  and  N_9
REMARK    4  A    between atoms: C_6  and  C_8
REMARK    5  A    between atoms: C_10  and  C_12
REMARK    6  A    between atoms: C_12  and  C_14
REMARK    7  A    between atoms: C_12  and  O_15
REMARK    8  A    between atoms: O_15  and  C_16
REMARK    9  A    between atoms: C_16  and  C_18
REMARK   10  A    between atoms: C_18  and  C_20
REMARK   11  A    between atoms: C_18  and  N_21
REMARK                            x       y       z     vdW  Elec       q    Type
REMARK                         _______ _______ _______ _____ _____    ______ ____
ROOT
ATOM      1  O   UNL     1      -0.324  -6.998   2.011  0.00  0.00    -0.451 OA
ENDROOT
BRANCH   1   2
ATOM      2  C   UNL     1      -0.524  -6.391   0.733  0.00  0.00    +0.259 C 
ATOM      3  C   UNL     1      -1.965  -6.628   0.275  0.00  0.00    +0.062 C 
BRANCH   2   5
ATOM      4  N   UNL     1      -0.298  -4.142  -0.272  0.00  0.00    -0.282 N 
ATOM      5  C   UNL     1      -0.268  -4.909   0.835  0.00  0.00    +0.258 C 
ATOM      6  O   UNL     1      -0.034  -4.407   1.915  0.00  0.00    -0.271 OA
ATOM      7  H   UNL     1      -0.421  -4.552  -1.143  0.00  0.00    +0.155 HD
BRANCH   4  12
ATOM      8  C   UNL     1       0.294   1.484   0.156  0.00  0.00    +0.044 C 
ATOM      9  C   UNL     1       0.137  -0.011   0.042  0.00  0.00    -0.050 A 
ATOM     10  C   UNL     1       1.128  -0.847   0.522  0.00  0.00    +0.008 A 
ATOM     11  C   UNL     1       0.987  -2.217   0.419  0.00  0.00    -0.029 A 
ATOM     12  C   UNL     1      -0.152  -2.754  -0.166  0.00  0.00    +0.039 A 
ATOM     13  C   UNL     1      -1.146  -1.912  -0.647  0.00  0.00    -0.029 A 
ATOM     14  C   UNL     1      -1.001  -0.543  -0.537  0.00  0.00    +0.008 A 
ATOM     15  C   UNL     1      -2.383  -2.490  -1.284  0.00  0.00    +0.045 C 
ATOM     16  C   UNL     1       2.068  -3.128   0.942  0.00  0.00    +0.045 C 
ENDBRANCH   4  12
ENDBRANCH   2   5
ENDBRANCH   1   2
BRANCH   1  17
ATOM     17  C   UNL     1       0.099  -8.272   2.020  0.00  0.00    +0.329 C 
ATOM     18  O   UNL     1       0.293  -8.852   0.978  0.00  0.00    -0.249 OA
BRANCH  17  19
ATOM     19  C   UNL     1       0.332  -8.979   3.331  0.00  0.00    +0.189 C 
ATOM     20  C   UNL     1       1.398  -8.229   4.132  0.00  0.00    +0.040 C 
BRANCH  19  21
ATOM     21  N   UNL     1       0.787 -10.348   3.073  0.00  0.00    -0.228 N 
ATOM     22  C   UNL     1       1.925 -10.640   2.388  0.00  0.00    +0.226 C 
ATOM     23  O   UNL     1       2.814  -9.871   2.090  0.00  0.00    -0.275 OA
ATOM     24  C   UNL     1       1.857 -12.101   2.079  0.00  0.00    +0.087 C 
ATOM     25  C   UNL     1       3.134 -12.912   2.034  0.00  0.00    +0.013 C 
ATOM     26  C   UNL     1       2.711 -14.365   1.736  0.00  0.00    +0.001 C 
ATOM     27  C   UNL     1       1.731 -14.896   2.777  0.00  0.00    +0.001 C 
ATOM     28  C   UNL     1       0.519 -13.965   2.961  0.00  0.00    +0.013 C 
ATOM     29  C   UNL     1       1.048 -12.602   3.312  0.00  0.00    +0.087 C 
ATOM     30  C   UNL     1       0.115 -11.451   3.501  0.00  0.00    +0.226 C 
ATOM     31  O   UNL     1      -1.014 -11.492   3.942  0.00  0.00    -0.275 OA
ENDBRANCH  19  21
ENDBRANCH  17  19
ENDBRANCH   1  17
TORSDOF 6
