REMARK  Name = ZINC64048522
REMARK  6 active torsions:
REMARK  status: ('A' for Active; 'I' for Inactive)
REMARK    1  A    between atoms: C_1  and  C_2
REMARK    2  A    between atoms: C_6  and  C_15
REMARK    3  A    between atoms: N_17  and  C_18
REMARK    4  A    between atoms: C_18  and  C_19
REMARK    5  A    between atoms: C_19  and  C_21
REMARK    6  A    between atoms: C_19  and  C_27
REMARK                            x       y       z     vdW  Elec       q    Type
REMARK                         _______ _______ _______ _____ _____    ______ ____
ROOT
ATOM      1  C   UNL     1      -1.246  -6.299  -1.626  0.00  0.00    +0.116 C 
ENDROOT
BRANCH   1   4
ATOM      2  C   UNL     1      -0.745  -4.080  -2.501  0.00  0.00    +0.255 C 
ATOM      3  O   UNL     1      -0.260  -4.608  -3.479  0.00  0.00    -0.272 OA
ATOM      4  N   UNL     1      -1.266  -4.838  -1.515  0.00  0.00    -0.311 N 
ATOM      5  H   UNL     1      -1.653  -4.416  -0.733  0.00  0.00    +0.149 HD
BRANCH   2  11
ATOM      6  C   UNL     1       0.044  -0.763   1.304  0.00  0.00    +0.109 C 
ATOM      7  C   UNL     1       0.002  -0.004   0.002  0.00  0.00    +0.217 C 
ATOM      8  O   UNL     1      -0.121   1.203   0.007  0.00  0.00    -0.276 OA
ATOM      9  N   UNL     1       0.102  -0.666  -1.167  0.00  0.00    -0.264 N 
ATOM     10  C   UNL     1       0.118  -2.139  -1.211  0.00  0.00    +0.168 C 
ATOM     11  C   UNL     1      -0.766  -2.578  -2.387  0.00  0.00    +0.276 C 
ATOM     12  O   UNL     1      -0.255  -1.996  -3.589  0.00  0.00    -0.476 OA
ATOM     13  C   UNL     1       0.009  -0.663  -3.586  0.00  0.00    +0.143 A 
ATOM     14  C   UNL     1       0.188   0.024  -2.389  0.00  0.00    +0.078 A 
ATOM     15  C   UNL     1       0.455   1.383  -2.402  0.00  0.00    +0.027 A 
ATOM     16  C   UNL     1       0.536   2.058  -3.606  0.00  0.00    +0.002 A 
ATOM     17  C   UNL     1       0.350   1.377  -4.795  0.00  0.00    +0.004 A 
ATOM     18  C   UNL     1       0.096   0.022  -4.788  0.00  0.00    +0.047 A 
ENDBRANCH   2  11
ENDBRANCH   1   4
BRANCH   1  19
ATOM     19  C   UNL     1      -1.893  -6.913  -0.384  0.00  0.00    +0.064 C 
BRANCH  19  20
ATOM     20  C   UNL     1      -1.984  -8.408  -0.552  0.00  0.00    -0.033 C 
ATOM     21  C   UNL     1      -3.109  -9.159  -0.554  0.00  0.00    -0.000 A 
ATOM     22  C   UNL     1      -4.530  -8.823  -0.405  0.00  0.00    +0.010 A 
ATOM     23  C   UNL     1      -5.447  -9.815  -0.451  0.00  0.00    +0.001 A 
ATOM     24  C   UNL     1      -5.076 -11.154  -0.636  0.00  0.00    +0.002 A 
ATOM     25  C   UNL     1      -3.791 -11.541  -0.780  0.00  0.00    +0.026 A 
ATOM     26  C   UNL     1      -2.743 -10.580  -0.749  0.00  0.00    +0.043 A 
ATOM     27  N   UNL     1      -1.443 -10.703  -0.862  0.00  0.00    -0.380 N 
ATOM     28  C   UNL     1      -0.837  -9.371  -0.758  0.00  0.00    +0.145 C 
ATOM     29  H   UNL     1      -0.962 -11.535  -0.997  0.00  0.00    +0.160 HD
ENDBRANCH  19  20
BRANCH  19  30
ATOM     30  C   UNL     1      -1.057  -6.594   0.829  0.00  0.00    -0.039 A 
ATOM     31  C   UNL     1       0.259  -7.013   0.891  0.00  0.00    +0.004 A 
ATOM     32  C   UNL     1       1.026  -6.720   2.003  0.00  0.00    +0.000 A 
ATOM     33  C   UNL     1       0.477  -6.007   3.053  0.00  0.00    +0.000 A 
ATOM     34  C   UNL     1      -0.839  -5.588   2.991  0.00  0.00    +0.000 A 
ATOM     35  C   UNL     1      -1.605  -5.877   1.877  0.00  0.00    +0.004 A 
ENDBRANCH  19  30
ENDBRANCH   1  19
TORSDOF 5
