REMARK  Name = ZINC12879634
REMARK  8 active torsions:
REMARK  status: ('A' for Active; 'I' for Inactive)
REMARK    1  A    between atoms: C_1  and  C_2
REMARK    2  A    between atoms: C_4  and  C_23
REMARK    3  A    between atoms: C_5  and  S_9
REMARK    4  A    between atoms: C_6  and  C_8
REMARK    5  A    between atoms: S_9  and  N_12
REMARK    6  A    between atoms: N_12  and  N_13
REMARK    7  A    between atoms: C_14  and  C_16
REMARK    8  A    between atoms: N_20  and  C_21
REMARK                            x       y       z     vdW  Elec       q    Type
REMARK                         _______ _______ _______ _____ _____    ______ ____
ROOT
ATOM      1  N   UNL     1       3.401   4.936  -0.076  0.00  0.00    -0.108 NA
ATOM      2  H   UNL     1       4.346   4.821  -0.261  0.00  0.00    +0.172 HD
ENDROOT
BRANCH   1   3
ATOM      3  N   UNL     1       2.624   5.768  -0.892  0.00  0.00    -0.227 N 
ATOM      4  C   UNL     1       2.990   7.050  -1.090  0.00  0.00    +0.275 C 
ATOM      5  O   UNL     1       3.944   7.510  -0.491  0.00  0.00    -0.267 OA
ATOM      6  H   UNL     1       1.822   5.422  -1.314  0.00  0.00    +0.171 HD
BRANCH   4   7
ATOM      7  C   UNL     1       2.238   7.890  -2.028  0.00  0.00    +0.106 A 
ATOM      8  C   UNL     1       1.088   7.534  -2.699  0.00  0.00    +0.047 A 
ATOM      9  C   UNL     1       0.711   8.632  -3.480  0.00  0.00    +0.036 A 
ATOM     10  C   UNL     1       1.623   9.614  -3.283  0.00  0.00    +0.101 A 
ATOM     11  N   UNL     1       2.556   9.176  -2.403  0.00  0.00    -0.345 N 
ATOM     12  C   UNL     1       3.712   9.943  -1.930  0.00  0.00    +0.149 C 
ATOM     13 BR   UNL     1      -0.800   8.726  -4.614  0.00  0.00    -0.049 Br
ENDBRANCH   4   7
ENDBRANCH   1   3
BRANCH   1  14
ATOM     14  S   UNL     1       2.706   4.148   1.204  0.00  0.00    +0.074 S 
ATOM     15  O   UNL     1       2.058   5.140   1.988  0.00  0.00    -0.152 OA
ATOM     16  O   UNL     1       3.701   3.285   1.738  0.00  0.00    -0.152 OA
BRANCH  14  21
ATOM     17  C   UNL     1      -1.639   0.599  -1.016  0.00  0.00    +0.044 C 
ATOM     18  C   UNL     1      -0.553   1.487  -0.465  0.00  0.00    -0.050 A 
ATOM     19  C   UNL     1      -0.857   2.764  -0.032  0.00  0.00    +0.008 A 
ATOM     20  C   UNL     1       0.138   3.576   0.479  0.00  0.00    -0.024 A 
ATOM     21  C   UNL     1       1.438   3.113   0.553  0.00  0.00    +0.113 A 
ATOM     22  C   UNL     1       1.743   1.838   0.115  0.00  0.00    -0.024 A 
ATOM     23  C   UNL     1       0.748   1.025  -0.396  0.00  0.00    +0.008 A 
ATOM     24  C   UNL     1       3.161   1.333   0.195  0.00  0.00    +0.046 C 
ATOM     25  C   UNL     1      -0.195   4.966   0.957  0.00  0.00    +0.046 C 
ENDBRANCH  14  21
ENDBRANCH   1  14
TORSDOF 4
