REMARK  Name = ZINC41076129
REMARK  8 active torsions:
REMARK  status: ('A' for Active; 'I' for Inactive)
REMARK    1  A    between atoms: C_1  and  C_2
REMARK    2  A    between atoms: C_5  and  C_11
REMARK    3  A    between atoms: C_7  and  N_8
REMARK    4  A    between atoms: C_12  and  C_21
REMARK    5  A    between atoms: C_13  and  N_20
REMARK    6  A    between atoms: C_14  and  C_16
REMARK    7  A    between atoms: C_16  and  O_18
REMARK    8  A    between atoms: O_18  and  C_19
REMARK                            x       y       z     vdW  Elec       q    Type
REMARK                         _______ _______ _______ _____ _____    ______ ____
ROOT
ATOM      1  C   UNL     1      -0.164  -4.017  -0.675  0.00  0.00    +0.025 A 
ATOM      2  C   UNL     1      -0.061  -4.521  -1.958  0.00  0.00    -0.014 A 
ATOM      3  C   UNL     1       0.144  -5.870  -2.125  0.00  0.00    +0.049 A 
ATOM      4  C   UNL     1       0.240  -6.670  -0.985  0.00  0.00    +0.118 A 
ATOM      5  S   UNL     1       0.040  -5.478   0.329  0.00  0.00    -0.080 S 
ATOM      6  C   UNL     1      -0.173  -3.609  -3.152  0.00  0.00    +0.047 C 
ENDROOT
BRANCH   1  11
ATOM      7  C   UNL     1      -1.009   1.421   1.006  0.00  0.00    +0.046 C 
ATOM      8  C   UNL     1      -0.788  -0.003   0.565  0.00  0.00    -0.020 A 
ATOM      9  C   UNL     1      -1.542  -1.021   1.122  0.00  0.00    +0.006 A 
ATOM     10  C   UNL     1      -1.344  -2.327   0.724  0.00  0.00    +0.009 A 
ATOM     11  C   UNL     1      -0.382  -2.620  -0.244  0.00  0.00    -0.009 A 
ATOM     12  C   UNL     1       0.375  -1.589  -0.801  0.00  0.00    +0.042 A 
ATOM     13  C   UNL     1       0.164  -0.286  -0.398  0.00  0.00    +0.130 A 
BRANCH  13  14
ATOM     14  N   UNL     1       0.961   0.810  -0.993  0.00  0.00    +0.057 N 
ATOM     15  O   UNL     1       0.446   1.881  -1.214  0.00  0.00    -0.126 OA
ATOM     16  O   UNL     1       2.128   0.634  -1.258  0.00  0.00    -0.126 OA
ENDBRANCH  13  14
ENDBRANCH   1  11
BRANCH   3  17
ATOM     17  N   UNL     1       0.254  -6.423  -3.397  0.00  0.00    -0.357 N 
ATOM     18  H   UNL     1       0.185  -5.856  -4.181  0.00  0.00    +0.142 HD
ATOM     19  H   UNL     1       0.399  -7.377  -3.500  0.00  0.00    +0.142 HD
ENDBRANCH   3  17
BRANCH   4  20
ATOM     20  C   UNL     1       0.446  -8.064  -0.894  0.00  0.00    +0.347 C 
ATOM     21  O   UNL     1       0.566  -8.729  -1.907  0.00  0.00    -0.244 OA
BRANCH  20  22
ATOM     22  O   UNL     1       0.509  -8.660   0.316  0.00  0.00    -0.464 OA
ATOM     23  C   UNL     1       0.720 -10.073   0.332  0.00  0.00    +0.280 C 
ENDBRANCH  20  22
ENDBRANCH   4  20
TORSDOF 5
