REMARK  Name = ZINC39722740
REMARK  9 active torsions:
REMARK  status: ('A' for Active; 'I' for Inactive)
REMARK    1  A    between atoms: C_1  and  C_2
REMARK    2  A    between atoms: C_5  and  N_9
REMARK    3  A    between atoms: C_6  and  C_8
REMARK    4  A    between atoms: C_10  and  C_32
REMARK    5  A    between atoms: C_14  and  S_15
REMARK    6  A    between atoms: S_15  and  C_16
REMARK    7  A    between atoms: C_16  and  C_17
REMARK    8  A    between atoms: C_25  and  C_29
REMARK    9  A    between atoms: C_32  and  C_33
REMARK                            x       y       z     vdW  Elec       q    Type
REMARK                         _______ _______ _______ _____ _____    ______ ____
ROOT
ATOM      1  N   UNL     1      -0.509  -4.036   0.001  0.00  0.00    -0.258 N 
ATOM      2  C   UNL     1      -1.672  -4.930   0.132  0.00  0.00    +0.186 C 
ATOM      3  N   UNL     1      -1.075  -6.267   0.291  0.00  0.00    -0.246 N 
ATOM      4  N   UNL     1       0.312  -6.083   0.245  0.00  0.00    -0.162 NA
ATOM      5  C   UNL     1       0.619  -4.841   0.079  0.00  0.00    +0.180 C 
ATOM      6  H   UNL     1      -1.548  -7.107   0.405  0.00  0.00    +0.170 HD
ENDROOT
BRANCH   1  11
ATOM      7  C   UNL     1      -0.617   1.590  -0.708  0.00  0.00    +0.044 C 
ATOM      8  C   UNL     1      -0.589   0.095  -0.520  0.00  0.00    -0.050 A 
ATOM      9  C   UNL     1      -0.437  -0.438   0.748  0.00  0.00    +0.005 A 
ATOM     10  C   UNL     1      -0.410  -1.808   0.924  0.00  0.00    +0.024 A 
ATOM     11  C   UNL     1      -0.536  -2.650  -0.174  0.00  0.00    +0.040 A 
ATOM     12  C   UNL     1      -0.688  -2.111  -1.445  0.00  0.00    -0.029 A 
ATOM     13  C   UNL     1      -0.719  -0.741  -1.614  0.00  0.00    +0.008 A 
ATOM     14  C   UNL     1      -0.824  -3.022  -2.639  0.00  0.00    +0.045 C 
ENDBRANCH   1  11
BRANCH   5  15
ATOM     15  S   UNL     1       2.271  -4.238  -0.032  0.00  0.00    -0.081 S 
BRANCH  15  16
ATOM     16  C   UNL     1       3.294  -5.727   0.134  0.00  0.00    +0.151 C 
BRANCH  16  17
ATOM     17  C   UNL     1       4.750  -5.348   0.056  0.00  0.00    +0.121 A 
ATOM     18  N   UNL     1       5.679  -6.334   0.155  0.00  0.00    -0.310 N 
ATOM     19  H   UNL     1       5.393  -7.253   0.273  0.00  0.00    +0.170 HD
ATOM     20  C   UNL     1       7.000  -6.046   0.090  0.00  0.00    +0.259 A 
ATOM     21  O   UNL     1       7.842  -6.919   0.177  0.00  0.00    -0.267 OA
ATOM     22  C   UNL     1       7.377  -4.633  -0.090  0.00  0.00    +0.065 A 
ATOM     23  C   UNL     1       8.710  -4.234  -0.170  0.00  0.00    +0.016 A 
ATOM     24  C   UNL     1       9.016  -2.914  -0.338  0.00  0.00    +0.016 A 
ATOM     25  C   UNL     1       8.000  -1.954  -0.432  0.00  0.00    +0.065 A 
ATOM     26  C   UNL     1       6.664  -2.331  -0.355  0.00  0.00    +0.043 A 
ATOM     27  C   UNL     1       6.341  -3.679  -0.183  0.00  0.00    +0.079 A 
ATOM     28  N   UNL     1       5.052  -4.096  -0.108  0.00  0.00    -0.233 NA
BRANCH  25  29
ATOM     29  C   UNL     1       8.351  -0.529  -0.614  0.00  0.00    +0.387 C 
ATOM     30  O   UNL     1       9.524  -0.193  -0.681  0.00  0.00    -0.241 OA
ATOM     31  O   UNL     1       7.468   0.312  -0.696  0.00  0.00    -0.241 OA
ENDBRANCH  25  29
ENDBRANCH  16  17
ENDBRANCH  15  16
ENDBRANCH   5  15
BRANCH   2  32
ATOM     32  C   UNL     1      -2.499  -4.558   1.365  0.00  0.00    +0.079 C 
BRANCH  32  33
ATOM     33  C   UNL     1      -3.747  -5.401   1.405  0.00  0.00    -0.044 A 
ATOM     34  C   UNL     1      -4.899  -4.961   0.779  0.00  0.00    +0.004 A 
ATOM     35  C   UNL     1      -6.044  -5.734   0.816  0.00  0.00    +0.000 A 
ATOM     36  C   UNL     1      -6.038  -6.947   1.479  0.00  0.00    +0.000 A 
ATOM     37  C   UNL     1      -4.886  -7.387   2.104  0.00  0.00    +0.000 A 
ATOM     38  C   UNL     1      -3.740  -6.616   2.063  0.00  0.00    +0.004 A 
ENDBRANCH  32  33
ENDBRANCH   2  32
TORSDOF 7
