REMARK  Name = ZINC56783494
REMARK  15 active torsions:
REMARK  status: ('A' for Active; 'I' for Inactive)
REMARK    1  A    between atoms: C_1  and  C_2
REMARK    2  A    between atoms: C_2  and  C_3
REMARK    3  A    between atoms: C_2  and  N_4
REMARK    4  A    between atoms: N_4  and  C_5
REMARK    5  A    between atoms: N_4  and  C_25
REMARK    6  A    between atoms: C_5  and  C_6
REMARK    7  A    between atoms: C_6  and  N_7
REMARK    8  A    between atoms: C_14  and  N_17
REMARK    9  A    between atoms: C_18  and  O_20
REMARK   10  A    between atoms: O_20  and  C_21
REMARK   11  A    between atoms: C_21  and  C_22
REMARK   12  A    between atoms: C_21  and  C_23
REMARK   13  A    between atoms: C_21  and  C_24
REMARK   14  A    between atoms: C_25  and  C_26
REMARK   15  A    between atoms: C_25  and  C_27
REMARK                            x       y       z     vdW  Elec       q    Type
REMARK                         _______ _______ _______ _____ _____    ______ ____
ROOT
ATOM      1  N   UNL     1      -4.520   1.639  -1.095  0.00  0.00    -0.301 N 
ATOM      2  C   UNL     1      -5.651   2.259  -0.705  0.00  0.00    +0.302 C 
ATOM      3  O   UNL     1      -5.877   2.424   0.478  0.00  0.00    -0.253 OA
ATOM      4  N   UNL     1      -6.532   2.696  -1.627  0.00  0.00    -0.284 N 
ATOM      5  C   UNL     1      -6.334   2.398  -3.052  0.00  0.00    +0.109 C 
ATOM      6  C   UNL     1      -6.375   3.711  -3.841  0.00  0.00    +0.021 C 
ATOM      7  C   UNL     1      -7.678   4.449  -3.528  0.00  0.00    +0.025 C 
ATOM      8  C   UNL     1      -7.734   4.780  -2.035  0.00  0.00    +0.094 C 
ATOM      9  C   UNL     1      -7.711   3.475  -1.225  0.00  0.00    +0.131 C 
ATOM     10  H   UNL     1      -4.303   1.573  -2.038  0.00  0.00    +0.150 HD
ENDROOT
BRANCH   8  11
ATOM     11  N   UNL     1      -8.967   5.515  -1.743  0.00  0.00    -0.277 N 
ATOM     12  C   UNL     1      -9.026   6.334  -0.674  0.00  0.00    +0.401 C 
ATOM     13  O   UNL     1      -8.056   6.463   0.047  0.00  0.00    -0.226 OA
ATOM     14  H   UNL     1      -9.741   5.412  -2.318  0.00  0.00    +0.152 HD
BRANCH  12  15
ATOM     15  O   UNL     1     -10.160   7.009  -0.405  0.00  0.00    -0.445 OA
BRANCH  15  16
ATOM     16  C   UNL     1     -10.152   7.859   0.743  0.00  0.00    +0.107 C 
ATOM     17  C   UNL     1      -9.067   8.926   0.581  0.00  0.00    +0.055 C 
ATOM     18  C   UNL     1     -11.516   8.537   0.886  0.00  0.00    +0.055 C 
ATOM     19  C   UNL     1      -9.863   7.026   1.993  0.00  0.00    +0.055 C 
ENDBRANCH  15  16
ENDBRANCH  12  15
ENDBRANCH   8  11
BRANCH   1  20
ATOM     20  C   UNL     1      -3.618   1.063  -0.094  0.00  0.00    +0.087 C 
BRANCH  20  21
ATOM     21  C   UNL     1      -2.419   0.423  -0.796  0.00  0.00    -0.059 C 
BRANCH  21  22
ATOM     22  N   UNL     1      -1.539  -0.197   0.204  0.00  0.00    +0.384 N 
ATOM     23  H   UNL     1      -1.280   0.490   0.896  0.00  0.00    -0.081 HD
BRANCH  22  25
ATOM     24  C   UNL     1       0.393   0.446  -1.156  0.00  0.00    -0.014 C 
ATOM     25  C   UNL     1      -0.330  -0.706  -0.456  0.00  0.00    -0.074 C 
ATOM     26  C   UNL     1       0.597  -1.330   0.589  0.00  0.00    -0.014 C 
ENDBRANCH  22  25
BRANCH  22  27
ATOM     27  C   UNL     1      -2.246  -1.307   0.857  0.00  0.00    -0.074 C 
ATOM     28  C   UNL     1      -2.123  -2.566  -0.004  0.00  0.00    -0.014 C 
ATOM     29  C   UNL     1      -1.627  -1.567   2.231  0.00  0.00    -0.014 C 
ENDBRANCH  22  27
ENDBRANCH  21  22
ENDBRANCH  20  21
ENDBRANCH   1  20
TORSDOF 8
