REMARK  Name = ZINC18749680
REMARK  10 active torsions:
REMARK  status: ('A' for Active; 'I' for Inactive)
REMARK    1  A    between atoms: C_1  and  N_2
REMARK    2  A    between atoms: N_2  and  C_3
REMARK    3  A    between atoms: N_2  and  S_9
REMARK    4  A    between atoms: S_9  and  C_12
REMARK    5  A    between atoms: C_17  and  N_18
REMARK    6  A    between atoms: C_19  and  C_21
REMARK    7  A    between atoms: C_21  and  O_22
REMARK    8  A    between atoms: O_22  and  C_23
REMARK    9  A    between atoms: C_23  and  C_25
REMARK   10  A    between atoms: C_30  and  N_31
REMARK                            x       y       z     vdW  Elec       q    Type
REMARK                         _______ _______ _______ _____ _____    ______ ____
ROOT
ATOM      1  N   UNL     1      -1.006   3.419   0.251  0.00  0.00    -0.281 N 
ATOM      2  C   UNL     1      -1.965   4.355   0.391  0.00  0.00    +0.255 C 
ATOM      3  O   UNL     1      -2.869   4.183   1.181  0.00  0.00    -0.272 OA
ATOM      4  H   UNL     1      -0.248   3.584  -0.332  0.00  0.00    +0.155 HD
ENDROOT
BRANCH   1  10
ATOM      5  C   UNL     1      -0.684   1.027   0.346  0.00  0.00    +0.127 A 
ATOM      6  C   UNL     1      -0.776  -0.166   1.036  0.00  0.00    +0.030 A 
ATOM      7  C   UNL     1      -1.290  -0.186   2.319  0.00  0.00    +0.002 A 
ATOM      8  C   UNL     1      -1.712   0.987   2.917  0.00  0.00    +0.002 A 
ATOM      9  C   UNL     1      -1.622   2.183   2.233  0.00  0.00    +0.025 A 
ATOM     10  C   UNL     1      -1.103   2.208   0.945  0.00  0.00    +0.060 A 
BRANCH   5  11
ATOM     11  S   UNL     1      -0.029   1.051  -1.290  0.00  0.00    +0.063 S 
ATOM     12  O   UNL     1       0.288  -0.293  -1.621  0.00  0.00    -0.153 OA
ATOM     13  O   UNL     1       0.936   2.093  -1.325  0.00  0.00    -0.153 OA
BRANCH  11  15
ATOM     14  C   UNL     1      -1.364   2.905  -2.739  0.00  0.00    +0.132 C 
ATOM     15  N   UNL     1      -1.257   1.510  -2.302  0.00  0.00    -0.177 NA
BRANCH  15  16
ATOM     16  C   UNL     1      -2.236   0.522  -2.761  0.00  0.00    +0.080 C 
ATOM     17  C   UNL     1      -2.196   0.435  -4.288  0.00  0.00    +0.020 C 
ATOM     18  C   UNL     1      -3.219  -0.598  -4.767  0.00  0.00    +0.002 C 
ATOM     19  C   UNL     1      -4.619  -0.176  -4.316  0.00  0.00    +0.000 C 
ATOM     20  C   UNL     1      -4.659  -0.089  -2.789  0.00  0.00    +0.002 C 
ATOM     21  C   UNL     1      -3.636   0.944  -2.310  0.00  0.00    +0.020 C 
ENDBRANCH  15  16
ENDBRANCH  11  15
ENDBRANCH   5  11
ENDBRANCH   1  10
BRANCH   2  22
ATOM     22  C   UNL     1      -1.913   5.616  -0.432  0.00  0.00    +0.328 C 
BRANCH  22  23
ATOM     23  O   UNL     1      -3.049   6.458  -0.099  0.00  0.00    -0.452 OA
BRANCH  23  24
ATOM     24  C   UNL     1      -3.152   7.633  -0.752  0.00  0.00    +0.341 C 
ATOM     25  O   UNL     1      -2.315   7.944  -1.577  0.00  0.00    -0.245 OA
BRANCH  24  26
ATOM     26  C   UNL     1      -4.277   8.537  -0.467  0.00  0.00    +0.080 A 
ATOM     27  C   UNL     1      -5.169   8.244   0.570  0.00  0.00    +0.019 A 
ATOM     28  C   UNL     1      -6.219   9.094   0.833  0.00  0.00    +0.039 A 
ATOM     29  C   UNL     1      -6.399  10.243   0.073  0.00  0.00    +0.125 A 
ATOM     30  C   UNL     1      -5.525  10.546  -0.954  0.00  0.00    +0.061 A 
ATOM     31  C   UNL     1      -4.457   9.703  -1.230  0.00  0.00    +0.041 A 
ATOM     32  F   UNL     1      -7.434  11.069   0.340  0.00  0.00    -0.205 F 
BRANCH  31  33
ATOM     33  N   UNL     1      -3.575  10.008  -2.257  0.00  0.00    -0.357 N 
ATOM     34  H   UNL     1      -3.123   9.295  -2.736  0.00  0.00    +0.142 HD
ATOM     35  H   UNL     1      -3.409  10.933  -2.496  0.00  0.00    +0.142 HD
ENDBRANCH  31  33
ENDBRANCH  24  26
ENDBRANCH  23  24
ENDBRANCH  22  23
ENDBRANCH   2  22
TORSDOF 9
