REMARK  Name = ZINC39387675
REMARK  7 active torsions:
REMARK  status: ('A' for Active; 'I' for Inactive)
REMARK    1  A    between atoms: C_1  and  C_2
REMARK    2  A    between atoms: C_5  and  C_7
REMARK    3  A    between atoms: C_11  and  C_14
REMARK    4  A    between atoms: C_14  and  C_15
REMARK    5  A    between atoms: C_15  and  C_16
REMARK    6  A    between atoms: N_18  and  C_19
REMARK    7  A    between atoms: C_19  and  C_20
REMARK                            x       y       z     vdW  Elec       q    Type
REMARK                         _______ _______ _______ _____ _____    ______ ____
ROOT
ATOM      1  C   UNL     1       2.544  -5.846  -3.720  0.00  0.00    +0.099 C 
ENDROOT
BRANCH   1   2
ATOM      2  C   UNL     1       3.514  -5.785  -4.873  0.00  0.00    +0.213 C 
ATOM      3  O   UNL     1       4.671  -5.480  -4.676  0.00  0.00    -0.276 OA
ATOM      4  N   UNL     1       3.094  -6.069  -6.122  0.00  0.00    -0.310 N 
ATOM      5  H   UNL     1       2.169  -6.313  -6.279  0.00  0.00    +0.149 HD
BRANCH   4   6
ATOM      6  C   UNL     1       4.037  -6.009  -7.242  0.00  0.00    +0.157 C 
BRANCH   6   7
ATOM      7  C   UNL     1       3.322  -6.368  -8.519  0.00  0.00    +0.034 A 
ATOM      8  H   UNL     1       3.430  -8.448  -8.532  0.00  0.00    +0.166 HD
ATOM      9  C   UNL     1       2.786  -5.485  -9.377  0.00  0.00    +0.032 A 
ATOM     10  C   UNL     1       2.196  -6.257 -10.473  0.00  0.00    -0.000 A 
ATOM     11  C   UNL     1       1.510  -5.916 -11.640  0.00  0.00    +0.010 A 
ATOM     12  C   UNL     1       1.075  -6.900 -12.483  0.00  0.00    +0.001 A 
ATOM     13  C   UNL     1       1.310  -8.236 -12.189  0.00  0.00    +0.002 A 
ATOM     14  C   UNL     1       1.985  -8.594 -11.042  0.00  0.00    +0.026 A 
ATOM     15  C   UNL     1       2.437  -7.610 -10.170  0.00  0.00    +0.047 A 
ATOM     16  N   UNL     1       3.128  -7.642  -8.979  0.00  0.00    -0.357 N 
ENDBRANCH   6   7
ENDBRANCH   4   6
ENDBRANCH   1   2
BRANCH   1  17
ATOM     17  C   UNL     1       3.270  -5.481  -2.424  0.00  0.00    +0.058 C 
BRANCH  17  21
ATOM     18  C   UNL     1       1.043  -4.062  -0.027  0.00  0.00    +0.240 C 
ATOM     19  N   UNL     1       2.384  -4.118   0.612  0.00  0.00    -0.223 NA
ATOM     20  N   UNL     1       3.000  -5.311   0.019  0.00  0.00    -0.227 NA
ATOM     21  C   UNL     1       2.286  -5.543  -1.254  0.00  0.00    +0.202 C 
ATOM     22  O   UNL     1       1.300  -4.499  -1.380  0.00  0.00    -0.337 OA
ATOM     23  H   UNL     1       2.921  -3.291   0.400  0.00  0.00    +0.144 HD
ATOM     24  H   UNL     1       3.986  -5.168  -0.140  0.00  0.00    +0.143 HD
BRANCH  18  29
ATOM     25  C   UNL     1      -0.018   1.503   0.010  0.00  0.00    +0.051 C 
ATOM     26  C   UNL     1       0.002  -0.004   0.002  0.00  0.00    -0.013 A 
ATOM     27  C   UNL     1      -1.039  -0.872   0.002  0.00  0.00    +0.011 A 
ATOM     28  C   UNL     1      -0.780  -2.230  -0.007  0.00  0.00    +0.015 A 
ATOM     29  C   UNL     1       0.507  -2.653  -0.016  0.00  0.00    +0.034 A 
ATOM     30  S   UNL     1       1.404  -1.109  -0.018  0.00  0.00    -0.094 S 
ENDBRANCH  18  29
ENDBRANCH  17  21
ENDBRANCH   1  17
TORSDOF 6
