REMARK  Name = ZINC63502947
REMARK  8 active torsions:
REMARK  status: ('A' for Active; 'I' for Inactive)
REMARK    1  A    between atoms: C_1  and  C_2
REMARK    2  A    between atoms: C_2  and  O_3
REMARK    3  A    between atoms: O_3  and  C_4
REMARK    4  A    between atoms: C_11  and  N_14
REMARK    5  A    between atoms: C_17  and  C_20
REMARK    6  A    between atoms: N_22  and  C_23
REMARK    7  A    between atoms: C_23  and  C_24
REMARK    8  A    between atoms: C_24  and  C_25
REMARK                            x       y       z     vdW  Elec       q    Type
REMARK                         _______ _______ _______ _____ _____    ______ ____
ROOT
ATOM      1  N   UNL     1       0.974  -7.134  -4.029  0.00  0.00    -0.276 NA
ATOM      2  C   UNL     1      -0.269  -6.404  -4.305  0.00  0.00    +0.087 C 
ATOM      3  C   UNL     1      -1.217  -7.294  -5.113  0.00  0.00    +0.028 C 
ATOM      4  C   UNL     1      -0.537  -7.696  -6.425  0.00  0.00    +0.077 C 
ATOM      5  C   UNL     1       0.779  -8.412  -6.110  0.00  0.00    +0.028 C 
ATOM      6  C   UNL     1       1.669  -7.490  -5.273  0.00  0.00    +0.087 C 
ENDROOT
BRANCH   1  14
ATOM      7  C   UNL     1       0.777  -1.811  -1.336  0.00  0.00    +0.122 A 
ATOM      8  C   UNL     1       0.247  -2.679  -0.393  0.00  0.00    +0.047 A 
ATOM      9  C   UNL     1       0.349  -4.042  -0.548  0.00  0.00    +0.027 A 
ATOM     10  C   UNL     1       0.992  -4.604  -1.665  0.00  0.00    +0.043 A 
ATOM     11  C   UNL     1       1.516  -3.705  -2.599  0.00  0.00    +0.035 A 
ATOM     12  C   UNL     1       1.413  -2.340  -2.452  0.00  0.00    +0.062 A 
ATOM     13  S   UNL     1       2.248  -4.720  -3.862  0.00  0.00    -0.085 S 
ATOM     14  C   UNL     1       1.852  -6.362  -3.139  0.00  0.00    +0.207 C 
ATOM     15  N   UNL     1       1.146  -5.970  -1.911  0.00  0.00    -0.319 N 
ATOM     16  H   UNL     1       0.801  -6.635  -1.295  0.00  0.00    +0.148 HD
BRANCH   7  17
ATOM     17  O   UNL     1       0.671  -0.465  -1.174  0.00  0.00    -0.492 OA
BRANCH  17  19
ATOM     18  C   UNL     1      -0.019   1.526   0.010  0.00  0.00    +0.048 C 
ATOM     19  C   UNL     1       0.002  -0.004   0.002  0.00  0.00    +0.225 C 
ENDBRANCH  17  19
ENDBRANCH   7  17
ENDBRANCH   1  14
BRANCH   4  20
ATOM     20  C   UNL     1      -1.442  -8.621  -7.197  0.00  0.00    +0.216 C 
ATOM     21  O   UNL     1      -2.524  -8.929  -6.744  0.00  0.00    -0.276 OA
ATOM     22  N   UNL     1      -1.048  -9.106  -8.392  0.00  0.00    -0.315 N 
ATOM     23  H   UNL     1      -0.183  -8.860  -8.754  0.00  0.00    +0.149 HD
BRANCH  22  24
ATOM     24  C   UNL     1      -1.927 -10.006  -9.143  0.00  0.00    +0.108 C 
BRANCH  24  25
ATOM     25  C   UNL     1      -1.247 -10.407 -10.453  0.00  0.00    +0.052 C 
BRANCH  25  26
ATOM     26  C   UNL     1      -2.152 -11.332 -11.226  0.00  0.00    -0.040 C 
ATOM     27  C   UNL     1      -3.018 -10.991 -12.206  0.00  0.00    -0.001 A 
ATOM     28  C   UNL     1      -3.366  -9.705 -12.822  0.00  0.00    +0.010 A 
ATOM     29  C   UNL     1      -4.295  -9.678 -13.806  0.00  0.00    +0.001 A 
ATOM     30  C   UNL     1      -4.932 -10.845 -14.249  0.00  0.00    +0.002 A 
ATOM     31  C   UNL     1      -4.665 -12.063 -13.732  0.00  0.00    +0.026 A 
ATOM     32  C   UNL     1      -3.705 -12.209 -12.693  0.00  0.00    +0.043 A 
ATOM     33  N   UNL     1      -3.280 -13.262 -12.039  0.00  0.00    -0.380 N 
ATOM     34  C   UNL     1      -2.269 -12.832 -11.066  0.00  0.00    +0.144 C 
ATOM     35  H   UNL     1      -3.580 -14.174 -12.177  0.00  0.00    +0.160 HD
ENDBRANCH  25  26
ENDBRANCH  24  25
ENDBRANCH  22  24
ENDBRANCH   4  20
TORSDOF 7
