REMARK  Name = ZINC38507892
REMARK  8 active torsions:
REMARK  status: ('A' for Active; 'I' for Inactive)
REMARK    1  A    between atoms: C_1  and  C_2
REMARK    2  A    between atoms: C_7  and  C_8
REMARK    3  A    between atoms: N_12  and  C_13
REMARK    4  A    between atoms: C_13  and  C_14
REMARK    5  A    between atoms: C_20  and  C_22
REMARK    6  A    between atoms: N_25  and  C_27
REMARK    7  A    between atoms: C_27  and  C_28
REMARK    8  A    between atoms: C_27  and  C_29
REMARK                            x       y       z     vdW  Elec       q    Type
REMARK                         _______ _______ _______ _____ _____    ______ ____
ROOT
ATOM      1  C   UNL     1      -0.211   0.518  -1.374  0.00  0.00    +0.044 C 
ATOM      2  C   UNL     1      -0.102  -0.943  -1.019  0.00  0.00    -0.045 A 
ATOM      3  C   UNL     1       0.007  -1.881  -2.036  0.00  0.00    +0.005 A 
ATOM      4  C   UNL     1       0.107  -3.222  -1.712  0.00  0.00    +0.017 A 
ATOM      5  C   UNL     1       0.097  -3.603  -0.394  0.00  0.00    +0.041 A 
ATOM      6  C   UNL     1      -0.012  -2.676   0.668  0.00  0.00    +0.083 A 
ATOM      7  C   UNL     1      -0.107  -1.314   0.300  0.00  0.00    -0.021 A 
ATOM      8  C   UNL     1      -0.221  -0.259   1.370  0.00  0.00    +0.046 C 
ATOM      9  N   UNL     1      -0.009  -3.206   1.910  0.00  0.00    -0.224 NA
ATOM     10  C   UNL     1       0.090  -4.497   2.126  0.00  0.00    +0.169 A 
ATOM     11  S   UNL     1       0.197  -5.154   0.468  0.00  0.00    -0.052 S 
ATOM     12  N   UNL     1       0.108  -5.176   3.332  0.00  0.00    -0.241 N 
ATOM     13  C   UNL     1       0.016  -4.495   4.491  0.00  0.00    +0.273 C 
ATOM     14  O   UNL     1      -0.163  -3.293   4.477  0.00  0.00    -0.268 OA
ENDROOT
BRANCH  13  15
ATOM     15  C   UNL     1       0.134  -5.208   5.779  0.00  0.00    +0.148 A 
ATOM     16  C   UNL     1       0.179  -4.622   7.066  0.00  0.00    +0.054 A 
ATOM     17  C   UNL     1       0.288  -5.657   7.931  0.00  0.00    +0.109 A 
ATOM     18  N   UNL     1       0.307  -6.791   7.199  0.00  0.00    -0.268 N 
ATOM     19  N   UNL     1       0.211  -6.513   5.948  0.00  0.00    -0.166 NA
BRANCH  18  20
ATOM     20  C   UNL     1       0.416  -8.143   7.751  0.00  0.00    +0.101 C 
ATOM     21  C   UNL     1       1.890  -8.486   7.973  0.00  0.00    +0.032 C 
ATOM     22  C   UNL     1      -0.330  -8.211   9.085  0.00  0.00    +0.032 C 
ENDBRANCH  18  20
ENDBRANCH  13  15
BRANCH  12  23
ATOM     23  C   UNL     1       0.227  -6.636   3.348  0.00  0.00    +0.152 C 
BRANCH  23  24
ATOM     24  C   UNL     1       1.680  -7.024   3.248  0.00  0.00    -0.012 A 
ATOM     25  C   UNL     1       2.298  -7.116   2.010  0.00  0.00    +0.008 A 
ATOM     26  C   UNL     1       3.636  -7.476   1.966  0.00  0.00    +0.020 A 
ATOM     27  C   UNL     1       4.305  -7.728   3.149  0.00  0.00    +0.111 A 
ATOM     28  N   UNL     1       3.685  -7.630   4.309  0.00  0.00    -0.263 NA
ATOM     29  C   UNL     1       2.415  -7.285   4.389  0.00  0.00    +0.116 A 
ENDBRANCH  23  24
ENDBRANCH  12  23
TORSDOF 4
