REMARK  Name = ZINC64392581
REMARK  13 active torsions:
REMARK  status: ('A' for Active; 'I' for Inactive)
REMARK    1  A    between atoms: C_1  and  C_2
REMARK    2  A    between atoms: C_2  and  O_3
REMARK    3  A    between atoms: O_3  and  C_4
REMARK    4  A    between atoms: C_7  and  C_13
REMARK    5  A    between atoms: C_9  and  O_10
REMARK    6  A    between atoms: O_10  and  C_11
REMARK    7  A    between atoms: C_11  and  C_12
REMARK    8  A    between atoms: C_13  and  C_14
REMARK    9  A    between atoms: C_14  and  N_15
REMARK   10  A    between atoms: C_16  and  C_18
REMARK   11  A    between atoms: C_20  and  N_29
REMARK   12  A    between atoms: C_23  and  C_28
REMARK   13  A    between atoms: C_30  and  C_32
REMARK                            x       y       z     vdW  Elec       q    Type
REMARK                         _______ _______ _______ _____ _____    ______ ____
ROOT
ATOM      1  C   UNL     1      -0.746 -10.649  -3.555  0.00  0.00    +0.211 C 
ATOM      2  C   UNL     1       0.065 -10.445  -4.816  0.00  0.00    +0.051 C 
ATOM      3  C   UNL     1      -0.827 -10.598  -5.865  0.00  0.00    +0.018 A 
ATOM      4  C   UNL     1      -0.670 -10.524  -7.269  0.00  0.00    +0.015 A 
ATOM      5  C   UNL     1      -1.742 -10.722  -8.076  0.00  0.00    -0.050 A 
ATOM      6  C   UNL     1      -3.010 -10.998  -7.556  0.00  0.00    +0.005 A 
ATOM      7  C   UNL     1      -3.233 -11.083  -6.222  0.00  0.00    +0.026 A 
ATOM      8  C   UNL     1      -2.161 -10.889  -5.313  0.00  0.00    +0.045 A 
ATOM      9  N   UNL     1      -2.118 -10.920  -3.995  0.00  0.00    -0.369 N 
ATOM     10  C   UNL     1      -1.563 -10.640  -9.570  0.00  0.00    +0.044 C 
ATOM     11  H   UNL     1      -2.873 -11.093  -3.410  0.00  0.00    +0.161 HD
ENDROOT
BRANCH   1  13
ATOM     12  N   UNL     1       0.353  -9.161  -1.913  0.00  0.00    -0.313 N 
ATOM     13  C   UNL     1      -0.709  -9.404  -2.707  0.00  0.00    +0.241 C 
ATOM     14  O   UNL     1      -1.634  -8.620  -2.739  0.00  0.00    -0.273 OA
ATOM     15  H   UNL     1       1.093  -9.787  -1.887  0.00  0.00    +0.149 HD
BRANCH  12  16
ATOM     16  C   UNL     1       0.389  -7.950  -1.088  0.00  0.00    +0.109 C 
BRANCH  16  17
ATOM     17  C   UNL     1       1.693  -7.917  -0.289  0.00  0.00    +0.054 C 
BRANCH  17  21
ATOM     18  C   UNL     1       1.796  -4.387   2.123  0.00  0.00    +0.162 A 
ATOM     19  C   UNL     1       1.246  -5.556   2.624  0.00  0.00    +0.050 A 
ATOM     20  C   UNL     1       1.214  -6.695   1.842  0.00  0.00    +0.007 A 
ATOM     21  C   UNL     1       1.730  -6.672   0.560  0.00  0.00    -0.042 A 
ATOM     22  C   UNL     1       2.281  -5.509   0.054  0.00  0.00    +0.053 A 
ATOM     23  C   UNL     1       2.311  -4.362   0.831  0.00  0.00    +0.162 A 
BRANCH  18  24
ATOM     24  O   UNL     1       1.828  -3.265   2.891  0.00  0.00    -0.489 OA
BRANCH  24  26
ATOM     25  C   UNL     1       1.406  -2.013   4.915  0.00  0.00    +0.048 C 
ATOM     26  C   UNL     1       1.282  -3.365   4.208  0.00  0.00    +0.226 C 
ENDBRANCH  24  26
ENDBRANCH  18  24
BRANCH  23  27
ATOM     27  O   UNL     1       2.846  -3.215   0.332  0.00  0.00    -0.489 OA
BRANCH  27  28
ATOM     28  C   UNL     1       3.355  -3.264  -1.002  0.00  0.00    +0.226 C 
ATOM     29  C   UNL     1       3.913  -1.891  -1.385  0.00  0.00    +0.048 C 
ENDBRANCH  27  28
ENDBRANCH  23  27
ENDBRANCH  17  21
ENDBRANCH  16  17
ENDBRANCH  12  16
ENDBRANCH   1  13
BRANCH   2  30
ATOM     30  N   UNL     1       1.394 -10.168  -4.902  0.00  0.00    -0.282 N 
ATOM     31  C   UNL     1       2.108 -10.612  -5.955  0.00  0.00    +0.248 C 
ATOM     32  O   UNL     1       1.558 -11.230  -6.845  0.00  0.00    -0.270 OA
ATOM     33  H   UNL     1       1.828  -9.651  -4.205  0.00  0.00    +0.155 HD
BRANCH  31  34
ATOM     34  C   UNL     1       3.560 -10.346  -6.028  0.00  0.00    +0.037 A 
ATOM     35  C   UNL     1       4.196  -9.640  -5.005  0.00  0.00    +0.013 A 
ATOM     36  C   UNL     1       5.551  -9.395  -5.080  0.00  0.00    +0.001 A 
ATOM     37  C   UNL     1       6.280  -9.847  -6.166  0.00  0.00    +0.000 A 
ATOM     38  C   UNL     1       5.657 -10.547  -7.183  0.00  0.00    +0.001 A 
ATOM     39  C   UNL     1       4.303 -10.804  -7.118  0.00  0.00    +0.013 A 
ENDBRANCH  31  34
ENDBRANCH   2  30
TORSDOF 10
