REMARK  Name = ZINC54322295
REMARK  10 active torsions:
REMARK  status: ('A' for Active; 'I' for Inactive)
REMARK    1  A    between atoms: C_1  and  C_2
REMARK    2  A    between atoms: C_2  and  C_3
REMARK    3  A    between atoms: C_2  and  C_4
REMARK    4  A    between atoms: C_2  and  O_5
REMARK    5  A    between atoms: O_5  and  C_6
REMARK    6  A    between atoms: C_12  and  C_14
REMARK    7  A    between atoms: N_16  and  C_17
REMARK    8  A    between atoms: C_17  and  C_18
REMARK    9  A    between atoms: C_18  and  C_19
REMARK   10  A    between atoms: C_19  and  N_20
REMARK                            x       y       z     vdW  Elec       q    Type
REMARK                         _______ _______ _______ _____ _____    ______ ____
ROOT
ATOM      1  C   UNL     1       4.942  -0.686  -1.648  0.00  0.00    +0.234 C 
ATOM      2  O   UNL     1       4.547  -1.564  -0.910  0.00  0.00    -0.274 OA
ATOM      3  N   UNL     1       6.189  -0.196  -1.504  0.00  0.00    -0.314 N 
ATOM      4  H   UNL     1       6.505   0.506  -2.094  0.00  0.00    +0.149 HD
ENDROOT
BRANCH   1  11
ATOM      5  C   UNL     1       1.952  -0.085  -1.337  0.00  0.00    +0.404 C 
ATOM      6  O   UNL     1       2.488   0.619  -0.503  0.00  0.00    -0.226 OA
ATOM      7  N   UNL     1       2.641  -0.485  -2.424  0.00  0.00    -0.256 N 
ATOM      8  C   UNL     1       2.115  -1.331  -3.511  0.00  0.00    +0.112 C 
ATOM      9  C   UNL     1       2.998  -0.994  -4.738  0.00  0.00    +0.021 C 
ATOM     10  C   UNL     1       4.388  -0.801  -4.078  0.00  0.00    +0.033 C 
ATOM     11  C   UNL     1       4.039  -0.145  -2.726  0.00  0.00    +0.165 C 
BRANCH   5  12
ATOM     12  O   UNL     1       0.671  -0.465  -1.174  0.00  0.00    -0.445 OA
BRANCH  12  14
ATOM     13  C   UNL     1      -0.019   1.526   0.010  0.00  0.00    +0.055 C 
ATOM     14  C   UNL     1       0.002  -0.004   0.002  0.00  0.00    +0.107 C 
ATOM     15  C   UNL     1       0.742  -0.511   1.242  0.00  0.00    +0.055 C 
ATOM     16  C   UNL     1      -1.433  -0.534   0.013  0.00  0.00    +0.055 C 
ENDBRANCH  12  14
ENDBRANCH   5  12
ENDBRANCH   1  11
BRANCH   3  17
ATOM     17  C   UNL     1       7.067  -0.722  -0.456  0.00  0.00    +0.106 C 
BRANCH  17  18
ATOM     18  C   UNL     1       8.415   0.001  -0.509  0.00  0.00    +0.042 C 
BRANCH  18  19
ATOM     19  C   UNL     1       9.332  -0.549   0.585  0.00  0.00    +0.150 C 
BRANCH  19  20
ATOM     20  N   UNL     1      10.622   0.143   0.534  0.00  0.00    -0.212 N 
ATOM     21  C   UNL     1      10.950   1.267   1.203  0.00  0.00    +0.351 A 
ATOM     22  O   UNL     1      10.224   1.891   1.958  0.00  0.00    -0.244 OA
ATOM     23  N   UNL     1      12.223   1.580   0.887  0.00  0.00    -0.251 N 
ATOM     24  C   UNL     1      13.038   2.614   1.284  0.00  0.00    +0.098 A 
ATOM     25  C   UNL     1      14.296   2.712   0.820  0.00  0.00    +0.018 A 
ATOM     26  C   UNL     1      14.805   1.756  -0.083  0.00  0.00    +0.005 A 
ATOM     27  C   UNL     1      14.022   0.727  -0.488  0.00  0.00    +0.049 A 
ATOM     28  C   UNL     1      12.696   0.628   0.003  0.00  0.00    +0.162 A 
ATOM     29  N   UNL     1      11.742  -0.247  -0.213  0.00  0.00    -0.149 NA
ENDBRANCH  19  20
ENDBRANCH  18  19
ENDBRANCH  17  18
ENDBRANCH   3  17
TORSDOF 7
