REMARK  Name = ZINC13134469
REMARK  5 active torsions:
REMARK  status: ('A' for Active; 'I' for Inactive)
REMARK    1  A    between atoms: C_1  and  C_2
REMARK    2  A    between atoms: C_5  and  S_7
REMARK    3  A    between atoms: S_7  and  C_8
REMARK    4  A    between atoms: C_11  and  N_30
REMARK    5  A    between atoms: C_13  and  C_14
REMARK                            x       y       z     vdW  Elec       q    Type
REMARK                         _______ _______ _______ _____ _____    ______ ____
ROOT
ATOM      1  C   UNL     1       0.704   4.692   0.355  0.00  0.00    +0.251 C 
ATOM      2  O   UNL     1      -0.433   4.262   0.330  0.00  0.00    -0.270 OA
ATOM      3  N   UNL     1       0.922   6.012   0.513  0.00  0.00    -0.261 N 
ATOM      4  C   UNL     1      -0.149   6.880   0.645  0.00  0.00    +0.166 A 
ATOM      5  N   UNL     1      -0.141   8.185   0.806  0.00  0.00    -0.224 NA
ATOM      6  C   UNL     1      -1.265   8.906   0.922  0.00  0.00    +0.088 A 
ATOM      7  C   UNL     1      -1.406  10.365   1.105  0.00  0.00    +0.009 A 
ATOM      8  C   UNL     1      -0.271  11.181   1.178  0.00  0.00    +0.010 A 
ATOM      9  C   UNL     1      -0.419  12.526   1.347  0.00  0.00    +0.001 A 
ATOM     10  C   UNL     1      -1.685  13.096   1.446  0.00  0.00    +0.001 A 
ATOM     11  C   UNL     1      -2.808  12.328   1.376  0.00  0.00    +0.008 A 
ATOM     12  C   UNL     1      -2.691  10.937   1.204  0.00  0.00    -0.016 A 
ATOM     13  C   UNL     1      -3.841  10.125   1.131  0.00  0.00    +0.010 A 
ATOM     14  C   UNL     1      -3.714   8.782   0.964  0.00  0.00    +0.018 A 
ATOM     15  C   UNL     1      -2.471   8.184   0.862  0.00  0.00    +0.041 A 
ATOM     16  S   UNL     1      -1.899   6.516   0.634  0.00  0.00    -0.052 S 
ATOM     17  H   UNL     1       1.829   6.355   0.534  0.00  0.00    +0.157 HD
ENDROOT
BRANCH   1  23
ATOM     18  C   UNL     1       1.622   2.392   0.050  0.00  0.00    +0.027 A 
ATOM     19  C   UNL     1       2.706   1.531  -0.076  0.00  0.00    +0.018 A 
ATOM     20  C   UNL     1       3.991   2.030  -0.051  0.00  0.00    +0.034 A 
ATOM     21  C   UNL     1       4.214   3.389   0.110  0.00  0.00    +0.127 A 
ATOM     22  C   UNL     1       3.153   4.258   0.243  0.00  0.00    +0.047 A 
ATOM     23  C   UNL     1       1.844   3.769   0.214  0.00  0.00    +0.053 A 
BRANCH  21  24
ATOM     24  N   UNL     1       5.599   3.910   0.141  0.00  0.00    +0.056 N 
ATOM     25  O   UNL     1       5.799   5.103   0.283  0.00  0.00    -0.126 OA
ATOM     26  O   UNL     1       6.540   3.145   0.024  0.00  0.00    -0.126 OA
ENDBRANCH  21  24
BRANCH  18  27
ATOM     27  S   UNL     1      -0.022   1.758   0.012  0.00  0.00    -0.062 S 
BRANCH  27  32
ATOM     28  C   UNL     1      -3.400   2.039  -3.990  0.00  0.00    +0.066 C 
ATOM     29  C   UNL     1      -2.044   2.299  -3.384  0.00  0.00    +0.047 A 
ATOM     30  C   UNL     1      -1.072   2.914  -4.099  0.00  0.00    +0.070 A 
ATOM     31  S   UNL     1       0.252   2.949  -2.899  0.00  0.00    -0.069 S 
ATOM     32  C   UNL     1      -0.594   2.155  -1.607  0.00  0.00    +0.139 A 
ATOM     33  N   UNL     1      -1.778   1.932  -2.146  0.00  0.00    -0.238 NA
ENDBRANCH  27  32
ENDBRANCH  18  27
ENDBRANCH   1  23
TORSDOF 4
