REMARK  Name = ZINC38959596
REMARK  14 active torsions:
REMARK  status: ('A' for Active; 'I' for Inactive)
REMARK    1  A    between atoms: C_1  and  C_2
REMARK    2  A    between atoms: C_5  and  N_9
REMARK    3  A    between atoms: C_6  and  C_8
REMARK    4  A    between atoms: N_9  and  C_10
REMARK    5  A    between atoms: C_10  and  C_11
REMARK    6  A    between atoms: C_16  and  O_23
REMARK    7  A    between atoms: O_23  and  C_24
REMARK    8  A    between atoms: C_25  and  C_27
REMARK    9  A    between atoms: C_29  and  O_37
REMARK   10  A    between atoms: C_30  and  O_35
REMARK   11  A    between atoms: C_31  and  O_33
REMARK   12  A    between atoms: O_33  and  C_34
REMARK   13  A    between atoms: O_35  and  C_36
REMARK   14  A    between atoms: O_37  and  C_38
REMARK                            x       y       z     vdW  Elec       q    Type
REMARK                         _______ _______ _______ _____ _____    ______ ____
ROOT
ATOM      1  N   UNL     1      -0.382  -3.921  -0.055  0.00  0.00    -0.266 N 
ATOM      2  C   UNL     1      -1.576  -4.505   0.168  0.00  0.00    +0.251 C 
ATOM      3  O   UNL     1      -1.648  -5.712   0.294  0.00  0.00    -0.270 OA
ENDROOT
BRANCH   1   8
ATOM      4  C   UNL     1      -0.077   1.680  -0.899  0.00  0.00    +0.044 C 
ATOM      5  C   UNL     1      -0.158   0.192  -0.675  0.00  0.00    -0.050 A 
ATOM      6  C   UNL     1       0.208  -0.342   0.547  0.00  0.00    +0.005 A 
ATOM      7  C   UNL     1       0.135  -1.705   0.756  0.00  0.00    +0.024 A 
ATOM      8  C   UNL     1      -0.307  -2.540  -0.263  0.00  0.00    +0.040 A 
ATOM      9  C   UNL     1      -0.674  -2.000  -1.489  0.00  0.00    -0.029 A 
ATOM     10  C   UNL     1      -0.603  -0.635  -1.690  0.00  0.00    +0.008 A 
ATOM     11  C   UNL     1      -1.154  -2.901  -2.597  0.00  0.00    +0.045 C 
ENDBRANCH   1   8
BRANCH   2  12
ATOM     12  C   UNL     1      -2.796  -3.680   0.258  0.00  0.00    +0.044 A 
ATOM     13  C   UNL     1      -3.985  -4.121  -0.329  0.00  0.00    +0.062 A 
ATOM     14  C   UNL     1      -5.126  -3.346  -0.243  0.00  0.00    +0.166 A 
ATOM     15  C   UNL     1      -5.092  -2.126   0.428  0.00  0.00    +0.204 A 
ATOM     16  C   UNL     1      -3.909  -1.684   1.014  0.00  0.00    +0.166 A 
ATOM     17  C   UNL     1      -2.766  -2.458   0.936  0.00  0.00    +0.062 A 
BRANCH  16  18
ATOM     18  O   UNL     1      -3.879  -0.492   1.668  0.00  0.00    -0.491 OA
ATOM     19  C   UNL     1      -2.631  -0.101   2.245  0.00  0.00    +0.277 C 
ENDBRANCH  16  18
BRANCH  15  20
ATOM     20  O   UNL     1      -6.215  -1.366   0.511  0.00  0.00    -0.488 OA
ATOM     21  C   UNL     1      -7.069  -1.591   1.634  0.00  0.00    +0.277 C 
ENDBRANCH  15  20
BRANCH  14  22
ATOM     22  O   UNL     1      -6.283  -3.775  -0.815  0.00  0.00    -0.491 OA
ATOM     23  C   UNL     1      -6.276  -5.083  -1.390  0.00  0.00    +0.277 C 
ENDBRANCH  14  22
ENDBRANCH   2  12
BRANCH   1  24
ATOM     24  C   UNL     1       0.838  -4.732  -0.080  0.00  0.00    +0.131 C 
BRANCH  24  25
ATOM     25  C   UNL     1       1.486  -4.721   1.306  0.00  0.00    +0.116 C 
ATOM     26  C   UNL     1       2.897  -5.257   1.164  0.00  0.00    -0.003 C 
ATOM     27  C   UNL     1       3.227  -6.353   1.905  0.00  0.00    -0.004 A 
ATOM     28  C   UNL     1       4.567  -6.934   1.827  0.00  0.00    +0.055 A 
ATOM     29  C   UNL     1       4.852  -8.029   2.585  0.00  0.00    +0.121 A 
ATOM     30  C   UNL     1       3.891  -8.600   3.428  0.00  0.00    +0.047 A 
ATOM     31  C   UNL     1       2.632  -8.105   3.542  0.00  0.00    +0.027 A 
ATOM     32  C   UNL     1       2.237  -6.976   2.801  0.00  0.00    +0.041 A 
ATOM     33  N   UNL     1       0.997  -6.500   2.923  0.00  0.00    -0.284 N 
ATOM     34  C   UNL     1       0.560  -5.446   2.257  0.00  0.00    +0.226 C 
ATOM     35  O   UNL     1      -0.583  -5.059   2.410  0.00  0.00    -0.275 OA
ATOM     36  H   UNL     1       0.387  -6.950   3.528  0.00  0.00    +0.155 HD
BRANCH  29  37
ATOM     37  O   UNL     1       6.094  -8.579   2.522  0.00  0.00    -0.495 OA
ATOM     38  C   UNL     1       6.338  -9.726   3.337  0.00  0.00    +0.277 C 
ENDBRANCH  29  37
ENDBRANCH  24  25
ENDBRANCH   1  24
TORSDOF 8
