REMARK  Name = ZINC14460074
REMARK  9 active torsions:
REMARK  status: ('A' for Active; 'I' for Inactive)
REMARK    1  A    between atoms: C_1  and  C_2
REMARK    2  A    between atoms: C_2  and  C_3
REMARK    3  A    between atoms: C_2  and  C_4
REMARK    4  A    between atoms: C_2  and  N_5
REMARK    5  A    between atoms: C_6  and  C_8
REMARK    6  A    between atoms: C_21  and  C_24
REMARK    7  A    between atoms: C_28  and  O_31
REMARK    8  A    between atoms: C_29  and  O_30
REMARK    9  A    between atoms: O_31  and  C_32
REMARK                            x       y       z     vdW  Elec       q    Type
REMARK                         _______ _______ _______ _____ _____    ______ ____
ROOT
ATOM      1  C   UNL     1      -0.191   0.875   0.147  0.00  0.00    +0.037 A 
ATOM      2  C   UNL     1       0.039   2.254   0.160  0.00  0.00    +0.015 A 
ATOM      3  C   UNL     1       1.330   2.727   0.117  0.00  0.00    +0.024 A 
ATOM      4  C   UNL     1       2.401   1.838   0.063  0.00  0.00    +0.031 A 
ATOM      5  C   UNL     1       2.184   0.466   0.050  0.00  0.00    -0.019 A 
ATOM      6  C   UNL     1       0.885  -0.011   0.092  0.00  0.00    +0.019 A 
ATOM      7  C   UNL     1       3.306  -0.522  -0.010  0.00  0.00    +0.049 C 
ATOM      8  C   UNL     1       3.535  -1.177   1.331  0.00  0.00    -0.023 C 
ATOM      9  C   UNL     1       4.815  -1.382   1.524  0.00  0.00    -0.030 C 
ATOM     10  C   UNL     1       5.616  -0.895   0.332  0.00  0.00    +0.033 C 
ATOM     11  C   UNL     1       4.661   0.130  -0.348  0.00  0.00    +0.029 C 
ATOM     12  C   UNL     1       4.803   1.455   0.408  0.00  0.00    +0.109 C 
ATOM     13  N   UNL     1       3.700   2.341   0.026  0.00  0.00    -0.336 N 
ATOM     14  H   UNL     1       3.870   3.256  -0.247  0.00  0.00    +0.147 HD
ENDROOT
BRANCH  12  15
ATOM     15  C   UNL     1       4.754   1.199   1.892  0.00  0.00    +0.018 A 
ATOM     16  C   UNL     1       3.540   1.200   2.554  0.00  0.00    +0.009 A 
ATOM     17  C   UNL     1       3.492   0.965   3.915  0.00  0.00    +0.004 A 
ATOM     18  C   UNL     1       4.657   0.728   4.621  0.00  0.00    +0.049 A 
ATOM     19  C   UNL     1       5.876   0.726   3.964  0.00  0.00    +0.162 A 
ATOM     20  C   UNL     1       5.925   0.957   2.592  0.00  0.00    +0.163 A 
BRANCH  20  21
ATOM     21  O   UNL     1       7.119   0.950   1.942  0.00  0.00    -0.503 OA
ATOM     22  H   UNL     1       7.552   1.814   1.906  0.00  0.00    +0.292 HD
ENDBRANCH  20  21
BRANCH  19  23
ATOM     23  O   UNL     1       7.023   0.493   4.657  0.00  0.00    -0.491 OA
ATOM     24  C   UNL     1       6.897   0.259   6.061  0.00  0.00    +0.277 C 
ENDBRANCH  19  23
ENDBRANCH  12  15
BRANCH   1  26
ATOM     25  N   UNL     1      -2.611   1.213   0.247  0.00  0.00    -0.307 N 
ATOM     26  C   UNL     1      -1.571   0.357   0.193  0.00  0.00    +0.244 C 
ATOM     27  O   UNL     1      -1.771  -0.842   0.182  0.00  0.00    -0.270 OA
ATOM     28  H   UNL     1      -2.451   2.170   0.256  0.00  0.00    +0.150 HD
BRANCH  25  30
ATOM     29  C   UNL     1      -4.157  -0.175   1.536  0.00  0.00    +0.031 C 
ATOM     30  C   UNL     1      -3.982   0.699   0.293  0.00  0.00    +0.026 C 
ATOM     31  C   UNL     1      -4.965   1.870   0.350  0.00  0.00    +0.031 C 
ATOM     32  C   UNL     1      -4.255  -0.136  -0.960  0.00  0.00    +0.031 C 
ENDBRANCH  25  30
ENDBRANCH   1  26
TORSDOF 5
