REMARK  Name = ZINC36502373
REMARK  17 active torsions:
REMARK  status: ('A' for Active; 'I' for Inactive)
REMARK    1  A    between atoms: C_1  and  C_2
REMARK    2  A    between atoms: C_2  and  C_3
REMARK    3  A    between atoms: C_2  and  C_4
REMARK    4  A    between atoms: C_2  and  C_5
REMARK    5  A    between atoms: C_5  and  C_6
REMARK    6  A    between atoms: C_6  and  C_7
REMARK    7  A    between atoms: C_6  and  C_8
REMARK    8  A    between atoms: C_6  and  N_9
REMARK    9  A    between atoms: C_10  and  C_12
REMARK   10  A    between atoms: C_12  and  C_14
REMARK   11  A    between atoms: C_12  and  N_23
REMARK   12  A    between atoms: C_15  and  O_22
REMARK   13  A    between atoms: C_17  and  O_21
REMARK   14  A    between atoms: C_19  and  O_20
REMARK   15  A    between atoms: N_23  and  C_24
REMARK   16  A    between atoms: C_24  and  C_25
REMARK   17  A    between atoms: C_30  and  C_32
REMARK                            x       y       z     vdW  Elec       q    Type
REMARK                         _______ _______ _______ _____ _____    ______ ____
ROOT
ATOM      1  C   UNL     1       5.074  -0.754  -4.500  0.00  0.00    +0.200 C 
ENDROOT
BRANCH   1   2
ATOM      2  C   UNL     1       4.864   0.138  -5.696  0.00  0.00    +0.065 A 
ATOM      3  C   UNL     1       5.481  -0.162  -6.901  0.00  0.00    +0.129 A 
ATOM      4  C   UNL     1       5.288   0.659  -8.002  0.00  0.00    +0.091 A 
ATOM      5  C   UNL     1       4.477   1.780  -7.898  0.00  0.00    +0.124 A 
ATOM      6  C   UNL     1       3.860   2.079  -6.693  0.00  0.00    +0.091 A 
ATOM      7  C   UNL     1       4.050   1.255  -5.593  0.00  0.00    +0.129 A 
BRANCH   7   8
ATOM      8  O   UNL     1       3.440   1.546  -4.413  0.00  0.00    -0.506 OA
ATOM      9  H   UNL     1       3.961   2.116  -3.832  0.00  0.00    +0.292 HD
ENDBRANCH   7   8
BRANCH   5  10
ATOM     10  O   UNL     1       4.289   2.585  -8.976  0.00  0.00    -0.507 OA
ATOM     11  H   UNL     1       3.535   2.334  -9.527  0.00  0.00    +0.292 HD
ENDBRANCH   5  10
BRANCH   3  12
ATOM     12  O   UNL     1       6.276  -1.260  -7.003  0.00  0.00    -0.506 OA
ATOM     13  H   UNL     1       5.795  -2.076  -7.196  0.00  0.00    +0.292 HD
ENDBRANCH   3  12
ENDBRANCH   1   2
BRANCH   1  15
ATOM     14  N   UNL     1       2.775  -1.285  -3.759  0.00  0.00    -0.308 N 
ATOM     15  C   UNL     1       3.916  -0.600  -3.548  0.00  0.00    +0.239 C 
ATOM     16  O   UNL     1       4.011   0.142  -2.593  0.00  0.00    -0.273 OA
ATOM     17  H   UNL     1       2.682  -1.842  -4.547  0.00  0.00    +0.149 HD
BRANCH  14  18
ATOM     18  C   UNL     1       1.674  -1.188  -2.796  0.00  0.00    +0.030 C 
ATOM     19  C   UNL     1       1.249   0.275  -2.654  0.00  0.00    +0.031 C 
ATOM     20  C   UNL     1       2.136  -1.720  -1.438  0.00  0.00    +0.031 C 
BRANCH  18  21
ATOM     21  C   UNL     1       0.488  -2.018  -3.293  0.00  0.00    +0.031 C 
BRANCH  21  23
ATOM     22  C   UNL     1       1.292  -2.641  -5.575  0.00  0.00    +0.010 C 
ATOM     23  C   UNL     1       0.295  -1.785  -4.792  0.00  0.00    -0.036 C 
ATOM     24  C   UNL     1       0.530  -0.307  -5.113  0.00  0.00    +0.010 C 
ATOM     25  C   UNL     1      -1.131  -2.172  -5.189  0.00  0.00    +0.010 C 
ENDBRANCH  21  23
ENDBRANCH  18  21
ENDBRANCH  14  18
ENDBRANCH   1  15
BRANCH   1  26
ATOM     26  N   UNL     1       6.317  -0.378  -3.822  0.00  0.00    -0.274 N 
ATOM     27  C   UNL     1       6.951  -1.268  -3.033  0.00  0.00    +0.248 C 
ATOM     28  O   UNL     1       8.013  -0.976  -2.518  0.00  0.00    -0.270 OA
BRANCH  27  29
ATOM     29  C   UNL     1       6.355  -2.599  -2.793  0.00  0.00    +0.037 A 
ATOM     30  C   UNL     1       5.068  -2.884  -3.254  0.00  0.00    +0.013 A 
ATOM     31  C   UNL     1       4.518  -4.129  -3.027  0.00  0.00    +0.001 A 
ATOM     32  C   UNL     1       5.238  -5.093  -2.345  0.00  0.00    +0.000 A 
ATOM     33  C   UNL     1       6.514  -4.817  -1.885  0.00  0.00    +0.001 A 
ATOM     34  C   UNL     1       7.078  -3.578  -2.111  0.00  0.00    +0.013 A 
ENDBRANCH  27  29
BRANCH  26  35
ATOM     35  C   UNL     1       6.871   0.967  -4.001  0.00  0.00    +0.183 C 
BRANCH  35  36
ATOM     36  C   UNL     1       6.409   1.855  -2.875  0.00  0.00    +0.122 A 
ATOM     37  C   UNL     1       6.997   1.968  -1.671  0.00  0.00    +0.046 A 
ATOM     38  C   UNL     1       6.238   2.904  -0.931  0.00  0.00    +0.041 A 
ATOM     39  C   UNL     1       5.232   3.307  -1.728  0.00  0.00    +0.195 A 
ATOM     40  O   UNL     1       5.344   2.673  -2.906  0.00  0.00    -0.466 OA
ENDBRANCH  35  36
ENDBRANCH  26  35
ENDBRANCH   1  26
TORSDOF 12
