REMARK  Name = ZINC26300743
REMARK  9 active torsions:
REMARK  status: ('A' for Active; 'I' for Inactive)
REMARK    1  A    between atoms: C_1  and  N_2
REMARK    2  A    between atoms: N_2  and  C_3
REMARK    3  A    between atoms: N_2  and  C_20
REMARK    4  A    between atoms: C_3  and  C_4
REMARK    5  A    between atoms: N_6  and  C_7
REMARK    6  A    between atoms: C_7  and  C_8
REMARK    7  A    between atoms: C_11  and  C_13
REMARK    8  A    between atoms: C_20  and  C_21
REMARK    9  A    between atoms: N_23  and  C_24
REMARK                            x       y       z     vdW  Elec       q    Type
REMARK                         _______ _______ _______ _____ _____    ______ ____
ROOT
ATOM      1  C   UNL     1       5.271  -3.613   1.569  0.00  0.00    +0.197 C 
ATOM      2  O   UNL     1       5.573  -4.334   0.641  0.00  0.00    -0.278 OA
ATOM      3  N   UNL     1       4.748  -2.393   1.332  0.00  0.00    -0.310 N 
ATOM      4  H   UNL     1       4.474  -1.740   2.173  0.00  0.00    +0.149 HD
ENDROOT
BRANCH   1   5
ATOM      5  C   UNL     1       5.482  -4.081   2.986  0.00  0.00    +0.019 C 
BRANCH   5   7
ATOM      6  C   UNL     1       7.414  -5.420   2.406  0.00  0.00    -0.095 C 
ATOM      7  N   UNL     1       6.059  -5.431   2.975  0.00  0.00    +0.389 N 
ATOM      8  H   UNL     1       5.428  -6.064   2.333  0.00  0.00    -0.081 HD
BRANCH   7   9
ATOM      9  C   UNL     1       6.059  -6.014   4.323  0.00  0.00    +0.019 C 
BRANCH   9  10
ATOM     10  C   UNL     1       6.425  -7.474   4.239  0.00  0.00    +0.197 C 
ATOM     11  O   UNL     1       6.662  -7.979   3.162  0.00  0.00    -0.278 OA
ATOM     12  N   UNL     1       6.488  -8.219   5.361  0.00  0.00    -0.314 N 
ATOM     13  H   UNL     1       6.273  -7.761   6.338  0.00  0.00    +0.149 HD
BRANCH  12  14
ATOM     14  C   UNL     1       6.844  -9.637   5.279  0.00  0.00    +0.073 C 
ATOM     15  C   UNL     1       6.024 -10.620   6.117  0.00  0.00    +0.024 C 
ATOM     16  C   UNL     1       7.462 -10.284   6.520  0.00  0.00    +0.024 C 
ENDBRANCH  12  14
ENDBRANCH   9  10
ENDBRANCH   7   9
ENDBRANCH   5   7
ENDBRANCH   1   5
BRANCH   3  17
ATOM     17  C   UNL     1       4.544  -1.939  -0.046  0.00  0.00    +0.178 C 
BRANCH  17  18
ATOM     18  C   UNL     1       3.951  -0.553  -0.035  0.00  0.00    +0.123 A 
ATOM     19  C   UNL     1       4.649   0.599  -0.036  0.00  0.00    +0.047 A 
ATOM     20  C   UNL     1       3.710   1.650  -0.023  0.00  0.00    +0.050 A 
ATOM     21  C   UNL     1       2.478   1.075  -0.015  0.00  0.00    +0.135 A 
ATOM     22  O   UNL     1       2.640  -0.262  -0.017  0.00  0.00    -0.458 OA
BRANCH  21  23
ATOM     23  C   UNL     1       1.186   1.792   0.000  0.00  0.00    +0.017 A 
ATOM     24  C   UNL     1      -0.013   1.076   0.008  0.00  0.00    +0.013 A 
ATOM     25  C   UNL     1      -1.216   1.751   0.017  0.00  0.00    +0.021 A 
ATOM     26  C   UNL     1      -1.236   3.135   0.030  0.00  0.00    +0.041 A 
ATOM     27  C   UNL     1      -0.050   3.851   0.022  0.00  0.00    +0.021 A 
ATOM     28  C   UNL     1       1.159   3.187   0.008  0.00  0.00    +0.013 A 
ATOM     29 CL   UNL     1      -2.754   3.977   0.048  0.00  0.00    -0.084 Cl
ENDBRANCH  21  23
ENDBRANCH  17  18
ENDBRANCH   3  17
TORSDOF 8
