REMARK  Name = ZINC19798565
REMARK  16 active torsions:
REMARK  status: ('A' for Active; 'I' for Inactive)
REMARK    1  A    between atoms: C_1  and  C_2
REMARK    2  A    between atoms: C_2  and  C_41
REMARK    3  A    between atoms: C_8  and  C_40
REMARK    4  A    between atoms: C_10  and  O_39
REMARK    5  A    between atoms: C_13  and  C_27
REMARK    6  A    between atoms: C_17  and  C_26
REMARK    7  A    between atoms: C_21  and  O_25
REMARK    8  A    between atoms: C_27  and  C_28
REMARK    9  A    between atoms: C_27  and  C_29
REMARK   10  A    between atoms: C_27  and  C_30
REMARK   11  A    between atoms: C_30  and  C_32
REMARK   12  A    between atoms: C_30  and  O_38
REMARK   13  A    between atoms: C_33  and  C_34
REMARK   14  A    between atoms: C_34  and  C_35
REMARK   15  A    between atoms: C_34  and  C_36
REMARK   16  A    between atoms: C_34  and  C_37
REMARK                            x       y       z     vdW  Elec       q    Type
REMARK                         _______ _______ _______ _____ _____    ______ ____
ROOT
ATOM      1  C   UNL     1      -3.845  10.643   3.394  0.00  0.00    +0.023 C 
ATOM      2  C   UNL     1      -3.592   9.383   2.563  0.00  0.00    +0.047 C 
ATOM      3  C   UNL     1      -4.045   8.146   3.328  0.00  0.00    -0.057 C 
ATOM      4  C   UNL     1      -3.289   7.622   4.238  0.00  0.00    -0.026 C 
ATOM      5  C   UNL     1      -3.598   6.321   4.939  0.00  0.00    +0.032 C 
ATOM      6  C   UNL     1      -4.680   5.591   4.140  0.00  0.00    +0.013 C 
ATOM      7  C   UNL     1      -5.074   4.271   4.732  0.00  0.00    -0.019 C 
ATOM      8  C   UNL     1      -3.977   3.183   4.663  0.00  0.00    +0.039 C 
ATOM      9  C   UNL     1      -4.774   1.856   4.767  0.00  0.00    +0.116 C 
ATOM     10  C   UNL     1      -6.255   2.203   4.471  0.00  0.00    +0.039 C 
ATOM     11  C   UNL     1      -6.185   3.613   3.876  0.00  0.00    -0.007 C 
ATOM     12  C   UNL     1      -7.443   4.451   3.960  0.00  0.00    +0.083 C 
ATOM     13  C   UNL     1      -7.082   5.827   3.419  0.00  0.00    +0.141 C 
ATOM     14  O   UNL     1      -7.793   6.344   2.589  0.00  0.00    -0.297 OA
ATOM     15  C   UNL     1      -5.861   6.543   3.929  0.00  0.00    +0.036 C 
ATOM     16  C   UNL     1      -5.397   7.604   2.928  0.00  0.00    +0.032 C 
ATOM     17  C   UNL     1      -5.364   7.092   1.499  0.00  0.00    +0.048 C 
ATOM     18  C   UNL     1      -4.669   8.100   0.580  0.00  0.00    +0.182 C 
ATOM     19  C   UNL     1      -4.446   9.406   1.304  0.00  0.00    +0.171 C 
ATOM     20  O   UNL     1      -4.929  10.436   0.897  0.00  0.00    -0.294 OA
ATOM     21  C   UNL     1      -6.243   7.285   5.217  0.00  0.00    +0.020 C 
ATOM     22  C   UNL     1      -5.508   4.390   6.198  0.00  0.00    +0.012 C 
ATOM     23  C   UNL     1      -2.112   9.287   2.188  0.00  0.00    +0.023 C 
ENDROOT
BRANCH  11  24
ATOM     24  C   UNL     1      -5.755   3.491   2.408  0.00  0.00    +0.001 C 
ATOM     25  C   UNL     1      -6.145   4.765   1.655  0.00  0.00    +0.014 C 
ATOM     26  C   UNL     1      -4.239   3.300   2.335  0.00  0.00    +0.014 C 
BRANCH  24  27
ATOM     27  C   UNL     1      -6.453   2.288   1.770  0.00  0.00    +0.143 C 
BRANCH  27  28
ATOM     28  C   UNL     1      -6.886   2.642   0.371  0.00  0.00    +0.001 C 
ATOM     29  C   UNL     1      -6.429   1.959  -0.649  0.00  0.00    -0.023 C 
BRANCH  29  30
ATOM     30  C   UNL     1      -6.862   2.313  -2.048  0.00  0.00    -0.020 C 
ATOM     31  C   UNL     1      -7.831   3.497  -1.998  0.00  0.00    +0.015 C 
ATOM     32  C   UNL     1      -5.636   2.692  -2.881  0.00  0.00    +0.015 C 
ATOM     33  C   UNL     1      -7.560   1.110  -2.685  0.00  0.00    +0.015 C 
ENDBRANCH  29  30
ENDBRANCH  27  28
BRANCH  27  34
ATOM     34  O   UNL     1      -7.598   1.934   2.549  0.00  0.00    -0.387 OA
ATOM     35  H   UNL     1      -8.230   1.087   2.244  0.00  0.00    +0.210 HD
ENDBRANCH  27  34
ENDBRANCH  24  27
ENDBRANCH  11  24
BRANCH  18  36
ATOM     36  O   UNL     1      -5.501   8.331  -0.560  0.00  0.00    -0.384 OA
ATOM     37  H   UNL     1      -5.176   9.030  -1.345  0.00  0.00    +0.210 HD
ENDBRANCH  18  36
BRANCH   9  38
ATOM     38  O   UNL     1      -4.650   1.301   6.077  0.00  0.00    -0.392 OA
ATOM     39  H   UNL     1      -5.155   0.356   6.324  0.00  0.00    +0.210 HD
ENDBRANCH   9  38
TORSDOF 7
