REMARK  Name = ZINC67289534
REMARK  9 active torsions:
REMARK  status: ('A' for Active; 'I' for Inactive)
REMARK    1  A    between atoms: C_1  and  C_2
REMARK    2  A    between atoms: C_2  and  C_3
REMARK    3  A    between atoms: C_7  and  C_32
REMARK    4  A    between atoms: C_8  and  N_9
REMARK    5  A    between atoms: C_10  and  C_12
REMARK    6  A    between atoms: C_12  and  N_13
REMARK    7  A    between atoms: C_15  and  C_20
REMARK    8  A    between atoms: C_22  and  C_25
REMARK    9  A    between atoms: C_29  and  C_31
REMARK                            x       y       z     vdW  Elec       q    Type
REMARK                         _______ _______ _______ _____ _____    ______ ____
ROOT
ATOM      1  N   UNL     1      -2.215  -0.474  -5.957  0.00  0.00    -0.306 N 
ATOM      2  C   UNL     1      -2.118  -1.712  -6.481  0.00  0.00    +0.103 A 
ATOM      3  C   UNL     1      -2.906  -2.082  -7.551  0.00  0.00    +0.056 A 
ATOM      4  C   UNL     1      -3.821  -1.152  -8.097  0.00  0.00    +0.020 A 
ATOM      5  C   UNL     1      -3.902   0.092  -7.552  0.00  0.00    +0.071 A 
ATOM      6  C   UNL     1      -3.082   0.424  -6.458  0.00  0.00    +0.252 A 
ATOM      7  O   UNL     1      -3.155   1.537  -5.963  0.00  0.00    -0.268 OA
ENDROOT
BRANCH   3   8
ATOM      8  C   UNL     1      -2.795  -3.439  -8.121  0.00  0.00    +0.260 A 
ATOM      9  N   UNL     1      -3.484  -3.906  -9.138  0.00  0.00    -0.187 NA
ATOM     10  C   UNL     1      -3.127  -5.175  -9.388  0.00  0.00    +0.202 A 
ATOM     11  N   UNL     1      -2.204  -5.533  -8.529  0.00  0.00    -0.056 NA
ATOM     12  O   UNL     1      -1.968  -4.409  -7.694  0.00  0.00    -0.332 OA
BRANCH  10  13
ATOM     13  C   UNL     1      -3.688  -6.034 -10.461  0.00  0.00    +0.023 A 
ATOM     14  C   UNL     1      -4.667  -5.534 -11.317  0.00  0.00    +0.012 A 
ATOM     15  C   UNL     1      -5.184  -6.337 -12.313  0.00  0.00    +0.001 A 
ATOM     16  C   UNL     1      -4.733  -7.636 -12.462  0.00  0.00    +0.003 A 
ATOM     17  C   UNL     1      -3.762  -8.138 -11.615  0.00  0.00    -0.050 A 
ATOM     18  C   UNL     1      -3.233  -7.341 -10.619  0.00  0.00    +0.015 A 
ATOM     19  C   UNL     1      -3.276  -9.554 -11.783  0.00  0.00    +0.044 C 
ENDBRANCH  10  13
ENDBRANCH   3   8
BRANCH   1  20
ATOM     20  C   UNL     1      -1.368  -0.103  -4.821  0.00  0.00    +0.220 C 
BRANCH  20  22
ATOM     21  N   UNL     1      -1.483  -0.185  -2.352  0.00  0.00    -0.284 N 
ATOM     22  C   UNL     1      -2.076  -0.441  -3.535  0.00  0.00    +0.237 C 
ATOM     23  O   UNL     1      -3.180  -0.941  -3.564  0.00  0.00    -0.274 OA
ATOM     24  H   UNL     1      -0.630   0.276  -2.326  0.00  0.00    +0.155 HD
BRANCH  21  30
ATOM     25  C   UNL     1      -2.709   0.355  -0.343  0.00  0.00    -0.026 A 
ATOM     26  C   UNL     1      -3.320  -0.044   0.830  0.00  0.00    +0.005 A 
ATOM     27  C   UNL     1      -3.318  -1.378   1.193  0.00  0.00    +0.001 A 
ATOM     28  C   UNL     1      -2.705  -2.317   0.384  0.00  0.00    +0.005 A 
ATOM     29  C   UNL     1      -2.093  -1.924  -0.790  0.00  0.00    -0.029 A 
ATOM     30  C   UNL     1      -2.098  -0.586  -1.160  0.00  0.00    +0.040 A 
ATOM     31  C   UNL     1      -1.425  -2.948  -1.671  0.00  0.00    +0.045 C 
BRANCH  25  33
ATOM     32  C   UNL     1      -3.887   2.080  -1.679  0.00  0.00    +0.009 C 
ATOM     33  C   UNL     1      -2.712   1.810  -0.738  0.00  0.00    +0.033 C 
ENDBRANCH  25  33
ENDBRANCH  21  30
ENDBRANCH  20  22
ENDBRANCH   1  20
TORSDOF 6
