REMARK  Name = ZINC06442362
REMARK  7 active torsions:
REMARK  status: ('A' for Active; 'I' for Inactive)
REMARK    1  A    between atoms: C_1  and  C_2
REMARK    2  A    between atoms: C_7  and  C_15
REMARK    3  A    between atoms: C_13  and  C_14
REMARK    4  A    between atoms: C_15  and  C_17
REMARK    5  A    between atoms: C_15  and  N_63
REMARK    6  A    between atoms: N_21  and  C_22
REMARK    7  A    between atoms: C_22  and  C_23
REMARK                            x       y       z     vdW  Elec       q    Type
REMARK                         _______ _______ _______ _____ _____    ______ ____
ROOT
ATOM      1  C   UNL     1      -2.331  -0.862   1.881  0.00  0.00    +0.039 C 
ENDROOT
BRANCH   1   8
ATOM      2  C   UNL     1      -5.506   5.890   4.700  0.00  0.00    +0.044 C 
ATOM      3  C   UNL     1      -4.982   4.688   3.959  0.00  0.00    -0.046 A 
ATOM      4  C   UNL     1      -5.167   4.592   2.586  0.00  0.00    +0.004 A 
ATOM      5  C   UNL     1      -4.699   3.511   1.895  0.00  0.00    +0.010 A 
ATOM      6  C   UNL     1      -4.028   2.490   2.577  0.00  0.00    -0.001 A 
ATOM      7  C   UNL     1      -3.514   1.317   1.868  0.00  0.00    +0.017 A 
ATOM      8  C   UNL     1      -2.872   0.359   2.581  0.00  0.00    +0.011 A 
ATOM      9  C   UNL     1      -2.713   0.498   3.976  0.00  0.00    +0.251 A 
ATOM     10  O   UNL     1      -2.137  -0.378   4.599  0.00  0.00    -0.268 OA
ATOM     11  N   UNL     1      -3.177   1.574   4.635  0.00  0.00    -0.322 N 
ATOM     12  H   UNL     1      -3.047   1.640   5.594  0.00  0.00    +0.169 HD
ATOM     13  C   UNL     1      -3.838   2.583   3.969  0.00  0.00    +0.052 A 
ATOM     14  C   UNL     1      -4.323   3.695   4.651  0.00  0.00    -0.024 A 
ATOM     15  C   UNL     1      -4.128   3.812   6.141  0.00  0.00    +0.046 C 
ENDBRANCH   1   8
BRANCH   1  22
ATOM     16  C   UNL     1      -2.188  -3.284   2.010  0.00  0.00    -0.077 C 
ATOM     17  C   UNL     1      -2.871  -4.555   2.437  0.00  0.00    -0.019 C 
ATOM     18  C   UNL     1      -3.868  -4.970   1.334  0.00  0.00    -0.002 C 
ATOM     19  C   UNL     1      -5.102  -4.194   1.387  0.00  0.00    -0.002 C 
ATOM     20  C   UNL     1      -4.851  -2.685   1.180  0.00  0.00    -0.019 C 
ATOM     21  C   UNL     1      -4.334  -2.106   2.469  0.00  0.00    -0.077 C 
ATOM     22  N   UNL     1      -2.836  -2.054   2.579  0.00  0.00    +0.389 N 
ATOM     23  H   UNL     1      -2.587  -1.988   3.573  0.00  0.00    -0.080 HD
ENDBRANCH   1  22
BRANCH   1  24
ATOM     24  C   UNL     1      -0.826  -0.861   1.963  0.00  0.00    +0.143 A 
ATOM     25  N   UNL     1      -0.101  -0.994   3.046  0.00  0.00    -0.115 NA
ATOM     26  N   UNL     1       1.140  -0.941   2.704  0.00  0.00    -0.023 NA
ATOM     27  N   UNL     1       1.225  -0.784   1.429  0.00  0.00    -0.044 NA
ATOM     28  N   UNL     1       0.034  -0.724   0.936  0.00  0.00    -0.226 N 
BRANCH  28  29
ATOM     29  C   UNL     1      -0.316  -0.547  -0.475  0.00  0.00    +0.182 C 
BRANCH  29  30
ATOM     30  C   UNL     1      -0.310   0.921  -0.814  0.00  0.00    -0.026 A 
ATOM     31  C   UNL     1      -1.493   1.636  -0.808  0.00  0.00    +0.008 A 
ATOM     32  C   UNL     1      -1.488   2.984  -1.114  0.00  0.00    +0.038 A 
ATOM     33  C   UNL     1      -0.298   3.616  -1.436  0.00  0.00    +0.123 A 
ATOM     34  C   UNL     1       0.885   2.897  -1.446  0.00  0.00    +0.038 A 
ATOM     35  C   UNL     1       0.878   1.551  -1.135  0.00  0.00    +0.008 A 
ATOM     36  F   UNL     1      -0.293   4.932  -1.740  0.00  0.00    -0.205 F 
ENDBRANCH  29  30
ENDBRANCH  28  29
ENDBRANCH   1  24
TORSDOF 5
