REMARK  Name = ZINC39948206
REMARK  8 active torsions:
REMARK  status: ('A' for Active; 'I' for Inactive)
REMARK    1  A    between atoms: C_1  and  C_2
REMARK    2  A    between atoms: C_2  and  O_3
REMARK    3  A    between atoms: O_3  and  C_4
REMARK    4  A    between atoms: C_6  and  C_12
REMARK    5  A    between atoms: C_9  and  O_10
REMARK    6  A    between atoms: C_13  and  C_14
REMARK    7  A    between atoms: C_13  and  C_16
REMARK    8  A    between atoms: C_24  and  C_32
REMARK                            x       y       z     vdW  Elec       q    Type
REMARK                         _______ _______ _______ _____ _____    ______ ____
ROOT
ATOM      1  C   UNL     1      -0.206  -4.962   0.439  0.00  0.00    +0.030 C 
ATOM      2  C   UNL     1      -0.187  -6.321   0.220  0.00  0.00    +0.094 C 
ENDROOT
BRANCH   2   3
ATOM      3  C   UNL     1      -0.850  -7.230   1.172  0.00  0.00    +0.164 C 
ATOM      4  N   UNL     1      -1.458  -6.707   2.225  0.00  0.00    -0.156 NA
ATOM      5  C   UNL     1      -2.078  -7.450   3.141  0.00  0.00    +0.272 C 
ATOM      6  O   UNL     1      -2.631  -6.934   4.098  0.00  0.00    -0.268 OA
ATOM      7  C   UNL     1      -2.076  -8.938   2.960  0.00  0.00    +0.071 C 
ATOM      8  C   UNL     1      -2.582  -9.868   3.788  0.00  0.00    -0.042 C 
ATOM      9  C   UNL     1      -3.120  -9.562   5.184  0.00  0.00    +0.033 C 
ATOM     10  C   UNL     1      -2.359 -10.470   6.159  0.00  0.00    +0.008 C 
ATOM     11  C   UNL     1      -2.449 -11.925   5.708  0.00  0.00    -0.012 C 
ATOM     12  C   UNL     1      -1.770 -12.118   4.349  0.00  0.00    +0.022 C 
ATOM     13  C   UNL     1      -2.539 -11.312   3.300  0.00  0.00    +0.080 C 
ATOM     14  S   UNL     1      -1.545 -11.167   1.767  0.00  0.00    -0.097 S 
ATOM     15  C   UNL     1      -1.375  -9.400   1.743  0.00  0.00    +0.112 C 
ATOM     16  N   UNL     1      -0.813  -8.543   0.930  0.00  0.00    -0.222 NA
ATOM     17  C   UNL     1      -1.762 -12.817   6.744  0.00  0.00    +0.007 C 
ENDBRANCH   2   3
BRANCH   1  20
ATOM     18  C   UNL     1       0.860  -1.963  -1.540  0.00  0.00    +0.163 A 
ATOM     19  C   UNL     1       0.106  -2.797  -0.740  0.00  0.00    +0.057 A 
ATOM     20  C   UNL     1       0.589  -4.072  -0.411  0.00  0.00    -0.019 A 
ATOM     21  C   UNL     1       1.835  -4.492  -0.898  0.00  0.00    +0.027 A 
ATOM     22  C   UNL     1       2.579  -3.652  -1.697  0.00  0.00    +0.063 A 
ATOM     23  C   UNL     1       2.096  -2.391  -2.026  0.00  0.00    +0.173 A 
ATOM     24 BR   UNL     1       4.259  -4.220  -2.353  0.00  0.00    -0.046 Br
BRANCH  23  25
ATOM     25  O   UNL     1       2.832  -1.570  -2.818  0.00  0.00    -0.503 OA
ATOM     26  H   UNL     1       3.442  -0.998  -2.333  0.00  0.00    +0.292 HD
ENDBRANCH  23  25
BRANCH  18  27
ATOM     27  O   UNL     1       0.395  -0.726  -1.861  0.00  0.00    -0.489 OA
BRANCH  27  29
ATOM     28  C   UNL     1      -1.231   1.060  -1.795  0.00  0.00    +0.048 C 
ATOM     29  C   UNL     1      -0.878  -0.354  -1.329  0.00  0.00    +0.226 C 
ENDBRANCH  27  29
ENDBRANCH  18  27
ENDBRANCH   1  20
BRANCH   2  30
ATOM     30  C   UNL     1       0.476  -6.851  -0.933  0.00  0.00    +0.103 C 
ATOM     31  N   UNL     1       1.002  -7.272  -1.848  0.00  0.00    -0.191 NA
ENDBRANCH   2  30
TORSDOF 6
