REMARK  Name = ZINC20615331
REMARK  7 active torsions:
REMARK  status: ('A' for Active; 'I' for Inactive)
REMARK    1  A    between atoms: C_1  and  N_2
REMARK    2  A    between atoms: C_4  and  C_20
REMARK    3  A    between atoms: C_5  and  C_7
REMARK    4  A    between atoms: N_9  and  C_10
REMARK    5  A    between atoms: N_9  and  C_11
REMARK    6  A    between atoms: C_11  and  C_12
REMARK    7  A    between atoms: N_15  and  C_17
REMARK                            x       y       z     vdW  Elec       q    Type
REMARK                         _______ _______ _______ _____ _____    ______ ____
ROOT
ATOM      1  C   UNL     1       3.886   3.487   0.218  0.00  0.00    +0.268 C 
ATOM      2  O   UNL     1       4.162   2.304   0.263  0.00  0.00    -0.268 OA
ATOM      3  N   UNL     1       4.834   4.389  -0.104  0.00  0.00    -0.293 N 
ATOM      4  C   UNL     1       4.518   5.819  -0.096  0.00  0.00    +0.133 C 
ENDROOT
BRANCH   1   9
ATOM      5  C   UNL     1       0.060   6.444   1.047  0.00  0.00    +0.172 C 
ATOM      6  N   UNL     1       0.833   5.210   0.881  0.00  0.00    -0.273 N 
ATOM      7  C   UNL     1       0.318   3.976   1.004  0.00  0.00    +0.124 A 
ATOM      8  C   UNL     1       1.338   3.087   0.779  0.00  0.00    +0.113 A 
ATOM      9  C   UNL     1       2.511   3.936   0.517  0.00  0.00    +0.161 A 
ATOM     10  N   UNL     1       2.083   5.178   0.599  0.00  0.00    -0.166 NA
BRANCH   8  11
ATOM     11  C   UNL     1       1.275   1.615   0.802  0.00  0.00    +0.390 C 
ATOM     12  O   UNL     1       2.275   0.961   0.582  0.00  0.00    -0.240 OA
ATOM     13  O   UNL     1       0.109   0.995   1.068  0.00  0.00    -0.240 OA
ENDBRANCH   8  11
ENDBRANCH   1   9
BRANCH   3  14
ATOM     14  C   UNL     1       6.181   3.938  -0.463  0.00  0.00    +0.166 C 
BRANCH  14  15
ATOM     15  C   UNL     1       6.254   3.706  -1.950  0.00  0.00    +0.100 A 
ATOM     16  C   UNL     1       5.979   2.501  -2.606  0.00  0.00    +0.102 A 
ATOM     17  C   UNL     1       6.154   2.702  -3.935  0.00  0.00    +0.145 A 
ATOM     18  N   UNL     1       6.535   3.986  -4.110  0.00  0.00    -0.254 N 
ATOM     19  N   UNL     1       6.590   4.595  -2.850  0.00  0.00    -0.172 NA
ATOM     20  C   UNL     1       6.837   4.628  -5.392  0.00  0.00    +0.174 C 
ATOM     21 CL   UNL     1       5.936   1.519  -5.187  0.00  0.00    -0.061 Cl
ATOM     22 CL   UNL     1       5.496   1.014  -1.852  0.00  0.00    -0.078 Cl
ENDBRANCH  14  15
ENDBRANCH   3  14
TORSDOF 4
