REMARK  Name = ZINC63472722
REMARK  3 active torsions:
REMARK  status: ('A' for Active; 'I' for Inactive)
REMARK    1  A    between atoms: C_7  and  C_10
REMARK    2  A    between atoms: C_10  and  C_11
REMARK    3  A    between atoms: N_19  and  C_22
REMARK                            x       y       z     vdW  Elec       q    Type
REMARK                         _______ _______ _______ _____ _____    ______ ____
ROOT
ATOM      1  C   UNL     1       0.457  -3.653  -1.462  0.00  0.00    +0.072 C 
ATOM      2  C   UNL     1      -0.573  -4.804  -1.492  0.00  0.00    +0.107 C 
ATOM      3  C   UNL     1      -0.064  -5.763  -2.604  0.00  0.00    +0.122 C 
ATOM      4  C   UNL     1      -1.137  -5.667  -3.664  0.00  0.00    +0.228 C 
ATOM      5  O   UNL     1      -1.133  -6.261  -4.721  0.00  0.00    -0.275 OA
ATOM      6  N   UNL     1      -2.094  -4.825  -3.255  0.00  0.00    -0.238 N 
ATOM      7  C   UNL     1      -1.884  -4.281  -2.033  0.00  0.00    +0.227 C 
ATOM      8  O   UNL     1      -2.618  -3.503  -1.462  0.00  0.00    -0.275 OA
ATOM      9  C   UNL     1       1.237  -5.123  -3.103  0.00  0.00    +0.136 C 
ATOM     10  N   UNL     1       1.702  -4.238  -2.025  0.00  0.00    -0.295 NA
ATOM     11  C   UNL     1       2.260  -6.163  -3.461  0.00  0.00    +0.006 A 
ATOM     12  C   UNL     1       2.873  -7.173  -2.752  0.00  0.00    +0.046 A 
ATOM     13  C   UNL     1       3.802  -7.991  -3.375  0.00  0.00    +0.124 A 
ATOM     14  C   UNL     1       4.110  -7.791  -4.710  0.00  0.00    +0.040 A 
ATOM     15  C   UNL     1       3.497  -6.780  -5.422  0.00  0.00    +0.026 A 
ATOM     16  C   UNL     1       2.562  -5.954  -4.803  0.00  0.00    +0.039 A 
ATOM     17  N   UNL     1       1.819  -4.881  -5.303  0.00  0.00    -0.283 N 
ATOM     18  C   UNL     1       1.016  -4.339  -4.367  0.00  0.00    +0.243 C 
ATOM     19  O   UNL     1       0.261  -3.402  -4.515  0.00  0.00    -0.273 OA
ATOM     20  F   UNL     1       4.405  -8.982  -2.682  0.00  0.00    -0.205 F 
ATOM     21  H   UNL     1       2.313  -3.517  -2.379  0.00  0.00    +0.124 HD
ATOM     22  H   UNL     1       1.875  -4.564  -6.218  0.00  0.00    +0.155 HD
ENDROOT
BRANCH   6  23
ATOM     23  C   UNL     1      -3.278  -4.520  -4.060  0.00  0.00    +0.084 C 
ATOM     24  C   UNL     1      -3.320  -3.020  -4.358  0.00  0.00    +0.023 C 
ATOM     25  C   UNL     1      -4.558  -2.701  -5.199  0.00  0.00    +0.002 C 
ATOM     26  C   UNL     1      -5.816  -3.103  -4.428  0.00  0.00    +0.000 C 
ATOM     27  C   UNL     1      -5.774  -4.603  -4.130  0.00  0.00    +0.002 C 
ATOM     28  C   UNL     1      -4.537  -4.922  -3.289  0.00  0.00    +0.023 C 
ENDBRANCH   6  23
BRANCH   1  29
ATOM     29  C   UNL     1       0.691  -3.186  -0.024  0.00  0.00    +0.052 C 
BRANCH  29  36
ATOM     30  C   UNL     1      -0.016   1.348   0.009  0.00  0.00    +0.001 A 
ATOM     31  C   UNL     1       1.166   2.101   0.002  0.00  0.00    +0.002 A 
ATOM     32  C   UNL     1       2.391   1.535  -0.013  0.00  0.00    +0.026 A 
ATOM     33  C   UNL     1       2.529   0.120  -0.022  0.00  0.00    +0.043 A 
ATOM     34  N   UNL     1       3.587  -0.654  -0.037  0.00  0.00    -0.380 N 
ATOM     35  C   UNL     1       3.143  -2.053  -0.041  0.00  0.00    +0.144 C 
ATOM     36  C   UNL     1       1.631  -2.008  -0.025  0.00  0.00    -0.040 C 
ATOM     37  C   UNL     1       1.295  -0.698  -0.014  0.00  0.00    -0.001 A 
ATOM     38  C   UNL     1       0.002  -0.004   0.002  0.00  0.00    +0.010 A 
ATOM     39  H   UNL     1       4.509  -0.353  -0.045  0.00  0.00    +0.160 HD
ENDBRANCH  29  36
ENDBRANCH   1  29
TORSDOF 3
