REMARK  Name = ZINC41006950
REMARK  7 active torsions:
REMARK  status: ('A' for Active; 'I' for Inactive)
REMARK    1  A    between atoms: C_1  and  C_2
REMARK    2  A    between atoms: C_2  and  O_38
REMARK    3  A    between atoms: C_6  and  C_29
REMARK    4  A    between atoms: C_8  and  C_21
REMARK    5  A    between atoms: C_10  and  C_12
REMARK    6  A    between atoms: N_14  and  C_15
REMARK    7  A    between atoms: N_31  and  C_32
REMARK                            x       y       z     vdW  Elec       q    Type
REMARK                         _______ _______ _______ _____ _____    ______ ____
ROOT
ATOM      1  C   UNL     1       1.198   1.735   0.987  0.00  0.00    +0.042 C 
ATOM      2  C   UNL     1       1.483   0.259   0.702  0.00  0.00    +0.082 C 
ATOM      3  C   UNL     1       2.274   0.135  -0.605  0.00  0.00    +0.110 C 
ATOM      4  C   UNL     1       3.630   0.776  -0.409  0.00  0.00    +0.148 C 
ATOM      5  O   UNL     1       4.043   1.601  -1.188  0.00  0.00    -0.296 OA
ATOM      6  C   UNL     1       4.455   0.358   0.788  0.00  0.00    +0.149 C 
ATOM      7  C   UNL     1       3.584   0.475   2.044  0.00  0.00    +0.053 C 
ATOM      8  C   UNL     1       2.301  -0.334   1.850  0.00  0.00    +0.115 C 
ENDROOT
BRANCH   7   9
ATOM      9  C   UNL     1       4.342  -0.061   3.232  0.00  0.00    -0.041 A 
ATOM     10  C   UNL     1       4.555  -1.421   3.359  0.00  0.00    +0.005 A 
ATOM     11  C   UNL     1       5.249  -1.914   4.448  0.00  0.00    +0.022 A 
ATOM     12  C   UNL     1       5.731  -1.046   5.411  0.00  0.00    +0.059 A 
ATOM     13  C   UNL     1       5.518   0.316   5.284  0.00  0.00    +0.060 A 
ATOM     14  C   UNL     1       4.827   0.808   4.190  0.00  0.00    +0.025 A 
ATOM     15 CL   UNL     1       6.121   1.407   6.492  0.00  0.00    -0.082 Cl
ATOM     16 CL   UNL     1       6.602  -1.664   6.779  0.00  0.00    -0.082 Cl
ENDBRANCH   7   9
BRANCH   8  17
ATOM     17  C   UNL     1       2.653  -1.763   1.527  0.00  0.00    +0.224 C 
ATOM     18  O   UNL     1       3.041  -2.056   0.416  0.00  0.00    -0.275 OA
ATOM     19  N   UNL     1       2.537  -2.716   2.474  0.00  0.00    -0.285 N 
ATOM     20  H   UNL     1       2.289  -2.472   3.379  0.00  0.00    +0.155 HD
BRANCH  19  21
ATOM     21  C   UNL     1       2.775  -4.056   2.150  0.00  0.00    +0.033 A 
ATOM     22  C   UNL     1       2.669  -4.483   0.833  0.00  0.00    +0.023 A 
ATOM     23  C   UNL     1       2.904  -5.807   0.516  0.00  0.00    +0.002 A 
ATOM     24  C   UNL     1       3.244  -6.707   1.510  0.00  0.00    +0.000 A 
ATOM     25  C   UNL     1       3.350  -6.285   2.822  0.00  0.00    +0.002 A 
ATOM     26  C   UNL     1       3.122  -4.961   3.144  0.00  0.00    +0.023 A 
ENDBRANCH  19  21
ENDBRANCH   8  17
BRANCH   6  27
ATOM     27  C   UNL     1       4.912  -1.067   0.615  0.00  0.00    +0.228 C 
ATOM     28  O   UNL     1       5.484  -1.635   1.522  0.00  0.00    -0.275 OA
ATOM     29  N   UNL     1       4.686  -1.711  -0.547  0.00  0.00    -0.285 N 
ATOM     30  H   UNL     1       4.276  -1.241  -1.290  0.00  0.00    +0.155 HD
BRANCH  29  31
ATOM     31  C   UNL     1       5.041  -3.058  -0.681  0.00  0.00    +0.033 A 
ATOM     32  C   UNL     1       5.320  -3.820   0.446  0.00  0.00    +0.023 A 
ATOM     33  C   UNL     1       5.671  -5.149   0.310  0.00  0.00    +0.002 A 
ATOM     34  C   UNL     1       5.744  -5.721  -0.947  0.00  0.00    +0.000 A 
ATOM     35  C   UNL     1       5.468  -4.965  -2.071  0.00  0.00    +0.002 A 
ATOM     36  C   UNL     1       5.110  -3.637  -1.942  0.00  0.00    +0.023 A 
ENDBRANCH  29  31
ENDBRANCH   6  27
BRANCH   2  37
ATOM     37  O   UNL     1       0.247  -0.449   0.581  0.00  0.00    -0.388 OA
ATOM     38  H   UNL     1      -0.323  -0.126  -0.130  0.00  0.00    +0.210 HD
ENDBRANCH   2  37
TORSDOF 6
