REMARK  Name = ZINC40315652
REMARK  12 active torsions:
REMARK  status: ('A' for Active; 'I' for Inactive)
REMARK    1  A    between atoms: C_1  and  C_2
REMARK    2  A    between atoms: C_5  and  O_9
REMARK    3  A    between atoms: C_6  and  C_8
REMARK    4  A    between atoms: O_9  and  C_10
REMARK    5  A    between atoms: C_10  and  C_11
REMARK    6  A    between atoms: C_11  and  C_13
REMARK    7  A    between atoms: C_11  and  O_32
REMARK    8  A    between atoms: C_13  and  N_14
REMARK    9  A    between atoms: N_14  and  C_15
REMARK   10  A    between atoms: N_14  and  C_26
REMARK   11  A    between atoms: C_15  and  C_16
REMARK   12  A    between atoms: C_26  and  C_27
REMARK                            x       y       z     vdW  Elec       q    Type
REMARK                         _______ _______ _______ _____ _____    ______ ____
ROOT
ATOM      1  N   UNL     1      -0.032  -8.744  -2.210  0.00  0.00    +0.389 N 
ATOM      2  H   UNL     1       0.778  -9.046  -1.691  0.00  0.00    -0.081 HD
ENDROOT
BRANCH   1   3
ATOM      3  C   UNL     1       0.040  -7.293  -2.429  0.00  0.00    -0.043 C 
BRANCH   3   4
ATOM      4  C   UNL     1       0.202  -6.582  -1.084  0.00  0.00    +0.135 C 
BRANCH   4   5
ATOM      5  O   UNL     1       1.458  -6.940  -0.504  0.00  0.00    -0.390 OA
ATOM      6  H   UNL     1       2.224  -6.703  -1.047  0.00  0.00    +0.210 HD
ENDBRANCH   4   5
BRANCH   4   7
ATOM      7  C   UNL     1       0.152  -5.068  -1.298  0.00  0.00    +0.258 C 
BRANCH   7   8
ATOM      8  O   UNL     1       0.187  -4.406  -0.032  0.00  0.00    -0.489 OA
BRANCH   8  13
ATOM      9  C   UNL     1       0.030   1.224  -0.082  0.00  0.00    +0.044 C 
ATOM     10  C   UNL     1       0.072  -0.283  -0.069  0.00  0.00    -0.050 A 
ATOM     11  C   UNL     1       0.043  -0.985  -1.260  0.00  0.00    +0.007 A 
ATOM     12  C   UNL     1       0.081  -2.366  -1.250  0.00  0.00    +0.046 A 
ATOM     13  C   UNL     1       0.150  -3.048  -0.044  0.00  0.00    +0.124 A 
ATOM     14  C   UNL     1       0.180  -2.341   1.149  0.00  0.00    -0.009 A 
ATOM     15  C   UNL     1       0.146  -0.960   1.134  0.00  0.00    +0.010 A 
ATOM     16  C   UNL     1       0.254  -3.079   2.461  0.00  0.00    +0.047 C 
ENDBRANCH   8  13
ENDBRANCH   7   8
ENDBRANCH   4   7
ENDBRANCH   3   4
ENDBRANCH   1   3
BRANCH   1  17
ATOM     17  C   UNL     1      -0.068  -9.433  -3.507  0.00  0.00    -0.042 C 
BRANCH  17  18
ATOM     18  C   UNL     1       1.238  -9.216  -4.228  0.00  0.00    -0.056 A 
ATOM     19  C   UNL     1       1.316  -8.314  -5.244  0.00  0.00    +0.002 A 
ATOM     20  C   UNL     1       2.515  -8.099  -5.922  0.00  0.00    +0.001 A 
ATOM     21  C   UNL     1       3.642  -8.785  -5.587  0.00  0.00    +0.008 A 
ATOM     22  C   UNL     1       3.599  -9.724  -4.543  0.00  0.00    -0.018 A 
ATOM     23  C   UNL     1       2.382  -9.938  -3.849  0.00  0.00    -0.017 A 
ATOM     24  C   UNL     1       2.341 -10.873  -2.801  0.00  0.00    +0.009 A 
ATOM     25  C   UNL     1       3.469 -11.555  -2.462  0.00  0.00    +0.001 A 
ATOM     26  C   UNL     1       4.668 -11.340  -3.140  0.00  0.00    +0.001 A 
ATOM     27  C   UNL     1       4.742 -10.452  -4.169  0.00  0.00    +0.008 A 
ENDBRANCH  17  18
ENDBRANCH   1  17
BRANCH   1  28
ATOM     28  C   UNL     1      -1.249  -9.065  -1.452  0.00  0.00    -0.003 C 
BRANCH  28  29
ATOM     29  C   UNL     1      -1.259 -10.534  -1.117  0.00  0.00    +0.089 A 
ATOM     30  C   UNL     1      -0.653 -11.104  -0.060  0.00  0.00    +0.042 A 
ATOM     31  C   UNL     1      -0.919 -12.491  -0.134  0.00  0.00    +0.041 A 
ATOM     32  C   UNL     1      -1.671 -12.685  -1.233  0.00  0.00    +0.195 A 
ATOM     33  O   UNL     1      -1.879 -11.495  -1.821  0.00  0.00    -0.470 OA
ENDBRANCH  28  29
ENDBRANCH   1  28
TORSDOF 10
