REMARK  Name = ZINC45865317
REMARK  4 active torsions:
REMARK  status: ('A' for Active; 'I' for Inactive)
REMARK    1  A    between atoms: C_9  and  C_18
REMARK    2  A    between atoms: C_18  and  N_19
REMARK    3  A    between atoms: C_20  and  C_22
REMARK    4  A    between atoms: C_25  and  N_28
REMARK                            x       y       z     vdW  Elec       q    Type
REMARK                         _______ _______ _______ _____ _____    ______ ____
ROOT
ATOM      1  C   UNL     1       4.720  -2.668   1.220  0.00  0.00    +0.109 C 
ENDROOT
BRANCH   1  10
ATOM      2  C   UNL     1      -0.064   1.319  -0.029  0.00  0.00    +0.000 A 
ATOM      3  C   UNL     1       1.110   2.049  -0.029  0.00  0.00    +0.000 A 
ATOM      4  C   UNL     1       2.340   1.404  -0.036  0.00  0.00    +0.004 A 
ATOM      5  C   UNL     1       2.368   0.039  -0.043  0.00  0.00    -0.036 A 
ATOM      6  C   UNL     1       1.184  -0.697  -0.044  0.00  0.00    -0.036 A 
ATOM      7  C   UNL     1      -0.029  -0.070  -0.037  0.00  0.00    +0.004 A 
ATOM      8  C   UNL     1       1.383  -2.205  -0.053  0.00  0.00    +0.050 C 
ATOM      9  C   UNL     1       2.234  -2.513   1.199  0.00  0.00    +0.018 C 
ATOM     10  C   UNL     1       3.531  -1.706   1.199  0.00  0.00    +0.019 C 
ATOM     11  C   UNL     1       3.632  -0.806  -0.052  0.00  0.00    +0.054 C 
ATOM     12  C   UNL     1       3.477  -1.745  -1.238  0.00  0.00    -0.036 A 
ATOM     13  C   UNL     1       2.294  -2.481  -1.238  0.00  0.00    -0.036 A 
ATOM     14  C   UNL     1       2.022  -3.364  -2.243  0.00  0.00    +0.004 A 
ATOM     15  C   UNL     1       2.946  -3.518  -3.269  0.00  0.00    +0.000 A 
ATOM     16  C   UNL     1       4.120  -2.787  -3.268  0.00  0.00    +0.000 A 
ATOM     17  C   UNL     1       4.391  -1.891  -2.243  0.00  0.00    +0.004 A 
ENDBRANCH   1  10
BRANCH   1  18
ATOM     18  N   UNL     1       4.722  -3.414   2.481  0.00  0.00    -0.311 N 
ATOM     19  C   UNL     1       5.685  -4.326   2.722  0.00  0.00    +0.244 C 
ATOM     20  O   UNL     1       6.551  -4.530   1.894  0.00  0.00    -0.270 OA
ATOM     21  H   UNL     1       4.031  -3.252   3.142  0.00  0.00    +0.149 HD
BRANCH  19  22
ATOM     22  C   UNL     1       5.687  -5.078   3.993  0.00  0.00    +0.037 A 
ATOM     23  C   UNL     1       4.689  -4.849   4.944  0.00  0.00    +0.015 A 
ATOM     24  C   UNL     1       4.694  -5.552   6.127  0.00  0.00    +0.024 A 
ATOM     25  C   UNL     1       5.691  -6.490   6.377  0.00  0.00    +0.038 A 
ATOM     26  C   UNL     1       6.687  -6.719   5.433  0.00  0.00    +0.024 A 
ATOM     27  C   UNL     1       6.685  -6.024   4.245  0.00  0.00    +0.015 A 
BRANCH  25  28
ATOM     28  N   UNL     1       5.694  -7.200   7.577  0.00  0.00    -0.254 N 
ATOM     29  C   UNL     1       6.616  -8.293   7.919  0.00  0.00    +0.134 C 
ATOM     30  C   UNL     1       6.183  -8.712   9.337  0.00  0.00    +0.125 C 
ATOM     31  N   UNL     1       5.062  -7.811   9.644  0.00  0.00    -0.297 N 
ATOM     32  C   UNL     1       4.859  -6.992   8.604  0.00  0.00    +0.307 C 
ATOM     33  O   UNL     1       3.993  -6.139   8.591  0.00  0.00    -0.252 OA
ATOM     34  H   UNL     1       4.554  -7.807  10.470  0.00  0.00    +0.150 HD
ENDBRANCH  25  28
ENDBRANCH  19  22
ENDBRANCH   1  18
TORSDOF 4
