REMARK  Name = ZINC45125006
REMARK  8 active torsions:
REMARK  status: ('A' for Active; 'I' for Inactive)
REMARK    1  A    between atoms: C_1  and  C_2
REMARK    2  A    between atoms: C_2  and  C_4
REMARK    3  A    between atoms: C_2  and  N_14
REMARK    4  A    between atoms: C_8  and  S_10
REMARK    5  A    between atoms: S_10  and  N_13
REMARK    6  A    between atoms: N_17  and  C_18
REMARK    7  A    between atoms: N_17  and  C_19
REMARK    8  A    between atoms: C_19  and  C_20
REMARK                            x       y       z     vdW  Elec       q    Type
REMARK                         _______ _______ _______ _____ _____    ______ ____
ROOT
ATOM      1  N   UNL     1      -1.613  -0.572  -0.312  0.00  0.00    -0.293 N 
ATOM      2  C   UNL     1      -2.062  -0.663   0.955  0.00  0.00    +0.303 C 
ATOM      3  O   UNL     1      -1.335  -0.360   1.882  0.00  0.00    -0.253 OA
ATOM      4  N   UNL     1      -3.318  -1.090   1.196  0.00  0.00    -0.284 N 
ATOM      5  C   UNL     1      -4.194  -1.455   0.080  0.00  0.00    +0.134 C 
ATOM      6  H   UNL     1      -2.193  -0.813  -1.051  0.00  0.00    +0.151 HD
ENDROOT
BRANCH   1   8
ATOM      7  C   UNL     1      -0.228   1.422  -0.612  0.00  0.00    +0.033 C 
ATOM      8  C   UNL     1      -0.248  -0.108  -0.574  0.00  0.00    +0.102 C 
BRANCH   8   9
ATOM      9  C   UNL     1       0.221  -0.649  -1.899  0.00  0.00    -0.026 A 
ATOM     10  C   UNL     1      -0.647  -0.694  -2.974  0.00  0.00    +0.005 A 
ATOM     11  C   UNL     1      -0.217  -1.191  -4.190  0.00  0.00    +0.002 A 
ATOM     12  C   UNL     1       1.082  -1.643  -4.331  0.00  0.00    +0.028 A 
ATOM     13  C   UNL     1       1.950  -1.598  -3.257  0.00  0.00    +0.105 A 
ATOM     14  C   UNL     1       1.521  -1.097  -2.042  0.00  0.00    +0.034 A 
BRANCH  13  15
ATOM     15  S   UNL     1       3.606  -2.174  -3.437  0.00  0.00    +0.056 S 
ATOM     16  O   UNL     1       4.055  -2.530  -2.136  0.00  0.00    -0.153 OA
ATOM     17  O   UNL     1       3.599  -3.095  -4.519  0.00  0.00    -0.153 OA
BRANCH  15  18
ATOM     18  N   UNL     1       4.524  -0.884  -3.918  0.00  0.00    -0.204 NA
ATOM     19  H   UNL     1       5.461  -0.835  -3.670  0.00  0.00    +0.144 HD
ATOM     20  H   UNL     1       4.126  -0.176  -4.449  0.00  0.00    +0.144 HD
ENDBRANCH  15  18
ENDBRANCH  13  15
ENDBRANCH   8   9
ENDBRANCH   1   8
BRANCH   4  21
ATOM     21  C   UNL     1      -3.806  -1.189   2.574  0.00  0.00    +0.144 C 
BRANCH  21  22
ATOM     22  C   UNL     1      -4.542   0.075   2.938  0.00  0.00    -0.022 A 
ATOM     23  C   UNL     1      -4.748   1.041   2.001  0.00  0.00    +0.006 A 
ATOM     24  C   UNL     1      -5.426   2.216   2.320  0.00  0.00    +0.001 A 
ATOM     25  C   UNL     1      -5.900   2.432   3.577  0.00  0.00    +0.008 A 
ATOM     26  C   UNL     1      -5.706   1.458   4.571  0.00  0.00    -0.018 A 
ATOM     27  C   UNL     1      -5.022   0.260   4.245  0.00  0.00    -0.013 A 
ATOM     28  C   UNL     1      -4.834  -0.717   5.238  0.00  0.00    +0.009 A 
ATOM     29  C   UNL     1      -5.313  -0.503   6.493  0.00  0.00    +0.001 A 
ATOM     30  C   UNL     1      -5.991   0.673   6.812  0.00  0.00    +0.001 A 
ATOM     31  C   UNL     1      -6.181   1.647   5.880  0.00  0.00    +0.008 A 
ENDBRANCH  21  22
ENDBRANCH   4  21
TORSDOF 6
