REMARK  Name = ZINC66597745
REMARK  7 active torsions:
REMARK  status: ('A' for Active; 'I' for Inactive)
REMARK    1  A    between atoms: C_1  and  C_2
REMARK    2  A    between atoms: C_2  and  C_4
REMARK    3  A    between atoms: C_2  and  N_13
REMARK    4  A    between atoms: C_8  and  N_10
REMARK    5  A    between atoms: N_16  and  C_17
REMARK    6  A    between atoms: C_17  and  C_18
REMARK    7  A    between atoms: C_18  and  C_23
REMARK                            x       y       z     vdW  Elec       q    Type
REMARK                         _______ _______ _______ _____ _____    ______ ____
ROOT
ATOM      1  N   UNL     1       0.688  -0.476  -1.203  0.00  0.00    -0.293 N 
ATOM      2  C   UNL     1       0.006  -0.608  -2.358  0.00  0.00    +0.300 C 
ATOM      3  O   UNL     1      -1.178  -0.335  -2.400  0.00  0.00    -0.253 OA
ATOM      4  N   UNL     1       0.637  -1.043  -3.467  0.00  0.00    -0.299 N 
ATOM      5  H   UNL     1       1.632  -0.695  -1.170  0.00  0.00    +0.151 HD
ATOM      6  H   UNL     1       1.582  -1.261  -3.434  0.00  0.00    +0.150 HD
ENDROOT
BRANCH   1   8
ATOM      7  C   UNL     1      -0.019   1.526   0.010  0.00  0.00    +0.033 C 
ATOM      8  C   UNL     1       0.002  -0.004   0.002  0.00  0.00    +0.102 C 
BRANCH   8   9
ATOM      9  C   UNL     1       0.731  -0.503   1.223  0.00  0.00    -0.025 A 
ATOM     10  C   UNL     1       2.113  -0.514   1.247  0.00  0.00    +0.005 A 
ATOM     11  C   UNL     1       2.782  -0.972   2.366  0.00  0.00    +0.003 A 
ATOM     12  C   UNL     1       2.068  -1.419   3.463  0.00  0.00    +0.033 A 
ATOM     13  C   UNL     1       0.686  -1.407   3.439  0.00  0.00    +0.127 A 
ATOM     14  C   UNL     1       0.018  -0.945   2.321  0.00  0.00    +0.038 A 
BRANCH  13  15
ATOM     15  N   UNL     1      -0.078  -1.887   4.613  0.00  0.00    +0.056 N 
ATOM     16  O   UNL     1       0.507  -2.288   5.592  0.00  0.00    -0.126 OA
ATOM     17  O   UNL     1      -1.287  -1.877   4.593  0.00  0.00    -0.126 OA
ENDBRANCH  13  15
ENDBRANCH   8   9
ENDBRANCH   1   8
BRANCH   4  18
ATOM     18  C   UNL     1      -0.104  -1.186  -4.723  0.00  0.00    +0.112 C 
BRANCH  18  19
ATOM     19  C   UNL     1       0.839  -1.692  -5.817  0.00  0.00    -0.016 C 
ATOM     20  C   UNL     1       1.956  -0.658  -6.071  0.00  0.00    +0.008 C 
ATOM     21  C   UNL     1       2.186  -0.716  -7.602  0.00  0.00    +0.001 C 
ATOM     22  C   UNL     1       0.752  -0.902  -8.156  0.00  0.00    +0.001 C 
ATOM     23  C   UNL     1       0.073  -1.847  -7.143  0.00  0.00    +0.008 C 
ATOM     24  C   UNL     1       1.449  -3.033  -5.404  0.00  0.00    +0.013 C 
ENDBRANCH  18  19
ENDBRANCH   4  18
TORSDOF 5
