REMARK  Name = ZINC08685155
REMARK  8 active torsions:
REMARK  status: ('A' for Active; 'I' for Inactive)
REMARK    1  A    between atoms: C_4  and  N_7
REMARK    2  A    between atoms: C_8  and  C_10
REMARK    3  A    between atoms: C_10  and  S_11
REMARK    4  A    between atoms: S_11  and  C_12
REMARK    5  A    between atoms: C_15  and  C_24
REMARK    6  A    between atoms: N_16  and  C_17
REMARK    7  A    between atoms: C_24  and  N_25
REMARK    8  A    between atoms: C_26  and  C_28
REMARK                            x       y       z     vdW  Elec       q    Type
REMARK                         _______ _______ _______ _____ _____    ______ ____
ROOT
ATOM      1  C   UNL     1       6.276  -5.205   0.371  0.00  0.00    +0.197 A 
ATOM      2  N   UNL     1       7.412  -4.547   0.370  0.00  0.00    -0.122 NA
ATOM      3  N   UNL     1       8.394  -5.371   0.460  0.00  0.00    -0.132 NA
ATOM      4  C   UNL     1       7.949  -6.595   0.523  0.00  0.00    +0.156 A 
ATOM      5  N   UNL     1       6.582  -6.534   0.474  0.00  0.00    -0.273 N 
ENDROOT
BRANCH   5   6
ATOM      6  C   UNL     1       5.683  -7.610   0.517  0.00  0.00    +0.050 A 
ATOM      7  C   UNL     1       5.585  -8.388   1.663  0.00  0.00    +0.029 A 
ATOM      8  C   UNL     1       4.699  -9.447   1.703  0.00  0.00    +0.040 A 
ATOM      9  C   UNL     1       3.909  -9.733   0.602  0.00  0.00    +0.124 A 
ATOM     10  C   UNL     1       4.006  -8.958  -0.541  0.00  0.00    +0.040 A 
ATOM     11  C   UNL     1       4.887  -7.895  -0.584  0.00  0.00    +0.029 A 
ATOM     12  F   UNL     1       3.044 -10.770   0.644  0.00  0.00    -0.205 F 
ENDBRANCH   5   6
BRANCH   1  13
ATOM     13  S   UNL     1       4.661  -4.506   0.267  0.00  0.00    -0.076 S 
BRANCH  13  14
ATOM     14  C   UNL     1       4.962  -2.721   0.153  0.00  0.00    +0.173 C 
BRANCH  14  16
ATOM     15  N   UNL     1       3.622  -0.651  -0.037  0.00  0.00    -0.285 N 
ATOM     16  C   UNL     1       3.645  -1.995   0.057  0.00  0.00    +0.227 C 
ATOM     17  O   UNL     1       2.606  -2.620   0.064  0.00  0.00    -0.275 OA
ATOM     18  H   UNL     1       4.452  -0.156  -0.121  0.00  0.00    +0.155 HD
BRANCH  15  22
ATOM     19  C   UNL     1      -0.015   1.381   0.029  0.00  0.00    +0.000 A 
ATOM     20  C   UNL     1       0.140   0.218   0.763  0.00  0.00    +0.002 A 
ATOM     21  C   UNL     1       1.344  -0.457   0.743  0.00  0.00    +0.023 A 
ATOM     22  C   UNL     1       2.400   0.031  -0.015  0.00  0.00    +0.033 A 
ATOM     23  C   UNL     1       2.241   1.198  -0.751  0.00  0.00    +0.023 A 
ATOM     24  C   UNL     1       1.034   1.870  -0.727  0.00  0.00    +0.002 A 
ENDBRANCH  15  22
ENDBRANCH  14  16
ENDBRANCH  13  14
ENDBRANCH   1  13
BRANCH   4  25
ATOM     25  C   UNL     1       8.784  -7.844   0.636  0.00  0.00    +0.181 C 
BRANCH  25  26
ATOM     26  N   UNL     1       9.003  -8.160   2.050  0.00  0.00    -0.308 N 
ATOM     27  C   UNL     1       9.728  -9.242   2.394  0.00  0.00    +0.220 C 
ATOM     28  O   UNL     1      10.199  -9.956   1.533  0.00  0.00    -0.275 OA
ATOM     29  H   UNL     1       8.627  -7.589   2.738  0.00  0.00    +0.149 HD
BRANCH  27  30
ATOM     30  C   UNL     1       9.953  -9.567   3.848  0.00  0.00    +0.048 C 
ATOM     31  C   UNL     1      10.683  -8.404   4.523  0.00  0.00    +0.019 C 
ATOM     32  C   UNL     1      10.912  -8.734   6.000  0.00  0.00    -0.009 C 
ATOM     33  C   UNL     1      11.759 -10.002   6.114  0.00  0.00    +0.007 C 
ATOM     34  C   UNL     1      11.030 -11.165   5.438  0.00  0.00    -0.009 C 
ATOM     35  C   UNL     1      10.801 -10.836   3.962  0.00  0.00    +0.019 C 
ATOM     36  C   UNL     1       9.681 -11.390   6.126  0.00  0.00    +0.007 C 
ATOM     37  C   UNL     1       8.834 -10.121   6.012  0.00  0.00    -0.009 C 
ATOM     38  C   UNL     1       9.563  -8.958   6.687  0.00  0.00    +0.007 C 
ATOM     39  C   UNL     1       8.605  -9.791   4.535  0.00  0.00    +0.019 C 
ENDBRANCH  27  30
ENDBRANCH  25  26
ENDBRANCH   4  25
TORSDOF 8
