REMARK  Name = ZINC15477096
REMARK  9 active torsions:
REMARK  status: ('A' for Active; 'I' for Inactive)
REMARK    1  A    between atoms: C_3  and  C_6
REMARK    2  A    between atoms: C_6  and  C_8
REMARK    3  A    between atoms: C_6  and  N_55
REMARK    4  A    between atoms: C_8  and  N_9
REMARK    5  A    between atoms: C_10  and  C_12
REMARK    6  A    between atoms: C_12  and  C_13
REMARK    7  A    between atoms: C_13  and  N_14
REMARK    8  A    between atoms: N_14  and  S_15
REMARK    9  A    between atoms: S_15  and  C_18
REMARK                            x       y       z     vdW  Elec       q    Type
REMARK                         _______ _______ _______ _____ _____    ______ ____
ROOT
ATOM      1  N   UNL     1      -0.026   0.711   0.305  0.00  0.00    -0.316 N 
ATOM      2  C   UNL     1       1.157   1.265   0.633  0.00  0.00    +0.214 C 
ATOM      3  O   UNL     1       1.242   2.464   0.793  0.00  0.00    -0.276 OA
ATOM      4  H   UNL     1      -0.094  -0.248   0.177  0.00  0.00    +0.149 HD
ENDROOT
BRANCH   1   5
ATOM      5  C   UNL     1      -1.210   1.558   0.134  0.00  0.00    +0.096 C 
BRANCH   5   6
ATOM      6  C   UNL     1      -2.437   0.676  -0.108  0.00  0.00    +0.016 C 
BRANCH   6  12
ATOM      7  C   UNL     1      -1.850   0.532  -2.453  0.00  0.00    -0.078 C 
ATOM      8  C   UNL     1      -1.444  -0.437  -3.566  0.00  0.00    -0.019 C 
ATOM      9  C   UNL     1      -2.597  -1.405  -3.840  0.00  0.00    -0.004 C 
ATOM     10  C   UNL     1      -2.949  -2.147  -2.547  0.00  0.00    -0.019 C 
ATOM     11  C   UNL     1      -3.312  -1.129  -1.463  0.00  0.00    -0.078 C 
ATOM     12  N   UNL     1      -2.152  -0.242  -1.230  0.00  0.00    +0.387 N 
ATOM     13  H   UNL     1      -1.336  -0.818  -0.990  0.00  0.00    -0.081 HD
ENDBRANCH   6  12
BRANCH   6  16
ATOM     14  C   UNL     1      -3.584  -0.872   3.033  0.00  0.00    +0.041 A 
ATOM     15  C   UNL     1      -3.659   0.145   2.054  0.00  0.00    +0.043 A 
ATOM     16  C   UNL     1      -2.725  -0.136   1.128  0.00  0.00    +0.093 A 
ATOM     17  O   UNL     1      -2.095  -1.266   1.489  0.00  0.00    -0.469 OA
ATOM     18  C   UNL     1      -2.609  -1.714   2.647  0.00  0.00    +0.195 A 
ENDBRANCH   6  16
ENDBRANCH   5   6
ENDBRANCH   1   5
BRANCH   2  19
ATOM     19  C   UNL     1       2.376   0.395   0.802  0.00  0.00    +0.112 C 
BRANCH  19  20
ATOM     20  C   UNL     1       3.578   1.266   1.172  0.00  0.00    +0.115 C 
BRANCH  20  21
ATOM     21  N   UNL     1       4.762   0.420   1.337  0.00  0.00    -0.189 NA
ATOM     22  H   UNL     1       4.663  -0.541   1.426  0.00  0.00    +0.148 HD
BRANCH  21  23
ATOM     23  S   UNL     1       6.270   1.104   1.370  0.00  0.00    +0.058 S 
ATOM     24  O   UNL     1       7.194   0.042   1.566  0.00  0.00    -0.153 OA
ATOM     25  O   UNL     1       6.343   1.981   0.254  0.00  0.00    -0.153 OA
BRANCH  23  26
ATOM     26  C   UNL     1       6.352   2.114   2.811  0.00  0.00    +0.105 A 
ATOM     27  C   UNL     1       5.981   3.444   2.744  0.00  0.00    +0.029 A 
ATOM     28  C   UNL     1       6.041   4.236   3.876  0.00  0.00    +0.017 A 
ATOM     29  C   UNL     1       6.482   3.700   5.072  0.00  0.00    +0.018 A 
ATOM     30  C   UNL     1       6.858   2.371   5.137  0.00  0.00    +0.017 A 
ATOM     31  C   UNL     1       6.793   1.579   4.006  0.00  0.00    +0.029 A 
ATOM     32 BR   UNL     1       6.570   4.785   6.619  0.00  0.00    -0.050 Br
ENDBRANCH  23  26
ENDBRANCH  21  23
ENDBRANCH  20  21
ENDBRANCH  19  20
ENDBRANCH   2  19
TORSDOF 9
