REMARK  Name = ZINC35337536
REMARK  16 active torsions:
REMARK  status: ('A' for Active; 'I' for Inactive)
REMARK    1  A    between atoms: C_1  and  N_2
REMARK    2  A    between atoms: C_6  and  C_7
REMARK    3  A    between atoms: C_7  and  N_8
REMARK    4  A    between atoms: N_8  and  C_9
REMARK    5  A    between atoms: C_9  and  C_10
REMARK    6  A    between atoms: C_15  and  C_17
REMARK    7  A    between atoms: C_17  and  N_18
REMARK    8  A    between atoms: N_18  and  C_19
REMARK    9  A    between atoms: N_18  and  S_24
REMARK   10  A    between atoms: C_19  and  C_20
REMARK   11  A    between atoms: C_20  and  C_21
REMARK   12  A    between atoms: C_21  and  O_22
REMARK   13  A    between atoms: O_22  and  C_23
REMARK   14  A    between atoms: S_24  and  C_27
REMARK   15  A    between atoms: C_30  and  O_33
REMARK   16  A    between atoms: O_33  and  C_34
REMARK                            x       y       z     vdW  Elec       q    Type
REMARK                         _______ _______ _______ _____ _____    ______ ____
ROOT
ATOM      1  C   UNL     1       1.587  -2.402   3.694  0.00  0.00    +0.205 C 
ENDROOT
BRANCH   1   3
ATOM      2  N   UNL     1       1.407  -0.049   2.951  0.00  0.00    -0.287 N 
ATOM      3  C   UNL     1       2.160  -1.021   3.503  0.00  0.00    +0.232 C 
ATOM      4  O   UNL     1       3.299  -0.785   3.845  0.00  0.00    -0.274 OA
BRANCH   2   5
ATOM      5  C   UNL     1       0.031  -0.335   2.538  0.00  0.00    +0.161 C 
BRANCH   5  11
ATOM      6  C   UNL     1      -0.018   1.461   0.010  0.00  0.00    +0.148 C 
ATOM      7  N   UNL     1       0.002  -0.004   0.002  0.00  0.00    -0.352 N 
ATOM      8  C   UNL     1       0.008  -0.792  -1.110  0.00  0.00    +0.085 A 
ATOM      9  C   UNL     1       0.027  -2.081  -0.714  0.00  0.00    +0.019 A 
ATOM     10  C   UNL     1       0.033  -2.089   0.695  0.00  0.00    +0.024 A 
ATOM     11  C   UNL     1       0.023  -0.804   1.106  0.00  0.00    +0.036 A 
ENDBRANCH   5  11
ENDBRANCH   2   5
BRANCH   2  12
ATOM     12  C   UNL     1       1.964   1.293   2.765  0.00  0.00    +0.182 C 
BRANCH  12  13
ATOM     13  C   UNL     1       1.690   2.125   3.991  0.00  0.00    +0.122 A 
ATOM     14  C   UNL     1       2.494   2.232   5.065  0.00  0.00    +0.046 A 
ATOM     15  C   UNL     1       1.853   3.108   5.971  0.00  0.00    +0.041 A 
ATOM     16  C   UNL     1       0.696   3.484   5.396  0.00  0.00    +0.195 A 
ATOM     17  O   UNL     1       0.606   2.890   4.195  0.00  0.00    -0.466 OA
ENDBRANCH  12  13
ENDBRANCH   2  12
ENDBRANCH   1   3
BRANCH   1  18
ATOM     18  N   UNL     1       2.595  -3.269   4.308  0.00  0.00    -0.168 NA
BRANCH  18  19
ATOM     19  S   UNL     1       3.552  -4.228   3.355  0.00  0.00    +0.061 S 
ATOM     20  O   UNL     1       3.991  -5.304   4.174  0.00  0.00    -0.153 OA
ATOM     21  O   UNL     1       2.841  -4.435   2.143  0.00  0.00    -0.153 OA
BRANCH  19  22
ATOM     22  C   UNL     1       4.986  -3.290   2.945  0.00  0.00    +0.106 A 
ATOM     23  C   UNL     1       4.993  -2.500   1.810  0.00  0.00    +0.032 A 
ATOM     24  C   UNL     1       6.116  -1.764   1.486  0.00  0.00    +0.047 A 
ATOM     25  C   UNL     1       7.238  -1.818   2.300  0.00  0.00    +0.120 A 
ATOM     26  C   UNL     1       7.229  -2.611   3.438  0.00  0.00    +0.047 A 
ATOM     27  C   UNL     1       6.101  -3.341   3.761  0.00  0.00    +0.032 A 
BRANCH  25  28
ATOM     28  O   UNL     1       8.344  -1.095   1.983  0.00  0.00    -0.495 OA
ATOM     29  C   UNL     1       9.462  -1.198   2.867  0.00  0.00    +0.277 C 
ENDBRANCH  25  28
ENDBRANCH  19  22
ENDBRANCH  18  19
BRANCH  18  30
ATOM     30  C   UNL     1       2.758  -3.287   5.763  0.00  0.00    +0.112 C 
BRANCH  30  31
ATOM     31  C   UNL     1       1.756  -4.267   6.376  0.00  0.00    +0.045 C 
BRANCH  31  32
ATOM     32  C   UNL     1       1.925  -4.286   7.896  0.00  0.00    +0.161 C 
BRANCH  32  33
ATOM     33  O   UNL     1       0.989  -5.202   8.469  0.00  0.00    -0.383 OA
ATOM     34  C   UNL     1       1.064  -5.296   9.893  0.00  0.00    +0.193 C 
ENDBRANCH  32  33
ENDBRANCH  31  32
ENDBRANCH  30  31
ENDBRANCH  18  30
ENDBRANCH   1  18
TORSDOF 13
