REMARK  Name = ZINC67348388
REMARK  9 active torsions:
REMARK  status: ('A' for Active; 'I' for Inactive)
REMARK    1  A    between atoms: C_1  and  C_2
REMARK    2  A    between atoms: C_2  and  C_3
REMARK    3  A    between atoms: C_2  and  N_4
REMARK    4  A    between atoms: N_4  and  S_5
REMARK    5  A    between atoms: S_5  and  C_8
REMARK    6  A    between atoms: C_8  and  C_9
REMARK    7  A    between atoms: C_14  and  C_15
REMARK    8  A    between atoms: C_15  and  N_16
REMARK    9  A    between atoms: C_21  and  C_23
REMARK                            x       y       z     vdW  Elec       q    Type
REMARK                         _______ _______ _______ _____ _____    ______ ____
ROOT
ATOM      1  C   UNL     1      -1.096  -4.528  -0.648  0.00  0.00    -0.020 A 
ATOM      2  C   UNL     1      -2.152  -5.315  -0.229  0.00  0.00    +0.005 A 
ATOM      3  C   UNL     1      -2.402  -6.524  -0.849  0.00  0.00    +0.000 A 
ATOM      4  C   UNL     1      -1.596  -6.947  -1.889  0.00  0.00    +0.000 A 
ATOM      5  C   UNL     1      -0.540  -6.160  -2.309  0.00  0.00    +0.005 A 
ATOM      6  C   UNL     1      -0.293  -4.948  -1.692  0.00  0.00    -0.026 A 
ENDROOT
BRANCH   1   7
ATOM      7  C   UNL     1      -0.824  -3.209   0.028  0.00  0.00    +0.220 C 
BRANCH   7   8
ATOM      8  S   UNL     1      -1.750  -1.895  -0.814  0.00  0.00    +0.034 S 
ATOM      9  O   UNL     1      -3.145  -2.071  -0.608  0.00  0.00    -0.158 OA
ATOM     10  O   UNL     1      -1.231  -1.691  -2.121  0.00  0.00    -0.158 OA
BRANCH   8  11
ATOM     11  N   UNL     1      -1.372  -0.511   0.012  0.00  0.00    -0.192 NA
ATOM     12  H   UNL     1      -2.061  -0.036   0.503  0.00  0.00    +0.148 HD
BRANCH  11  14
ATOM     13  C   UNL     1      -0.019   1.526   0.010  0.00  0.00    +0.025 C 
ATOM     14  C   UNL     1       0.002  -0.004   0.002  0.00  0.00    +0.070 C 
ATOM     15  C   UNL     1       0.742  -0.511   1.242  0.00  0.00    +0.025 C 
ENDBRANCH  11  14
ENDBRANCH   8  11
ENDBRANCH   7   8
ENDBRANCH   1   7
BRANCH   6  16
ATOM     16  C   UNL     1       0.855  -4.088  -2.154  0.00  0.00    +0.138 C 
BRANCH  16  17
ATOM     17  N   UNL     1       1.994  -4.269  -1.251  0.00  0.00    -0.325 N 
ATOM     18  C   UNL     1       3.177  -3.572  -1.477  0.00  0.00    +0.121 A 
ATOM     19  C   UNL     1       3.267  -2.700  -2.561  0.00  0.00    +0.045 A 
ATOM     20  C   UNL     1       4.445  -2.010  -2.779  0.00  0.00    +0.026 A 
ATOM     21  C   UNL     1       5.505  -2.213  -1.906  0.00  0.00    +0.077 A 
ATOM     22  C   UNL     1       5.350  -3.099  -0.842  0.00  0.00    +0.160 A 
ATOM     23  N   UNL     1       4.200  -3.741  -0.659  0.00  0.00    -0.220 NA
ATOM     24 CL   UNL     1       7.007  -1.372  -2.136  0.00  0.00    -0.081 Cl
ATOM     25  H   UNL     1       1.925  -4.874  -0.497  0.00  0.00    +0.148 HD
BRANCH  22  26
ATOM     26  C   UNL     1       6.436  -3.317   0.066  0.00  0.00    +0.121 C 
ATOM     27  N   UNL     1       7.298  -3.489   0.786  0.00  0.00    -0.189 NA
ENDBRANCH  22  26
ENDBRANCH  16  17
ENDBRANCH   6  16
TORSDOF 7
