REMARK  Name = ZINC17111665
REMARK  5 active torsions:
REMARK  status: ('A' for Active; 'I' for Inactive)
REMARK    1  A    between atoms: N_13  and  C_14
REMARK    2  A    between atoms: C_14  and  C_15
REMARK    3  A    between atoms: C_15  and  C_16
REMARK    4  A    between atoms: C_19  and  S_22
REMARK    5  A    between atoms: S_22  and  N_25
REMARK                            x       y       z     vdW  Elec       q    Type
REMARK                         _______ _______ _______ _____ _____    ______ ____
ROOT
ATOM      1  C   UNL     1      -0.025   1.367   0.014  0.00  0.00    +0.000 A 
ATOM      2  C   UNL     1       1.163   2.074   0.010  0.00  0.00    +0.000 A 
ATOM      3  C   UNL     1       2.363   1.394  -0.011  0.00  0.00    +0.005 A 
ATOM      4  C   UNL     1       2.387   0.005  -0.024  0.00  0.00    -0.027 A 
ATOM      5  C   UNL     1       1.204  -0.700  -0.011  0.00  0.00    -0.041 A 
ATOM      6  C   UNL     1      -0.003  -0.012   0.003  0.00  0.00    +0.004 A 
ATOM      7  C   UNL     1       1.151  -2.205   0.007  0.00  0.00    +0.054 C 
ATOM      8  C   UNL     1       2.468  -2.802  -0.488  0.00  0.00    +0.114 C 
ATOM      9  N   UNL     1       3.568  -2.108   0.203  0.00  0.00    -0.281 N 
ATOM     10  C   UNL     1       3.732  -0.675  -0.061  0.00  0.00    +0.144 C 
ATOM     11  C   UNL     1       4.391  -2.765   1.044  0.00  0.00    +0.303 C 
ATOM     12  O   UNL     1       4.176  -3.930   1.319  0.00  0.00    -0.253 OA
ATOM     13  N   UNL     1       5.452  -2.130   1.581  0.00  0.00    -0.299 N 
ATOM     14  H   UNL     1       5.582  -1.183   1.419  0.00  0.00    +0.150 HD
ENDROOT
BRANCH  13  15
ATOM     15  C   UNL     1       6.407  -2.871   2.408  0.00  0.00    +0.110 C 
BRANCH  15  16
ATOM     16  C   UNL     1       7.508  -1.923   2.889  0.00  0.00    +0.054 C 
BRANCH  16  17
ATOM     17  C   UNL     1       8.490  -2.685   3.740  0.00  0.00    -0.046 A 
ATOM     18  C   UNL     1       8.292  -2.784   5.105  0.00  0.00    +0.005 A 
ATOM     19  C   UNL     1       9.194  -3.483   5.885  0.00  0.00    +0.029 A 
ATOM     20  C   UNL     1      10.293  -4.084   5.301  0.00  0.00    +0.105 A 
ATOM     21  C   UNL     1      10.491  -3.986   3.937  0.00  0.00    +0.029 A 
ATOM     22  C   UNL     1       9.587  -3.290   3.156  0.00  0.00    +0.005 A 
BRANCH  20  23
ATOM     23  S   UNL     1      11.443  -4.974   6.296  0.00  0.00    +0.056 S 
ATOM     24  O   UNL     1      12.675  -4.980   5.588  0.00  0.00    -0.153 OA
ATOM     25  O   UNL     1      11.325  -4.457   7.615  0.00  0.00    -0.153 OA
BRANCH  23  26
ATOM     26  N   UNL     1      10.924  -6.546   6.357  0.00  0.00    -0.204 NA
ATOM     27  H   UNL     1      10.117  -6.809   5.887  0.00  0.00    +0.144 HD
ATOM     28  H   UNL     1      11.428  -7.204   6.862  0.00  0.00    +0.144 HD
ENDBRANCH  23  26
ENDBRANCH  20  23
ENDBRANCH  16  17
ENDBRANCH  15  16
ENDBRANCH  13  15
TORSDOF 5
