REMARK  Name = ZINC09349397
REMARK  10 active torsions:
REMARK  status: ('A' for Active; 'I' for Inactive)
REMARK    1  A    between atoms: C_1  and  C_2
REMARK    2  A    between atoms: C_2  and  C_4
REMARK    3  A    between atoms: C_2  and  N_9
REMARK    4  A    between atoms: C_10  and  C_12
REMARK    5  A    between atoms: C_12  and  S_13
REMARK    6  A    between atoms: S_13  and  C_14
REMARK    7  A    between atoms: C_17  and  C_26
REMARK    8  A    between atoms: N_18  and  C_19
REMARK    9  A    between atoms: C_26  and  C_28
REMARK   10  A    between atoms: C_26  and  N_60
REMARK                            x       y       z     vdW  Elec       q    Type
REMARK                         _______ _______ _______ _____ _____    ______ ____
ROOT
ATOM      1  C   UNL     1       0.145   1.569   2.947  0.00  0.00    +0.197 A 
ATOM      2  N   UNL     1       1.149   0.801   2.590  0.00  0.00    -0.122 NA
ATOM      3  N   UNL     1       1.662   0.241   3.627  0.00  0.00    -0.135 NA
ATOM      4  C   UNL     1       1.024   0.614   4.700  0.00  0.00    +0.125 A 
ATOM      5  N   UNL     1       0.037   1.478   4.308  0.00  0.00    -0.275 N 
ENDROOT
BRANCH   5   6
ATOM      6  C   UNL     1      -0.894   2.132   5.129  0.00  0.00    +0.050 A 
ATOM      7  C   UNL     1      -0.464   3.068   6.059  0.00  0.00    +0.029 A 
ATOM      8  C   UNL     1      -1.382   3.716   6.863  0.00  0.00    +0.040 A 
ATOM      9  C   UNL     1      -2.730   3.422   6.750  0.00  0.00    +0.124 A 
ATOM     10  C   UNL     1      -3.161   2.484   5.827  0.00  0.00    +0.040 A 
ATOM     11  C   UNL     1      -2.246   1.839   5.017  0.00  0.00    +0.029 A 
ATOM     12  F   UNL     1      -3.627   4.051   7.541  0.00  0.00    -0.205 F 
ENDBRANCH   5   6
BRANCH   4  13
ATOM     13  C   UNL     1       1.321   0.179   6.113  0.00  0.00    -0.002 C 
ATOM     14  C   UNL     1       0.857  -1.266   6.309  0.00  0.00    -0.005 C 
BRANCH  13  20
ATOM     15  C   UNL     1       3.090  -0.121   7.737  0.00  0.00    -0.078 C 
ATOM     16  C   UNL     1       4.610  -0.157   7.915  0.00  0.00    -0.019 C 
ATOM     17  C   UNL     1       5.188   1.226   7.606  0.00  0.00    -0.004 C 
ATOM     18  C   UNL     1       4.795   1.628   6.181  0.00  0.00    -0.019 C 
ATOM     19  C   UNL     1       3.270   1.613   6.054  0.00  0.00    -0.078 C 
ATOM     20  N   UNL     1       2.779   0.248   6.340  0.00  0.00    +0.386 N 
ATOM     21  H   UNL     1       3.246  -0.413   5.709  0.00  0.00    -0.081 HD
ENDBRANCH  13  20
ENDBRANCH   4  13
BRANCH   1  22
ATOM     22  S   UNL     1      -0.864   2.539   1.877  0.00  0.00    -0.076 S 
BRANCH  22  23
ATOM     23  C   UNL     1      -0.106   2.140   0.283  0.00  0.00    +0.173 C 
BRANCH  23  25
ATOM     24  N   UNL     1      -0.434   2.734  -2.096  0.00  0.00    -0.308 N 
ATOM     25  C   UNL     1      -0.828   2.878  -0.815  0.00  0.00    +0.224 C 
ATOM     26  O   UNL     1      -1.762   3.603  -0.546  0.00  0.00    -0.275 OA
ATOM     27  H   UNL     1       0.313   2.154  -2.311  0.00  0.00    +0.149 HD
BRANCH  24  29
ATOM     28  C   UNL     1      -2.360   2.645  -3.602  0.00  0.00    +0.033 C 
ATOM     29  C   UNL     1      -1.135   3.452  -3.163  0.00  0.00    +0.107 C 
BRANCH  29  30
ATOM     30  C   UNL     1      -0.209   3.636  -4.337  0.00  0.00    +0.010 A 
ATOM     31  C   UNL     1      -0.063   4.713  -5.148  0.00  0.00    +0.013 A 
ATOM     32  C   UNL     1       0.863   4.659  -6.173  0.00  0.00    +0.008 A 
ATOM     33  C   UNL     1       1.591   3.528  -6.343  0.00  0.00    +0.045 A 
ATOM     34  S   UNL     1       0.976   2.492  -5.026  0.00  0.00    -0.100 S 
ENDBRANCH  29  30
ENDBRANCH  24  29
ENDBRANCH  23  25
ENDBRANCH  22  23
ENDBRANCH   1  22
TORSDOF 8
