REMARK  Name = ZINC66904930
REMARK  7 active torsions:
REMARK  status: ('A' for Active; 'I' for Inactive)
REMARK    1  A    between atoms: C_1  and  N_2
REMARK    2  A    between atoms: C_4  and  C_14
REMARK    3  A    between atoms: C_5  and  C_7
REMARK    4  A    between atoms: C_14  and  N_15
REMARK    5  A    between atoms: N_15  and  C_16
REMARK    6  A    between atoms: C_16  and  C_17
REMARK    7  A    between atoms: C_17  and  C_18
REMARK                            x       y       z     vdW  Elec       q    Type
REMARK                         _______ _______ _______ _____ _____    ______ ____
ROOT
ATOM      1  C   UNL     1       0.114  -3.275  -1.599  0.00  0.00    +0.120 C 
ENDROOT
BRANCH   1   5
ATOM      2  C   UNL     1      -0.086   1.459   0.035  0.00  0.00    +0.172 C 
ATOM      3  N   UNL     1      -0.027  -0.005   0.013  0.00  0.00    -0.274 N 
ATOM      4  C   UNL     1       0.011  -0.780  -1.093  0.00  0.00    +0.113 A 
ATOM      5  C   UNL     1       0.060  -2.070  -0.696  0.00  0.00    +0.012 A 
ATOM      6  C   UNL     1       0.052  -2.089   0.713  0.00  0.00    +0.098 A 
ATOM      7  N   UNL     1       0.005  -0.843   1.134  0.00  0.00    -0.171 NA
BRANCH   6   8
ATOM      8  C   UNL     1       0.094  -3.300   1.570  0.00  0.00    +0.021 A 
ATOM      9  C   UNL     1       1.040  -4.294   1.329  0.00  0.00    +0.011 A 
ATOM     10  C   UNL     1       1.075  -5.418   2.129  0.00  0.00    +0.001 A 
ATOM     11  C   UNL     1       0.173  -5.559   3.169  0.00  0.00    +0.001 A 
ATOM     12  C   UNL     1      -0.768  -4.576   3.413  0.00  0.00    +0.020 A 
ATOM     13  C   UNL     1      -0.808  -3.444   2.623  0.00  0.00    +0.050 A 
ATOM     14 CL   UNL     1      -1.986  -2.207   2.934  0.00  0.00    -0.083 Cl
ENDBRANCH   6   8
ENDBRANCH   1   5
BRANCH   1  15
ATOM     15  N   UNL     1      -1.205  -3.921  -1.632  0.00  0.00    -0.311 NA
ATOM     16  H   UNL     1      -1.512  -4.163  -0.702  0.00  0.00    +0.122 HD
BRANCH  15  17
ATOM     17  C   UNL     1      -1.190  -5.103  -2.505  0.00  0.00    +0.089 C 
BRANCH  17  18
ATOM     18  C   UNL     1      -2.578  -5.748  -2.513  0.00  0.00    +0.092 C 
BRANCH  18  19
ATOM     19  C   UNL     1      -2.563  -6.960  -3.409  0.00  0.00    +0.139 A 
ATOM     20  N   UNL     1      -2.825  -6.978  -4.690  0.00  0.00    -0.134 NA
ATOM     21  N   UNL     1      -2.722  -8.175  -5.150  0.00  0.00    -0.129 NA
ATOM     22  C   UNL     1      -2.383  -8.997  -4.170  0.00  0.00    +0.161 A 
ATOM     23  N   UNL     1      -2.269  -8.234  -3.033  0.00  0.00    -0.286 N 
ATOM     24  C   UNL     1      -1.921  -8.809  -1.846  0.00  0.00    +0.094 A 
ATOM     25  C   UNL     1      -1.682 -10.136  -1.772  0.00  0.00    +0.018 A 
ATOM     26  C   UNL     1      -1.788 -10.942  -2.918  0.00  0.00    +0.005 A 
ATOM     27  C   UNL     1      -2.142 -10.383  -4.107  0.00  0.00    +0.048 A 
ENDBRANCH  18  19
ENDBRANCH  17  18
ENDBRANCH  15  17
ENDBRANCH   1  15
TORSDOF 6
