REMARK  Name = ZINC36484614
REMARK  8 active torsions:
REMARK  status: ('A' for Active; 'I' for Inactive)
REMARK    1  A    between atoms: C_3  and  N_8
REMARK    2  A    between atoms: N_8  and  C_9
REMARK    3  A    between atoms: C_9  and  C_11
REMARK    4  A    between atoms: C_9  and  C_18
REMARK    5  A    between atoms: C_14  and  O_17
REMARK    6  A    between atoms: N_20  and  C_21
REMARK    7  A    between atoms: C_27  and  C_29
REMARK    8  A    between atoms: C_32  and  O_35
REMARK                            x       y       z     vdW  Elec       q    Type
REMARK                         _______ _______ _______ _____ _____    ______ ____
ROOT
ATOM      1  C   UNL     1       4.080   1.290  -0.168  0.00  0.00    +0.197 C 
ENDROOT
BRANCH   1   2
ATOM      2  C   UNL     1       3.772   0.355   0.974  0.00  0.00    -0.018 A 
ATOM      3  C   UNL     1       2.458   0.089   1.312  0.00  0.00    +0.009 A 
ATOM      4  C   UNL     1       2.172  -0.767   2.358  0.00  0.00    +0.046 A 
ATOM      5  C   UNL     1       3.206  -1.359   3.070  0.00  0.00    +0.117 A 
ATOM      6  C   UNL     1       4.523  -1.090   2.729  0.00  0.00    +0.046 A 
ATOM      7  C   UNL     1       4.803  -0.238   1.678  0.00  0.00    +0.009 A 
BRANCH   5   8
ATOM      8  O   UNL     1       2.928  -2.201   4.100  0.00  0.00    -0.507 OA
ATOM      9  H   UNL     1       2.841  -3.128   3.838  0.00  0.00    +0.292 HD
ENDBRANCH   5   8
ENDBRANCH   1   2
BRANCH   1  10
ATOM     10  C   UNL     1       3.228   0.928  -1.357  0.00  0.00    +0.239 C 
ATOM     11  O   UNL     1       2.457   1.741  -1.820  0.00  0.00    -0.273 OA
ATOM     12  N   UNL     1       3.324  -0.299  -1.906  0.00  0.00    -0.311 N 
ATOM     13  H   UNL     1       3.941  -0.950  -1.535  0.00  0.00    +0.149 HD
BRANCH  12  14
ATOM     14  C   UNL     1       2.496  -0.651  -3.062  0.00  0.00    +0.073 C 
ATOM     15  C   UNL     1       1.126  -1.133  -2.580  0.00  0.00    +0.022 C 
ATOM     16  C   UNL     1       0.261  -1.501  -3.788  0.00  0.00    +0.002 C 
ATOM     17  C   UNL     1       0.943  -2.615  -4.583  0.00  0.00    +0.000 C 
ATOM     18  C   UNL     1       2.313  -2.133  -5.065  0.00  0.00    +0.002 C 
ATOM     19  C   UNL     1       3.178  -1.766  -3.857  0.00  0.00    +0.022 C 
ENDBRANCH  12  14
ENDBRANCH   1  10
BRANCH   1  20
ATOM     20  N   UNL     1       3.793   2.668   0.238  0.00  0.00    -0.251 N 
ATOM     21  C   UNL     1       3.835   3.661  -0.672  0.00  0.00    +0.252 C 
ATOM     22  O   UNL     1       3.742   4.819  -0.314  0.00  0.00    -0.270 OA
BRANCH  20  25
ATOM     23  C   UNL     1       1.840   3.191   3.309  0.00  0.00    +0.003 A 
ATOM     24  C   UNL     1       2.152   2.909   1.993  0.00  0.00    +0.023 A 
ATOM     25  C   UNL     1       3.474   2.953   1.569  0.00  0.00    +0.039 A 
ATOM     26  C   UNL     1       4.479   3.280   2.471  0.00  0.00    +0.043 A 
ATOM     27  C   UNL     1       4.161   3.561   3.786  0.00  0.00    +0.043 A 
ATOM     28  C   UNL     1       2.842   3.516   4.205  0.00  0.00    +0.020 A 
ATOM     29 CL   UNL     1       5.415   3.970   4.914  0.00  0.00    -0.083 Cl
ENDBRANCH  20  25
BRANCH  21  30
ATOM     30  C   UNL     1       3.995   3.343  -2.104  0.00  0.00    +0.037 A 
ATOM     31  C   UNL     1       4.590   2.139  -2.493  0.00  0.00    +0.016 A 
ATOM     32  C   UNL     1       4.737   1.846  -3.830  0.00  0.00    +0.046 A 
ATOM     33  C   UNL     1       4.296   2.745  -4.793  0.00  0.00    +0.117 A 
ATOM     34  C   UNL     1       3.704   3.944  -4.411  0.00  0.00    +0.046 A 
ATOM     35  C   UNL     1       3.547   4.242  -3.076  0.00  0.00    +0.016 A 
BRANCH  33  36
ATOM     36  O   UNL     1       4.444   2.453  -6.110  0.00  0.00    -0.507 OA
ATOM     37  H   UNL     1       3.694   1.978  -6.494  0.00  0.00    +0.292 HD
ENDBRANCH  33  36
ENDBRANCH  21  30
ENDBRANCH   1  20
TORSDOF 8
