REMARK  Name = ZINC10899274
REMARK  6 active torsions:
REMARK  status: ('A' for Active; 'I' for Inactive)
REMARK    1  A    between atoms: C_1  and  N_2
REMARK    2  A    between atoms: N_2  and  C_3
REMARK    3  A    between atoms: C_3  and  C_4
REMARK    4  A    between atoms: C_9  and  N_10
REMARK    5  A    between atoms: C_16  and  C_18
REMARK    6  A    between atoms: C_21  and  N_25
REMARK                            x       y       z     vdW  Elec       q    Type
REMARK                         _______ _______ _______ _____ _____    ______ ____
ROOT
ATOM      1  C   UNL     1      -0.734   2.376  -1.139  0.00  0.00    +0.132 C 
ATOM      2  N   UNL     1      -0.101   3.642  -0.761  0.00  0.00    -0.296 N 
ATOM      3  C   UNL     1      -0.747   4.806  -0.968  0.00  0.00    +0.248 C 
ATOM      4  O   UNL     1      -0.187   5.861  -0.739  0.00  0.00    -0.270 OA
ENDROOT
BRANCH   3   5
ATOM      5  C   UNL     1      -2.133   4.801  -1.479  0.00  0.00    +0.055 A 
ATOM      6  C   UNL     1      -2.473   4.009  -2.577  0.00  0.00    +0.017 A 
ATOM      7  C   UNL     1      -3.768   4.009  -3.049  0.00  0.00    +0.033 A 
ATOM      8  C   UNL     1      -4.732   4.792  -2.437  0.00  0.00    +0.128 A 
ATOM      9  C   UNL     1      -4.404   5.579  -1.349  0.00  0.00    +0.053 A 
ATOM     10  C   UNL     1      -3.111   5.585  -0.862  0.00  0.00    +0.055 A 
ATOM     11 CL   UNL     1      -2.702   6.568   0.509  0.00  0.00    -0.083 Cl
BRANCH   8  12
ATOM     12  N   UNL     1      -6.121   4.786  -2.950  0.00  0.00    +0.056 N 
ATOM     13  O   UNL     1      -6.413   4.093  -3.908  0.00  0.00    -0.126 OA
ATOM     14  O   UNL     1      -6.971   5.473  -2.413  0.00  0.00    -0.126 OA
ENDBRANCH   8  12
ENDBRANCH   3   5
BRANCH   2  15
ATOM     15  C   UNL     1       1.235   3.642  -0.158  0.00  0.00    +0.144 C 
BRANCH  15  16
ATOM     16  C   UNL     1       1.112   3.478   1.335  0.00  0.00    -0.009 A 
ATOM     17  C   UNL     1      -0.127   3.264   1.908  0.00  0.00    +0.007 A 
ATOM     18  C   UNL     1      -0.240   3.110   3.277  0.00  0.00    +0.000 A 
ATOM     19  C   UNL     1       0.884   3.180   4.079  0.00  0.00    +0.002 A 
ATOM     20  C   UNL     1       2.125   3.399   3.514  0.00  0.00    +0.023 A 
ATOM     21  C   UNL     1       2.243   3.549   2.138  0.00  0.00    +0.034 A 
BRANCH  21  22
ATOM     22  N   UNL     1       3.496   3.771   1.563  0.00  0.00    -0.330 N 
ATOM     23  C   UNL     1       4.354   2.587   1.698  0.00  0.00    +0.105 C 
ATOM     24  C   UNL     1       5.661   2.812   0.933  0.00  0.00    +0.019 C 
ATOM     25  C   UNL     1       6.370   4.047   1.497  0.00  0.00    +0.003 C 
ATOM     26  C   UNL     1       5.437   5.256   1.389  0.00  0.00    +0.019 C 
ATOM     27  C   UNL     1       4.137   4.960   2.140  0.00  0.00    +0.105 C 
ENDBRANCH  21  22
ENDBRANCH  15  16
ENDBRANCH   2  15
TORSDOF 5
