REMARK  Name = ZINC39710894
REMARK  13 active torsions:
REMARK  status: ('A' for Active; 'I' for Inactive)
REMARK    1  A    between atoms: C_1  and  C_2
REMARK    2  A    between atoms: C_2  and  C_3
REMARK    3  A    between atoms: C_3  and  C_4
REMARK    4  A    between atoms: C_3  and  C_5
REMARK    5  A    between atoms: C_3  and  N_6
REMARK    6  A    between atoms: C_7  and  C_12
REMARK    7  A    between atoms: C_12  and  C_14
REMARK    8  A    between atoms: C_12  and  N_27
REMARK    9  A    between atoms: C_21  and  C_26
REMARK   10  A    between atoms: N_27  and  C_28
REMARK   11  A    between atoms: N_27  and  C_35
REMARK   12  A    between atoms: C_28  and  C_29
REMARK   13  A    between atoms: C_35  and  C_36
REMARK                            x       y       z     vdW  Elec       q    Type
REMARK                         _______ _______ _______ _____ _____    ______ ____
ROOT
ATOM      1  C   UNL     1      -4.375  -0.770   1.048  0.00  0.00    -0.008 C 
ENDROOT
BRANCH   1   2
ATOM      2  C   UNL     1      -3.961  -0.890  -0.420  0.00  0.00    +0.088 C 
ATOM      3  C   UNL     1      -4.042   0.491  -1.041  0.00  0.00    -0.006 C 
ATOM      4  C   UNL     1      -4.861   0.644  -2.120  0.00  0.00    -0.007 A 
ATOM      5  C   UNL     1      -4.998   1.943  -2.780  0.00  0.00    +0.009 A 
ATOM      6  C   UNL     1      -5.825   2.049  -3.852  0.00  0.00    +0.001 A 
ATOM      7  C   UNL     1      -6.539   0.950  -4.330  0.00  0.00    +0.005 A 
ATOM      8  C   UNL     1      -6.455  -0.282  -3.762  0.00  0.00    -0.029 A 
ATOM      9  C   UNL     1      -5.626  -0.499  -2.647  0.00  0.00    +0.043 A 
ATOM     10  N   UNL     1      -5.551  -1.712  -2.099  0.00  0.00    -0.284 N 
ATOM     11  C   UNL     1      -4.795  -1.984  -1.049  0.00  0.00    +0.223 C 
ATOM     12  O   UNL     1      -4.768  -3.111  -0.593  0.00  0.00    -0.275 OA
ATOM     13  C   UNL     1      -7.257  -1.424  -4.332  0.00  0.00    +0.045 C 
ATOM     14  H   UNL     1      -6.077  -2.428  -2.487  0.00  0.00    +0.155 HD
ENDBRANCH   1   2
BRANCH   1  16
ATOM     15  N   UNL     1      -2.511  -2.226   1.761  0.00  0.00    -0.182 NA
ATOM     16  C   UNL     1      -3.978  -2.045   1.795  0.00  0.00    +0.205 C 
ATOM     17  N   UNL     1      -4.301  -1.926   3.224  0.00  0.00    -0.152 NA
ATOM     18  N   UNL     1      -3.260  -2.018   3.877  0.00  0.00    -0.070 NA
ATOM     19  N   UNL     1      -2.132  -2.200   3.078  0.00  0.00    -0.179 N 
ATOM     20  H   UNL     1      -1.223  -2.294   3.403  0.00  0.00    +0.191 HD
BRANCH  15  21
ATOM     21  C   UNL     1      -1.864  -1.146   1.006  0.00  0.00    +0.037 C 
ATOM     22  C   UNL     1      -2.725   0.117   1.083  0.00  0.00    +0.029 C 
ATOM     23  C   UNL     1      -1.708  -1.568  -0.457  0.00  0.00    +0.029 C 
BRANCH  21  25
ATOM     24  C   UNL     1       0.137   0.346   0.898  0.00  0.00    +0.006 C 
ATOM     25  C   UNL     1      -0.485  -0.860   1.604  0.00  0.00    +0.020 C 
ENDBRANCH  21  25
ENDBRANCH  15  21
ENDBRANCH   1  16
BRANCH   1  26
ATOM     26  N   UNL     1      -5.830  -0.586   1.133  0.00  0.00    +0.392 N 
ATOM     27  H   UNL     1      -6.294  -1.362   0.685  0.00  0.00    -0.080 HD
BRANCH  26  28
ATOM     28  C   UNL     1      -6.206   0.664   0.459  0.00  0.00    -0.042 C 
BRANCH  28  29
ATOM     29  C   UNL     1      -5.535   1.826   1.146  0.00  0.00    -0.064 A 
ATOM     30  C   UNL     1      -5.966   2.233   2.394  0.00  0.00    +0.002 A 
ATOM     31  C   UNL     1      -5.351   3.299   3.024  0.00  0.00    +0.000 A 
ATOM     32  C   UNL     1      -4.304   3.957   2.406  0.00  0.00    +0.000 A 
ATOM     33  C   UNL     1      -3.872   3.549   1.158  0.00  0.00    +0.000 A 
ATOM     34  C   UNL     1      -4.485   2.480   0.530  0.00  0.00    +0.002 A 
ENDBRANCH  28  29
ENDBRANCH  26  28
BRANCH  26  35
ATOM     35  C   UNL     1      -6.234  -0.522   2.544  0.00  0.00    -0.002 C 
BRANCH  35  36
ATOM     36  C   UNL     1      -7.737  -0.575   2.639  0.00  0.00    +0.089 A 
ATOM     37  C   UNL     1      -8.485  -1.692   2.660  0.00  0.00    +0.042 A 
ATOM     38  C   UNL     1      -9.834  -1.280   2.757  0.00  0.00    +0.041 A 
ATOM     39  C   UNL     1      -9.830   0.064   2.789  0.00  0.00    +0.195 A 
ATOM     40  O   UNL     1      -8.556   0.486   2.723  0.00  0.00    -0.470 OA
ENDBRANCH  35  36
ENDBRANCH  26  35
ENDBRANCH   1  26
TORSDOF 9
