REMARK  Name = ZINC34749930
REMARK  7 active torsions:
REMARK  status: ('A' for Active; 'I' for Inactive)
REMARK    1  A    between atoms: C_1  and  C_2
REMARK    2  A    between atoms: C_2  and  S_3
REMARK    3  A    between atoms: S_3  and  C_4
REMARK    4  A    between atoms: C_15  and  C_17
REMARK    5  A    between atoms: C_15  and  C_18
REMARK    6  A    between atoms: N_22  and  C_25
REMARK    7  A    between atoms: C_25  and  C_26
REMARK                            x       y       z     vdW  Elec       q    Type
REMARK                         _______ _______ _______ _____ _____    ______ ____
ROOT
ATOM      1  C   UNL     1      -1.508  -2.383  -0.007  0.00  0.00    +0.191 A 
ATOM      2  N   UNL     1      -2.587  -3.157  -0.006  0.00  0.00    -0.206 NA
ATOM      3  C   UNL     1      -2.506  -4.477  -0.004  0.00  0.00    +0.134 A 
ATOM      4  C   UNL     1      -1.224  -5.096  -0.002  0.00  0.00    +0.051 A 
ATOM      5  C   UNL     1      -0.894  -6.520   0.002  0.00  0.00    -0.020 A 
ATOM      6  C   UNL     1       0.416  -6.847   0.002  0.00  0.00    +0.021 A 
ATOM      7  S   UNL     1       1.278  -5.300  -0.003  0.00  0.00    -0.071 S 
ATOM      8  C   UNL     1      -0.125  -4.213  -0.004  0.00  0.00    +0.115 A 
ATOM      9  N   UNL     1      -0.288  -2.905  -0.011  0.00  0.00    -0.215 NA
ATOM     10  C   UNL     1       0.984  -8.233   0.008  0.00  0.00    +0.203 C 
ATOM     11  O   UNL     1      -0.079  -9.143   0.333  0.00  0.00    -0.368 OA
ATOM     12  C   UNL     1      -1.268  -8.928  -0.431  0.00  0.00    +0.068 C 
ATOM     13  C   UNL     1      -1.946  -7.626   0.004  0.00  0.00    +0.071 C 
ATOM     14  C   UNL     1      -0.907  -8.840  -1.916  0.00  0.00    +0.041 C 
ATOM     15  C   UNL     1      -2.229 -10.098  -0.214  0.00  0.00    +0.041 C 
ATOM     16  N   UNL     1      -3.654  -5.248  -0.003  0.00  0.00    -0.318 N 
ATOM     17  C   UNL     1      -4.218  -5.762   1.255  0.00  0.00    +0.088 C 
ATOM     18  C   UNL     1      -5.710  -5.413   1.297  0.00  0.00    -0.059 C 
ATOM     19  N   UNL     1      -6.365  -5.922   0.086  0.00  0.00    +0.384 N 
ATOM     20  C   UNL     1      -5.832  -5.235  -1.098  0.00  0.00    -0.059 C 
ATOM     21  C   UNL     1      -4.350  -5.571  -1.258  0.00  0.00    +0.088 C 
ATOM     22  H   UNL     1      -6.194  -6.913   0.003  0.00  0.00    -0.081 HD
ENDROOT
BRANCH   1  23
ATOM     23  S   UNL     1      -1.700  -0.632  -0.010  0.00  0.00    -0.086 S 
BRANCH  23  25
ATOM     24  C   UNL     1      -0.019   1.526  -0.022  0.00  0.00    +0.016 C 
ATOM     25  C   UNL     1       0.002  -0.004  -0.019  0.00  0.00    +0.074 C 
ENDBRANCH  23  25
ENDBRANCH   1  23
BRANCH  19  26
ATOM     26  C   UNL     1      -7.812  -5.684   0.177  0.00  0.00    -0.052 C 
BRANCH  26  27
ATOM     27  C   UNL     1      -8.500  -6.314  -1.007  0.00  0.00    -0.053 C 
ATOM     28  C   UNL     1      -9.474  -7.170  -0.819  0.00  0.00    +0.002 C 
ENDBRANCH  26  27
ENDBRANCH  19  26
TORSDOF 4
