REMARK  Name = ZINC51547178
REMARK  8 active torsions:
REMARK  status: ('A' for Active; 'I' for Inactive)
REMARK    1  A    between atoms: C_1  and  C_2
REMARK    2  A    between atoms: C_2  and  C_3
REMARK    3  A    between atoms: C_2  and  C_4
REMARK    4  A    between atoms: C_4  and  N_5
REMARK    5  A    between atoms: N_5  and  C_6
REMARK    6  A    between atoms: C_6  and  C_7
REMARK    7  A    between atoms: C_10  and  O_13
REMARK    8  A    between atoms: O_13  and  C_14
REMARK                            x       y       z     vdW  Elec       q    Type
REMARK                         _______ _______ _______ _____ _____    ______ ____
ROOT
ATOM      1  C   UNL     1      -2.894  -4.010  -0.233  0.00  0.00    +0.047 A 
ATOM      2  C   UNL     1      -2.909  -4.810   0.901  0.00  0.00    +0.028 A 
ATOM      3  C   UNL     1      -2.851  -6.184   0.731  0.00  0.00    +0.071 A 
ATOM      4  C   UNL     1      -2.779  -6.677  -0.570  0.00  0.00    +0.240 A 
ATOM      5  N   UNL     1      -2.770  -5.835  -1.592  0.00  0.00    -0.111 NA
ATOM      6  N   UNL     1      -2.830  -4.564  -1.428  0.00  0.00    -0.153 NA
ENDROOT
BRANCH   1   7
ATOM      7  C   UNL     1      -2.956  -2.511  -0.100  0.00  0.00    -0.024 C 
BRANCH   7   8
ATOM      8  N   UNL     1      -1.594  -1.960  -0.127  0.00  0.00    +0.383 N 
ATOM      9  H   UNL     1      -1.151  -2.202  -1.001  0.00  0.00    -0.085 HD
ATOM     10  H   UNL     1      -1.060  -2.344   0.638  0.00  0.00    -0.085 HD
BRANCH   8  11
ATOM     11  C   UNL     1      -1.655  -0.498   0.003  0.00  0.00    -0.079 C 
BRANCH  11  13
ATOM     12  C   UNL     1      -0.304   1.604  -0.016  0.00  0.00    +0.005 C 
ATOM     13  C   UNL     1      -0.237   0.076  -0.026  0.00  0.00    -0.034 C 
ATOM     14  C   UNL     1       0.534  -0.409   1.204  0.00  0.00    +0.005 C 
ENDBRANCH  11  13
ENDBRANCH   8  11
ENDBRANCH   7   8
ENDBRANCH   1   7
BRANCH   4  15
ATOM     15  O   UNL     1      -2.720  -8.015  -0.789  0.00  0.00    -0.437 OA
BRANCH  15  16
ATOM     16  C   UNL     1      -2.753  -8.453  -2.075  0.00  0.00    +0.130 A 
ATOM     17  C   UNL     1      -1.619  -8.363  -2.869  0.00  0.00    +0.047 A 
ATOM     18  C   UNL     1      -1.654  -8.809  -4.176  0.00  0.00    +0.019 A 
ATOM     19  C   UNL     1      -2.820  -9.345  -4.694  0.00  0.00    +0.018 A 
ATOM     20  C   UNL     1      -3.953  -9.435  -3.904  0.00  0.00    +0.019 A 
ATOM     21  C   UNL     1      -3.919  -8.996  -2.595  0.00  0.00    +0.047 A 
ATOM     22 BR   UNL     1      -2.866  -9.956  -6.483  0.00  0.00    -0.050 Br
ENDBRANCH  15  16
ENDBRANCH   4  15
TORSDOF 6
