REMARK  Name = ZINC49513728
REMARK  4 active torsions:
REMARK  status: ('A' for Active; 'I' for Inactive)
REMARK    1  A    between atoms: C_2  and  C_9
REMARK    2  A    between atoms: C_5  and  N_6
REMARK    3  A    between atoms: N_11  and  S_12
REMARK    4  A    between atoms: S_12  and  C_15
REMARK                            x       y       z     vdW  Elec       q    Type
REMARK                         _______ _______ _______ _____ _____    ______ ____
ROOT
ATOM      1  C   UNL     1       1.403   3.457   0.007  0.00  0.00    +0.295 C 
ATOM      2  O   UNL     1       0.295   4.232   0.021  0.00  0.00    -0.264 OA
ATOM      3  N   UNL     1       2.584   4.007  -0.002  0.00  0.00    -0.090 NA
ENDROOT
BRANCH   1   5
ATOM      4  C   UNL     1      -0.016   1.345   0.009  0.00  0.00    +0.054 A 
ATOM      5  C   UNL     1       1.275   1.987   0.001  0.00  0.00    +0.052 A 
ATOM      6  C   UNL     1       2.373   1.177  -0.014  0.00  0.00    +0.060 A 
ATOM      7  S   UNL     1       1.742  -0.377  -0.017  0.00  0.00    -0.072 S 
ATOM      8  C   UNL     1       0.002  -0.004   0.002  0.00  0.00    +0.164 A 
BRANCH   8   9
ATOM      9  N   UNL     1      -1.143  -0.942   0.008  0.00  0.00    +0.063 N 
ATOM     10  O   UNL     1      -2.274  -0.516   0.021  0.00  0.00    -0.126 OA
ATOM     11  O   UNL     1      -0.947  -2.135  -0.000  0.00  0.00    -0.126 OA
ENDBRANCH   8   9
ENDBRANCH   1   5
BRANCH   3  12
ATOM     12  S   UNL     1       2.728   5.657   0.005  0.00  0.00    +0.076 S 
ATOM     13  O   UNL     1       2.147   6.077  -1.222  0.00  0.00    -0.151 OA
ATOM     14  O   UNL     1       2.170   6.064   1.247  0.00  0.00    -0.151 OA
BRANCH  12  15
ATOM     15  C   UNL     1       4.515   5.969  -0.010  0.00  0.00    +0.155 C 
ATOM     16  C   UNL     1       5.170   5.236   1.162  0.00  0.00    +0.028 C 
ATOM     17  C   UNL     1       6.677   5.499   1.149  0.00  0.00    +0.002 C 
ATOM     18  C   UNL     1       6.934   7.002   1.280  0.00  0.00    +0.000 C 
ATOM     19  C   UNL     1       6.278   7.735   0.108  0.00  0.00    +0.002 C 
ATOM     20  C   UNL     1       4.771   7.472   0.121  0.00  0.00    +0.028 C 
ENDBRANCH  12  15
ENDBRANCH   3  12
TORSDOF 4
