REMARK  Name = ZINC22065749
REMARK  8 active torsions:
REMARK  status: ('A' for Active; 'I' for Inactive)
REMARK    1  A    between atoms: C_1  and  C_2
REMARK    2  A    between atoms: C_3  and  C_27
REMARK    3  A    between atoms: C_8  and  C_10
REMARK    4  A    between atoms: C_10  and  S_11
REMARK    5  A    between atoms: S_11  and  C_12
REMARK    6  A    between atoms: C_12  and  C_13
REMARK    7  A    between atoms: C_30  and  O_33
REMARK    8  A    between atoms: O_33  and  C_34
REMARK                            x       y       z     vdW  Elec       q    Type
REMARK                         _______ _______ _______ _____ _____    ______ ____
ROOT
ATOM      1  C   UNL     1      -0.027   1.502  -0.082  0.00  0.00    +0.054 C 
ATOM      2  C   UNL     1      -0.002  -0.005  -0.040  0.00  0.00    +0.016 A 
ATOM      3  C   UNL     1      -1.034  -0.891   0.093  0.00  0.00    +0.083 A 
ATOM      4  N   UNL     1      -0.777  -2.190   0.105  0.00  0.00    -0.224 NA
ATOM      5  C   UNL     1       0.457  -2.646  -0.009  0.00  0.00    +0.165 A 
ATOM      6  S   UNL     1       1.385  -1.126  -0.158  0.00  0.00    -0.057 S 
ATOM      7  N   UNL     1       0.911  -3.959  -0.018  0.00  0.00    -0.264 N 
ATOM      8  C   UNL     1       2.228  -4.215  -0.146  0.00  0.00    +0.228 C 
ATOM      9  O   UNL     1       3.016  -3.300  -0.255  0.00  0.00    -0.275 OA
ATOM     10  H   UNL     1       0.281  -4.691   0.069  0.00  0.00    +0.157 HD
ENDROOT
BRANCH   3  11
ATOM     11  C   UNL     1      -2.428  -0.403   0.224  0.00  0.00    +0.001 A 
ATOM     12  C   UNL     1      -3.285  -0.978   1.161  0.00  0.00    +0.013 A 
ATOM     13  C   UNL     1      -4.581  -0.521   1.280  0.00  0.00    +0.046 A 
ATOM     14  C   UNL     1      -5.033   0.509   0.467  0.00  0.00    +0.120 A 
ATOM     15  C   UNL     1      -4.182   1.084  -0.467  0.00  0.00    +0.046 A 
ATOM     16  C   UNL     1      -2.883   0.637  -0.586  0.00  0.00    +0.013 A 
BRANCH  14  17
ATOM     17  O   UNL     1      -6.311   0.957   0.586  0.00  0.00    -0.495 OA
ATOM     18  C   UNL     1      -6.710   2.020  -0.281  0.00  0.00    +0.277 C 
ENDBRANCH  14  17
ENDBRANCH   3  11
BRANCH   8  19
ATOM     19  C   UNL     1       2.722  -5.639  -0.155  0.00  0.00    +0.165 C 
BRANCH  19  20
ATOM     20  S   UNL     1       4.526  -5.653  -0.342  0.00  0.00    -0.144 S 
BRANCH  20  21
ATOM     21  C   UNL     1       4.955  -7.415  -0.334  0.00  0.00    +0.143 C 
BRANCH  21  22
ATOM     22  C   UNL     1       6.447  -7.570  -0.484  0.00  0.00    +0.121 A 
ATOM     23  N   UNL     1       6.988  -8.815  -0.509  0.00  0.00    -0.310 N 
ATOM     24  H   UNL     1       6.407  -9.588  -0.430  0.00  0.00    +0.170 HD
ATOM     25  C   UNL     1       8.316  -8.999  -0.641  0.00  0.00    +0.260 A 
ATOM     26  O   UNL     1       8.788 -10.122  -0.662  0.00  0.00    -0.267 OA
ATOM     27  C   UNL     1       9.162  -7.849  -0.757  0.00  0.00    +0.075 A 
ATOM     28  C   UNL     1      10.624  -7.811  -0.909  0.00  0.00    -0.023 A 
ATOM     29  C   UNL     1      11.195  -6.597  -0.996  0.00  0.00    -0.004 A 
ATOM     30  S   UNL     1       9.844  -5.446  -0.888  0.00  0.00    -0.073 S 
ATOM     31  C   UNL     1       8.514  -6.607  -0.721  0.00  0.00    +0.116 A 
ATOM     32  N   UNL     1       7.194  -6.504  -0.593  0.00  0.00    -0.226 NA
ATOM     33  C   UNL     1      12.690  -6.681  -1.143  0.00  0.00    +0.043 C 
ATOM     34  C   UNL     1      13.043  -8.120  -0.705  0.00  0.00    +0.010 C 
ATOM     35  C   UNL     1      11.728  -8.868  -1.001  0.00  0.00    +0.037 C 
ENDBRANCH  21  22
ENDBRANCH  20  21
ENDBRANCH  19  20
ENDBRANCH   8  19
TORSDOF 6
