REMARK  Name = ZINC33825621
REMARK  10 active torsions:
REMARK  status: ('A' for Active; 'I' for Inactive)
REMARK    1  A    between atoms: C_1  and  C_2
REMARK    2  A    between atoms: C_2  and  C_32
REMARK    3  A    between atoms: C_5  and  C_28
REMARK    4  A    between atoms: C_6  and  N_13
REMARK    5  A    between atoms: C_9  and  C_11
REMARK    6  A    between atoms: C_9  and  C_12
REMARK    7  A    between atoms: C_14  and  C_16
REMARK    8  A    between atoms: C_20  and  N_25
REMARK    9  A    between atoms: C_28  and  O_30
REMARK   10  A    between atoms: O_30  and  C_31
REMARK                            x       y       z     vdW  Elec       q    Type
REMARK                         _______ _______ _______ _____ _____    ______ ____
ROOT
ATOM      1  C   UNL     1      -0.013   1.086   0.008  0.00  0.00    -0.010 C 
ATOM      2  C   UNL     1      -0.729   1.579   1.268  0.00  0.00    -0.069 C 
ATOM      3  C   UNL     1      -2.139   0.981   1.314  0.00  0.00    +0.024 C 
ATOM      4  C   UNL     1      -2.971   1.640   0.223  0.00  0.00    -0.024 A 
ATOM      5  C   UNL     1      -4.107   1.037  -0.446  0.00  0.00    +0.091 A 
ATOM      6  C   UNL     1      -4.760   1.800  -1.409  0.00  0.00    +0.087 A 
ATOM      7  S   UNL     1      -3.867   3.285  -1.410  0.00  0.00    -0.079 S 
ATOM      8  C   UNL     1      -2.664   2.896  -0.172  0.00  0.00    -0.016 A 
ATOM      9  C   UNL     1      -1.546   3.746   0.340  0.00  0.00    -0.041 C 
ATOM     10  N   UNL     1      -0.749   3.032   1.333  0.00  0.00    +0.389 N 
ATOM     11  C   UNL     1      -2.159   4.995   1.003  0.00  0.00    -0.005 C 
ATOM     12  C   UNL     1      -0.674   4.214  -0.830  0.00  0.00    -0.005 C 
ATOM     13  C   UNL     1       0.047   1.048   2.488  0.00  0.00    -0.010 C 
ATOM     14  H   UNL     1      -1.150   3.350   2.306  0.00  0.00    -0.084 HD
ATOM     15  H   UNL     1       0.274   3.418   1.213  0.00  0.00    -0.084 HD
ENDROOT
BRANCH   6  16
ATOM     16  N   UNL     1      -5.857   1.454  -2.179  0.00  0.00    -0.275 N 
ATOM     17  C   UNL     1      -6.359   2.332  -3.070  0.00  0.00    +0.255 C 
ATOM     18  O   UNL     1      -5.846   3.428  -3.199  0.00  0.00    -0.269 OA
ATOM     19  H   UNL     1      -6.321   0.463  -2.063  0.00  0.00    +0.156 HD
BRANCH  17  20
ATOM     20  C   UNL     1      -7.523   1.966  -3.888  0.00  0.00    +0.075 A 
ATOM     21  C   UNL     1      -8.168   2.709  -4.826  0.00  0.00    +0.029 A 
ATOM     22  C   UNL     1      -9.273   2.171  -5.510  0.00  0.00    -0.008 A 
ATOM     23  C   UNL     1     -10.066   2.782  -6.516  0.00  0.00    +0.041 A 
ATOM     24  C   UNL     1     -11.111   2.120  -7.075  0.00  0.00    +0.127 A 
ATOM     25  C   UNL     1     -11.444   0.827  -6.688  0.00  0.00    +0.034 A 
ATOM     26  C   UNL     1     -10.699   0.195  -5.713  0.00  0.00    +0.018 A 
ATOM     27  C   UNL     1      -9.635   0.855  -5.137  0.00  0.00    +0.020 A 
ATOM     28  S   UNL     1      -8.445   0.438  -3.888  0.00  0.00    -0.084 S 
BRANCH  24  29
ATOM     29  N   UNL     1     -11.915   2.791  -8.121  0.00  0.00    +0.056 N 
ATOM     30  O   UNL     1     -11.636   3.924  -8.470  0.00  0.00    -0.126 OA
ATOM     31  O   UNL     1     -12.855   2.210  -8.632  0.00  0.00    -0.126 OA
ENDBRANCH  24  29
ENDBRANCH  17  20
ENDBRANCH   6  16
BRANCH   5  32
ATOM     32  C   UNL     1      -4.560  -0.319  -0.126  0.00  0.00    +0.342 C 
ATOM     33  O   UNL     1      -5.390  -0.493   0.746  0.00  0.00    -0.245 OA
BRANCH  32  34
ATOM     34  O   UNL     1      -4.056  -1.374  -0.799  0.00  0.00    -0.464 OA
ATOM     35  C   UNL     1      -4.551  -2.688  -0.429  0.00  0.00    +0.280 C 
ENDBRANCH  32  34
ENDBRANCH   5  32
TORSDOF 5
