REMARK  Name = ZINC22219257
REMARK  9 active torsions:
REMARK  status: ('A' for Active; 'I' for Inactive)
REMARK    1  A    between atoms: C_3  and  C_31
REMARK    2  A    between atoms: C_6  and  N_7
REMARK    3  A    between atoms: C_8  and  C_10
REMARK    4  A    between atoms: C_10  and  O_11
REMARK    5  A    between atoms: O_11  and  C_12
REMARK    6  A    between atoms: C_12  and  C_14
REMARK    7  A    between atoms: C_14  and  C_15
REMARK    8  A    between atoms: C_15  and  N_16
REMARK    9  A    between atoms: N_19  and  C_20
REMARK                            x       y       z     vdW  Elec       q    Type
REMARK                         _______ _______ _______ _____ _____    ______ ____
ROOT
ATOM      1  C   UNL     1       4.806   0.643   0.553  0.00  0.00    +0.139 C 
ENDROOT
BRANCH   1   2
ATOM      2  C   UNL     1       3.615   1.547   0.364  0.00  0.00    +0.309 C 
ATOM      3  O   UNL     1       3.776   2.737   0.224  0.00  0.00    -0.251 OA
BRANCH   2   4
ATOM      4  O   UNL     1       2.377   1.031   0.352  0.00  0.00    -0.455 OA
BRANCH   4   5
ATOM      5  C   UNL     1       1.277   1.961   0.166  0.00  0.00    +0.328 C 
BRANCH   5   7
ATOM      6  N   UNL     1      -1.191   1.867   0.018  0.00  0.00    -0.283 N 
ATOM      7  C   UNL     1      -0.027   1.206   0.179  0.00  0.00    +0.255 C 
ATOM      8  O   UNL     1      -0.030   0.002   0.331  0.00  0.00    -0.272 OA
ATOM      9  H   UNL     1      -1.196   2.965  -0.033  0.00  0.00    +0.155 HD
BRANCH   6  15
ATOM     10  C   UNL     1      -2.405  -0.088  -0.705  0.00  0.00    +0.024 A 
ATOM     11  C   UNL     1      -3.582  -0.795  -0.804  0.00  0.00    +0.022 A 
ATOM     12  C   UNL     1      -4.765  -0.254  -0.293  0.00  0.00    +0.070 A 
ATOM     13  C   UNL     1      -4.746   1.002   0.325  0.00  0.00    +0.060 A 
ATOM     14  C   UNL     1      -3.562   1.700   0.426  0.00  0.00    +0.044 A 
ATOM     15  C   UNL     1      -2.388   1.157  -0.086  0.00  0.00    +0.035 A 
ATOM     16 CL   UNL     1      -6.212   1.680   0.962  0.00  0.00    -0.082 Cl
BRANCH  12  17
ATOM     17  C   UNL     1      -5.993  -0.983  -0.399  0.00  0.00    +0.101 C 
ATOM     18  N   UNL     1      -6.967  -1.561  -0.484  0.00  0.00    -0.191 NA
ENDBRANCH  12  17
ENDBRANCH   6  15
ENDBRANCH   5   7
ENDBRANCH   4   5
ENDBRANCH   2   4
ENDBRANCH   1   2
BRANCH   1  19
ATOM     19  C   UNL     1       6.089   1.478   0.528  0.00  0.00    +0.117 C 
BRANCH  19  20
ATOM     20  N   UNL     1       7.247   0.599   0.711  0.00  0.00    -0.299 N 
ATOM     21  C   UNL     1       8.491   1.117   0.723  0.00  0.00    +0.300 C 
ATOM     22  O   UNL     1       8.652   2.314   0.583  0.00  0.00    -0.253 OA
ATOM     23  N   UNL     1       9.556   0.309   0.892  0.00  0.00    -0.294 N 
ATOM     24  H   UNL     1       7.101  -0.484   0.838  0.00  0.00    +0.150 HD
ATOM     25  H   UNL     1       9.410  -0.774   1.019  0.00  0.00    +0.151 HD
BRANCH  23  26
ATOM     26  C   UNL     1      10.908   0.873   0.905  0.00  0.00    +0.037 C 
ATOM     27  C   UNL     1      11.182   1.573  -0.427  0.00  0.00    +0.029 C 
ATOM     28  C   UNL     1      12.595   2.161  -0.413  0.00  0.00    -0.008 C 
ATOM     29  C   UNL     1      13.613   1.038  -0.208  0.00  0.00    +0.007 C 
ATOM     30  C   UNL     1      13.339   0.338   1.125  0.00  0.00    -0.008 C 
ATOM     31  C   UNL     1      11.927  -0.251   1.111  0.00  0.00    +0.029 C 
ATOM     32  C   UNL     1      13.458   1.349   2.266  0.00  0.00    +0.007 C 
ATOM     33  C   UNL     1      12.440   2.473   2.061  0.00  0.00    -0.008 C 
ATOM     34  C   UNL     1      12.714   3.173   0.728  0.00  0.00    +0.007 C 
ATOM     35  C   UNL     1      11.028   1.884   2.047  0.00  0.00    +0.029 C 
ENDBRANCH  23  26
ENDBRANCH  19  20
ENDBRANCH   1  19
TORSDOF 9
