REMARK  Name = ZINC47309517
REMARK  4 active torsions:
REMARK  status: ('A' for Active; 'I' for Inactive)
REMARK    1  A    between atoms: C_7  and  C_11
REMARK    2  A    between atoms: C_14  and  C_25
REMARK    3  A    between atoms: C_20  and  N_24
REMARK    4  A    between atoms: C_21  and  C_22
REMARK                            x       y       z     vdW  Elec       q    Type
REMARK                         _______ _______ _______ _____ _____    ______ ____
ROOT
ATOM      1  C   UNL     1       0.666  -3.275  -0.021  0.00  0.00    +0.104 C 
ATOM      2  C   UNL     1       0.904  -4.117  -1.249  0.00  0.00    +0.054 A 
ATOM      3  C   UNL     1       0.592  -3.863  -2.542  0.00  0.00    +0.074 A 
ATOM      4  N   UNL     1       1.015  -4.934  -3.278  0.00  0.00    -0.273 N 
ATOM      5  H   UNL     1       0.928  -5.037  -4.239  0.00  0.00    +0.189 HD
ATOM      6  N   UNL     1       1.597  -5.859  -2.398  0.00  0.00    -0.135 NA
ATOM      7  C   UNL     1       1.532  -5.376  -1.190  0.00  0.00    +0.245 A 
ATOM      8  O   UNL     1       1.963  -5.912  -0.015  0.00  0.00    -0.421 OA
ATOM      9  C   UNL     1       1.533  -5.336   1.125  0.00  0.00    +0.201 C 
ATOM     10  C   UNL     1       0.929  -4.130   1.193  0.00  0.00    +0.098 C 
ENDROOT
BRANCH   1  17
ATOM     11  C   UNL     1      -0.017   1.362   0.009  0.00  0.00    +0.001 A 
ATOM     12  C   UNL     1       1.170   2.083   0.002  0.00  0.00    +0.002 A 
ATOM     13  C   UNL     1       2.386   1.436  -0.013  0.00  0.00    +0.026 A 
ATOM     14  C   UNL     1       2.428   0.046  -0.021  0.00  0.00    +0.047 A 
ATOM     15  C   UNL     1       1.223  -0.681  -0.013  0.00  0.00    +0.004 A 
ATOM     16  C   UNL     1       0.002  -0.004   0.002  0.00  0.00    +0.010 A 
ATOM     17  C   UNL     1       1.604  -2.095  -0.025  0.00  0.00    -0.010 A 
ATOM     18  C   UNL     1       2.945  -2.141  -0.038  0.00  0.00    +0.088 A 
ATOM     19  N   UNL     1       3.455  -0.871  -0.036  0.00  0.00    -0.360 N 
ATOM     20  H   UNL     1       4.399  -0.650  -0.044  0.00  0.00    +0.165 HD
ENDBRANCH   1  17
BRANCH   3  21
ATOM     21  C   UNL     1      -0.081  -2.652  -3.062  0.00  0.00    +0.000 A 
ATOM     22  C   UNL     1      -1.196  -2.134  -2.404  0.00  0.00    +0.011 A 
ATOM     23  C   UNL     1      -1.819  -1.004  -2.893  0.00  0.00    +0.020 A 
ATOM     24  C   UNL     1      -1.339  -0.385  -4.034  0.00  0.00    +0.041 A 
ATOM     25  C   UNL     1      -0.233  -0.895  -4.692  0.00  0.00    +0.020 A 
ATOM     26  C   UNL     1       0.402  -2.020  -4.208  0.00  0.00    +0.011 A 
ATOM     27 CL   UNL     1      -2.128   1.036  -4.644  0.00  0.00    -0.084 Cl
ENDBRANCH   3  21
BRANCH   9  28
ATOM     28  N   UNL     1       1.723  -6.022   2.299  0.00  0.00    -0.328 N 
ATOM     29  H   UNL     1       2.153  -6.891   2.288  0.00  0.00    +0.145 HD
ATOM     30  H   UNL     1       1.427  -5.638   3.138  0.00  0.00    +0.145 HD
ENDBRANCH   9  28
BRANCH  10  31
ATOM     31  C   UNL     1       0.518  -3.641   2.475  0.00  0.00    +0.101 C 
ATOM     32  N   UNL     1       0.193  -3.253   3.492  0.00  0.00    -0.191 NA
ENDBRANCH  10  31
TORSDOF 4
