REMARK  Name = ZINC00557941
REMARK  6 active torsions:
REMARK  status: ('A' for Active; 'I' for Inactive)
REMARK    1  A    between atoms: C_1  and  C_2
REMARK    2  A    between atoms: C_5  and  C_9
REMARK    3  A    between atoms: C_6  and  C_8
REMARK    4  A    between atoms: N_11  and  C_12
REMARK    5  A    between atoms: C_13  and  C_23
REMARK    6  A    between atoms: C_18  and  C_22
REMARK                            x       y       z     vdW  Elec       q    Type
REMARK                         _______ _______ _______ _____ _____    ______ ____
ROOT
ATOM      1  C   UNL     1      -0.716   2.266  -3.838  0.00  0.00    +0.085 A 
ATOM      2  C   UNL     1       0.185   1.869  -2.861  0.00  0.00    +0.068 A 
ATOM      3  C   UNL     1       0.175   2.596  -1.603  0.00  0.00    -0.023 A 
ATOM      4  C   UNL     1      -0.728   3.598  -1.525  0.00  0.00    -0.004 A 
ATOM      5  S   UNL     1      -1.556   3.584  -3.089  0.00  0.00    -0.077 S 
ATOM      6  C   UNL     1      -0.963   4.513  -0.363  0.00  0.00    +0.046 C 
ATOM      7  C   UNL     1       0.228   4.391   0.598  0.00  0.00    -0.009 C 
ATOM      8  C   UNL     1       0.525   2.908   0.837  0.00  0.00    +0.008 C 
ATOM      9  C   UNL     1       1.101   2.282  -0.434  0.00  0.00    +0.037 C 
ATOM     10  C   UNL     1      -0.114   5.066   1.928  0.00  0.00    +0.008 C 
ENDROOT
BRANCH   2  11
ATOM     11  C   UNL     1       1.112   0.756  -3.088  0.00  0.00    +0.244 C 
ATOM     12  O   UNL     1       0.783  -0.379  -2.799  0.00  0.00    -0.270 OA
ATOM     13  N   UNL     1       2.329   0.990  -3.618  0.00  0.00    -0.325 N 
ATOM     14  H   UNL     1       2.591   1.895  -3.849  0.00  0.00    +0.145 HD
ATOM     15  H   UNL     1       2.942   0.254  -3.768  0.00  0.00    +0.145 HD
ENDBRANCH   2  11
BRANCH   1  18
ATOM     16  C   UNL     1      -1.833   2.261  -5.925  0.00  0.00    +0.249 C 
ATOM     17  O   UNL     1      -2.515   3.195  -5.552  0.00  0.00    -0.270 OA
ATOM     18  N   UNL     1      -0.899   1.738  -5.106  0.00  0.00    -0.275 N 
ATOM     19  H   UNL     1      -0.356   0.992  -5.404  0.00  0.00    +0.156 HD
BRANCH  16  24
ATOM     20  C   UNL     1      -2.595   0.067 -11.190  0.00  0.00    +0.044 C 
ATOM     21  C   UNL     1      -2.395   0.641  -9.811  0.00  0.00    -0.050 A 
ATOM     22  C   UNL     1      -1.355   0.187  -9.020  0.00  0.00    +0.004 A 
ATOM     23  C   UNL     1      -1.164   0.713  -7.759  0.00  0.00    +0.013 A 
ATOM     24  C   UNL     1      -2.029   1.697  -7.278  0.00  0.00    +0.040 A 
ATOM     25  C   UNL     1      -3.076   2.151  -8.082  0.00  0.00    -0.038 A 
ATOM     26  C   UNL     1      -3.253   1.621  -9.343  0.00  0.00    +0.007 A 
ATOM     27  C   UNL     1      -4.011   3.218  -7.573  0.00  0.00    +0.044 C 
ENDBRANCH  16  24
ENDBRANCH   1  18
TORSDOF 3
