REMARK  Name = ZINC38964858
REMARK  8 active torsions:
REMARK  status: ('A' for Active; 'I' for Inactive)
REMARK    1  A    between atoms: C_1  and  C_2
REMARK    2  A    between atoms: C_7  and  C_14
REMARK    3  A    between atoms: C_14  and  N_15
REMARK    4  A    between atoms: N_15  and  C_25
REMARK    5  A    between atoms: C_16  and  C_18
REMARK    6  A    between atoms: C_25  and  C_26
REMARK    7  A    between atoms: C_25  and  C_27
REMARK    8  A    between atoms: C_25  and  C_28
REMARK                            x       y       z     vdW  Elec       q    Type
REMARK                         _______ _______ _______ _____ _____    ______ ____
ROOT
ATOM      1  C   UNL     1       0.794  -7.433   2.576  0.00  0.00    +0.125 C 
ENDROOT
BRANCH   1   8
ATOM      2  C   UNL     1      -4.768  -6.951  -2.427  0.00  0.00    +0.044 C 
ATOM      3  C   UNL     1      -3.768  -7.396  -1.391  0.00  0.00    -0.049 A 
ATOM      4  C   UNL     1      -3.164  -8.645  -1.536  0.00  0.00    +0.004 A 
ATOM      5  C   UNL     1      -2.256  -9.101  -0.635  0.00  0.00    +0.010 A 
ATOM      6  C   UNL     1      -1.911  -8.255   0.507  0.00  0.00    -0.007 A 
ATOM      7  C   UNL     1      -1.004  -8.671   1.437  0.00  0.00    -0.003 C 
ATOM      8  C   UNL     1      -0.707  -7.729   2.587  0.00  0.00    +0.116 C 
ATOM      9  C   UNL     1      -1.440  -6.407   2.611  0.00  0.00    +0.226 C 
ATOM     10  O   UNL     1      -1.239  -5.613   3.511  0.00  0.00    -0.275 OA
ATOM     11  N   UNL     1      -2.299  -6.116   1.649  0.00  0.00    -0.284 N 
ATOM     12  C   UNL     1      -2.564  -6.941   0.636  0.00  0.00    +0.041 A 
ATOM     13  C   UNL     1      -3.487  -6.562  -0.356  0.00  0.00    +0.027 A 
ATOM     14  H   UNL     1      -2.759  -5.263   1.683  0.00  0.00    +0.155 HD
ENDBRANCH   1   8
BRANCH   1  15
ATOM     15  N   UNL     1       1.216  -6.996   3.909  0.00  0.00    -0.291 N 
ATOM     16  C   UNL     1       1.035  -7.804   4.972  0.00  0.00    +0.247 C 
ATOM     17  O   UNL     1       0.623  -8.936   4.811  0.00  0.00    -0.270 OA
BRANCH  16  18
ATOM     18  C   UNL     1       1.338  -7.315   6.333  0.00  0.00    +0.037 A 
ATOM     19  C   UNL     1       1.823  -6.019   6.520  0.00  0.00    +0.014 A 
ATOM     20  C   UNL     1       2.104  -5.567   7.792  0.00  0.00    +0.021 A 
ATOM     21  C   UNL     1       1.906  -6.397   8.883  0.00  0.00    +0.041 A 
ATOM     22  C   UNL     1       1.425  -7.683   8.704  0.00  0.00    +0.021 A 
ATOM     23  C   UNL     1       1.135  -8.144   7.437  0.00  0.00    +0.014 A 
ATOM     24 CL   UNL     1       2.262  -5.822  10.482  0.00  0.00    -0.084 Cl
ENDBRANCH  16  18
BRANCH  15  25
ATOM     25  C   UNL     1       1.835  -5.680   4.087  0.00  0.00    +0.029 C 
ATOM     26  C   UNL     1       2.060  -5.033   2.718  0.00  0.00    +0.031 C 
ATOM     27  C   UNL     1       0.913  -4.792   4.925  0.00  0.00    +0.031 C 
ATOM     28  C   UNL     1       3.178  -5.840   4.802  0.00  0.00    +0.031 C 
ENDBRANCH  15  25
ENDBRANCH   1  15
TORSDOF 4
