REMARK  Name = ZINC16676111
REMARK  4 active torsions:
REMARK  status: ('A' for Active; 'I' for Inactive)
REMARK    1  A    between atoms: C_1  and  O_2
REMARK    2  A    between atoms: O_2  and  C_3
REMARK    3  A    between atoms: C_5  and  C_11
REMARK    4  A    between atoms: C_8  and  O_9
REMARK                            x       y       z     vdW  Elec       q    Type
REMARK                         _______ _______ _______ _____ _____    ______ ____
ROOT
ATOM      1  C   UNL     1      -0.013   1.076   0.008  0.00  0.00    +0.028 C 
ATOM      2  C   UNL     1      -1.124   1.745  -0.393  0.00  0.00    +0.081 A 
ATOM      3  C   UNL     1      -2.522   1.295  -0.427  0.00  0.00    +0.273 A 
ATOM      4  O   UNL     1      -2.831   0.175  -0.064  0.00  0.00    -0.266 OA
ATOM      5  N   UNL     1      -3.449   2.160  -0.868  0.00  0.00    -0.236 N 
ATOM      6  C   UNL     1      -4.841   2.147  -1.056  0.00  0.00    +0.168 A 
ATOM      7  C   UNL     1      -5.192   3.404  -1.569  0.00  0.00    +0.111 A 
ATOM      8  C   UNL     1      -6.535   3.669  -1.852  0.00  0.00    +0.048 A 
ATOM      9  C   UNL     1      -7.460   2.668  -1.610  0.00  0.00    +0.038 A 
ATOM     10  C   UNL     1      -7.035   1.451  -1.102  0.00  0.00    +0.128 A 
ATOM     11  N   UNL     1      -5.761   1.225  -0.842  0.00  0.00    -0.234 NA
ATOM     12 BR   UNL     1      -9.294   2.959  -1.972  0.00  0.00    -0.049 Br
ATOM     13  N   UNL     1      -4.050   4.130  -1.679  0.00  0.00    -0.219 NA
ATOM     14  C   UNL     1      -3.043   3.410  -1.274  0.00  0.00    +0.183 A 
ATOM     15  S   UNL     1      -1.280   3.407  -1.028  0.00  0.00    -0.046 S 
ENDROOT
BRANCH   1  18
ATOM     16  C   UNL     1       2.731   3.259  -1.325  0.00  0.00    +0.163 A 
ATOM     17  C   UNL     1       1.479   2.709  -1.126  0.00  0.00    +0.057 A 
ATOM     18  C   UNL     1       1.316   1.661  -0.212  0.00  0.00    -0.019 A 
ATOM     19  C   UNL     1       2.425   1.169   0.488  0.00  0.00    +0.027 A 
ATOM     20  C   UNL     1       3.670   1.721   0.280  0.00  0.00    +0.063 A 
ATOM     21  C   UNL     1       3.829   2.764  -0.624  0.00  0.00    +0.173 A 
ATOM     22 BR   UNL     1       5.166   1.056   1.226  0.00  0.00    -0.046 Br
BRANCH  16  24
ATOM     23  C   UNL     1       1.723   4.738  -2.891  0.00  0.00    +0.277 C 
ATOM     24  O   UNL     1       2.892   4.280  -2.208  0.00  0.00    -0.491 OA
ENDBRANCH  16  24
BRANCH  21  25
ATOM     25  O   UNL     1       5.060   3.303  -0.826  0.00  0.00    -0.503 OA
ATOM     26  H   UNL     1       5.566   2.876  -1.531  0.00  0.00    +0.292 HD
ENDBRANCH  21  25
ENDBRANCH   1  18
TORSDOF 3
