REMARK  Name = ZINC05869989
REMARK  6 active torsions:
REMARK  status: ('A' for Active; 'I' for Inactive)
REMARK    1  A    between atoms: C_1  and  C_2
REMARK    2  A    between atoms: C_3  and  C_17
REMARK    3  A    between atoms: C_4  and  C_10
REMARK    4  A    between atoms: C_13  and  O_16
REMARK    5  A    between atoms: N_19  and  C_20
REMARK    6  A    between atoms: C_25  and  C_26
REMARK                            x       y       z     vdW  Elec       q    Type
REMARK                         _______ _______ _______ _____ _____    ______ ____
ROOT
ATOM      1  C   UNL     1      -4.871   1.841   4.150  0.00  0.00    +0.061 C 
ATOM      2  C   UNL     1      -4.750   1.449   2.700  0.00  0.00    +0.017 C 
ATOM      3  C   UNL     1      -3.740   0.641   2.313  0.00  0.00    +0.056 C 
ATOM      4  C   UNL     1      -3.655   0.271   0.846  0.00  0.00    +0.139 C 
ATOM      5  N   UNL     1      -4.689   0.827  -0.043  0.00  0.00    -0.315 N 
ATOM      6  C   UNL     1      -5.637   1.621   0.493  0.00  0.00    +0.135 C 
ATOM      7  S   UNL     1      -6.846   2.274  -0.528  0.00  0.00    -0.019 S 
ATOM      8  N   UNL     1      -5.663   1.916   1.799  0.00  0.00    -0.300 N 
ATOM      9  H   UNL     1      -4.688   0.627  -0.992  0.00  0.00    +0.149 HD
ATOM     10  H   UNL     1      -6.372   2.494   2.123  0.00  0.00    +0.154 HD
ENDROOT
BRANCH   4  11
ATOM     11  C   UNL     1      -2.311   0.717   0.332  0.00  0.00    -0.022 A 
ATOM     12  C   UNL     1      -1.303  -0.210   0.139  0.00  0.00    +0.009 A 
ATOM     13  C   UNL     1      -0.072   0.196  -0.339  0.00  0.00    +0.046 A 
ATOM     14  C   UNL     1       0.155   1.535  -0.620  0.00  0.00    +0.117 A 
ATOM     15  C   UNL     1      -0.856   2.464  -0.420  0.00  0.00    +0.046 A 
ATOM     16  C   UNL     1      -2.085   2.054   0.058  0.00  0.00    +0.009 A 
BRANCH  14  17
ATOM     17  O   UNL     1       1.365   1.937  -1.090  0.00  0.00    -0.507 OA
ATOM     18  H   UNL     1       1.436   1.927  -2.054  0.00  0.00    +0.292 HD
ENDBRANCH  14  17
ENDBRANCH   4  11
BRANCH   3  19
ATOM     19  C   UNL     1      -2.792   0.156   3.247  0.00  0.00    +0.248 C 
ATOM     20  O   UNL     1      -2.854  -0.997   3.634  0.00  0.00    -0.270 OA
ATOM     21  N   UNL     1      -1.821   0.970   3.706  0.00  0.00    -0.281 N 
ATOM     22  H   UNL     1      -1.747   1.876   3.368  0.00  0.00    +0.155 HD
BRANCH  21  23
ATOM     23  C   UNL     1      -0.920   0.508   4.671  0.00  0.00    +0.045 A 
ATOM     24  C   UNL     1      -0.628  -0.847   4.759  0.00  0.00    +0.024 A 
ATOM     25  C   UNL     1       0.266  -1.299   5.709  0.00  0.00    +0.002 A 
ATOM     26  C   UNL     1       0.863  -0.405   6.580  0.00  0.00    +0.001 A 
ATOM     27  C   UNL     1       0.571   0.944   6.498  0.00  0.00    +0.014 A 
ATOM     28  C   UNL     1      -0.319   1.403   5.547  0.00  0.00    +0.076 A 
BRANCH  28  29
ATOM     29  C   UNL     1      -0.637   2.873   5.459  0.00  0.00    +0.419 C 
ATOM     30  F   UNL     1       0.013   3.554   6.494  0.00  0.00    -0.166 F 
ATOM     31  F   UNL     1      -0.201   3.372   4.227  0.00  0.00    -0.166 F 
ATOM     32  F   UNL     1      -2.019   3.059   5.575  0.00  0.00    -0.166 F 
ENDBRANCH  28  29
ENDBRANCH  21  23
ENDBRANCH   3  19
TORSDOF 5
