REMARK  Name = ZINC20714870
REMARK  7 active torsions:
REMARK  status: ('A' for Active; 'I' for Inactive)
REMARK    1  A    between atoms: C_1  and  O_2
REMARK    2  A    between atoms: O_2  and  C_3
REMARK    3  A    between atoms: C_3  and  C_5
REMARK    4  A    between atoms: C_5  and  C_7
REMARK    5  A    between atoms: C_5  and  N_14
REMARK    6  A    between atoms: C_7  and  C_8
REMARK    7  A    between atoms: C_26  and  C_28
REMARK                            x       y       z     vdW  Elec       q    Type
REMARK                         _______ _______ _______ _____ _____    ______ ____
ROOT
ATOM      1  N   UNL     1      -0.615  -2.325  -3.524  0.00  0.00    -0.286 N 
ATOM      2  C   UNL     1       0.702  -2.609  -3.504  0.00  0.00    +0.304 C 
ATOM      3  O   UNL     1       1.345  -2.445  -2.485  0.00  0.00    -0.253 OA
ATOM      4  N   UNL     1       1.308  -3.074  -4.615  0.00  0.00    -0.273 N 
ATOM      5  C   UNL     1       2.716  -3.496  -4.585  0.00  0.00    +0.116 C 
ATOM      6  C   UNL     1       2.799  -4.999  -4.880  0.00  0.00    +0.076 C 
ATOM      7  C   UNL     1       1.907  -5.314  -6.055  0.00  0.00    +0.066 A 
ATOM      8  C   UNL     1       0.920  -4.508  -6.501  0.00  0.00    +0.064 A 
ATOM      9  N   UNL     1       0.342  -5.129  -7.564  0.00  0.00    -0.346 N 
ATOM     10  H   UNL     1      -0.399  -4.796  -8.095  0.00  0.00    +0.167 HD
ATOM     11  C   UNL     1       0.997  -6.300  -7.742  0.00  0.00    +0.197 A 
ATOM     12  N   UNL     1       1.932  -6.400  -6.834  0.00  0.00    -0.240 NA
ATOM     13  C   UNL     1       0.574  -3.178  -5.889  0.00  0.00    +0.156 C 
ATOM     14  H   UNL     1      -1.110  -2.378  -4.356  0.00  0.00    +0.151 HD
ENDROOT
BRANCH  13  15
ATOM     15  C   UNL     1       0.995  -2.067  -6.816  0.00  0.00    -0.021 A 
ATOM     16  C   UNL     1       2.295  -2.010  -7.282  0.00  0.00    +0.007 A 
ATOM     17  C   UNL     1       2.682  -0.991  -8.132  0.00  0.00    +0.020 A 
ATOM     18  C   UNL     1       1.767  -0.027  -8.517  0.00  0.00    +0.041 A 
ATOM     19  C   UNL     1       0.465  -0.084  -8.050  0.00  0.00    +0.020 A 
ATOM     20  C   UNL     1       0.079  -1.107  -7.205  0.00  0.00    +0.007 A 
ATOM     21 CL   UNL     1       2.252   1.253  -9.584  0.00  0.00    -0.084 Cl
ENDBRANCH  13  15
BRANCH   1  22
ATOM     22  C   UNL     1      -1.299  -1.937  -2.288  0.00  0.00    +0.187 C 
BRANCH  22  23
ATOM     23  C   UNL     1      -1.724  -3.174  -1.539  0.00  0.00    +0.328 C 
ATOM     24  O   UNL     1      -1.480  -4.267  -1.991  0.00  0.00    -0.249 OA
BRANCH  23  26
ATOM     25  C   UNL     1      -2.745  -4.274   0.286  0.00  0.00    +0.280 C 
ATOM     26  O   UNL     1      -2.373  -3.060  -0.369  0.00  0.00    -0.467 OA
ENDBRANCH  23  26
ENDBRANCH  22  23
BRANCH  22  27
ATOM     27  C   UNL     1      -2.533  -1.099  -2.629  0.00  0.00    +0.069 C 
BRANCH  27  28
ATOM     28  C   UNL     1      -2.099   0.195  -3.269  0.00  0.00    -0.045 A 
ATOM     29  C   UNL     1      -1.844   1.303  -2.482  0.00  0.00    +0.004 A 
ATOM     30  C   UNL     1      -1.446   2.490  -3.069  0.00  0.00    +0.000 A 
ATOM     31  C   UNL     1      -1.304   2.569  -4.442  0.00  0.00    +0.000 A 
ATOM     32  C   UNL     1      -1.559   1.461  -5.228  0.00  0.00    +0.000 A 
ATOM     33  C   UNL     1      -1.953   0.273  -4.641  0.00  0.00    +0.004 A 
ENDBRANCH  27  28
ENDBRANCH  22  27
ENDBRANCH   1  22
TORSDOF 6
