REMARK  Name = ZINC01074632
REMARK  8 active torsions:
REMARK  status: ('A' for Active; 'I' for Inactive)
REMARK    1  A    between atoms: C_1  and  C_2
REMARK    2  A    between atoms: C_3  and  C_29
REMARK    3  A    between atoms: C_4  and  C_20
REMARK    4  A    between atoms: C_10  and  C_15
REMARK    5  A    between atoms: C_23  and  N_26
REMARK    6  A    between atoms: C_29  and  O_31
REMARK    7  A    between atoms: O_31  and  C_32
REMARK    8  A    between atoms: C_32  and  C_33
REMARK                            x       y       z     vdW  Elec       q    Type
REMARK                         _______ _______ _______ _____ _____    ______ ____
ROOT
ATOM      1  C   UNL     1       3.682   3.258   0.207  0.00  0.00    +0.061 C 
ATOM      2  C   UNL     1       2.424   4.080   0.103  0.00  0.00    +0.016 C 
ATOM      3  C   UNL     1       1.232   3.467   0.001  0.00  0.00    +0.065 C 
ATOM      4  C   UNL     1      -0.042   4.254  -0.103  0.00  0.00    +0.092 C 
ATOM      5  C   UNL     1       0.234   5.682  -0.495  0.00  0.00    +0.024 C 
ATOM      6  C   UNL     1       1.471   6.207  -0.366  0.00  0.00    +0.016 C 
ATOM      7  N   UNL     1       2.502   5.445   0.113  0.00  0.00    -0.321 N 
ATOM      8  C   UNL     1       1.748   7.642  -0.740  0.00  0.00    +0.060 C 
ATOM      9  C   UNL     1       0.821   8.064  -1.882  0.00  0.00    +0.039 C 
ATOM     10  C   UNL     1      -0.629   7.878  -1.425  0.00  0.00    +0.088 C 
ATOM     11  C   UNL     1      -0.831   6.449  -1.000  0.00  0.00    +0.162 C 
ATOM     12  O   UNL     1      -1.934   5.948  -1.096  0.00  0.00    -0.292 OA
ATOM     13  H   UNL     1       3.401   5.941   0.508  0.00  0.00    +0.152 HD
ENDROOT
BRANCH   4  14
ATOM     14  C   UNL     1      -0.743   4.238   1.230  0.00  0.00    -0.035 A 
ATOM     15  C   UNL     1      -0.114   4.751   2.349  0.00  0.00    +0.007 A 
ATOM     16  C   UNL     1      -0.759   4.740   3.571  0.00  0.00    +0.033 A 
ATOM     17  C   UNL     1      -2.031   4.208   3.677  0.00  0.00    +0.126 A 
ATOM     18  C   UNL     1      -2.658   3.690   2.559  0.00  0.00    +0.033 A 
ATOM     19  C   UNL     1      -2.015   3.705   1.336  0.00  0.00    +0.007 A 
BRANCH  17  20
ATOM     20  N   UNL     1      -2.720   4.191   4.987  0.00  0.00    +0.056 N 
ATOM     21  O   UNL     1      -3.840   3.721   5.080  0.00  0.00    -0.126 OA
ATOM     22  O   UNL     1      -2.167   4.647   5.972  0.00  0.00    -0.126 OA
ENDBRANCH  17  20
ENDBRANCH   4  14
BRANCH   9  23
ATOM     23  C   UNL     1       1.064   9.511  -2.222  0.00  0.00    -0.006 A 
ATOM     24  C   UNL     1       1.466  10.056  -3.397  0.00  0.00    +0.011 A 
ATOM     25  C   UNL     1       1.624  11.427  -3.480  0.00  0.00    +0.008 A 
ATOM     26  C   UNL     1       1.371  12.186  -2.386  0.00  0.00    +0.045 A 
ATOM     27  S   UNL     1       0.888  10.955  -1.187  0.00  0.00    -0.101 S 
ENDBRANCH   9  23
BRANCH   3  28
ATOM     28  C   UNL     1       1.178   2.054  -0.014  0.00  0.00    +0.338 C 
ATOM     29  O   UNL     1       2.208   1.406  -0.042  0.00  0.00    -0.245 OA
BRANCH  28  30
ATOM     30  O   UNL     1      -0.015   1.424   0.001  0.00  0.00    -0.457 OA
BRANCH  30  31
ATOM     31  C   UNL     1       0.005  -0.005  -0.015  0.00  0.00    +0.268 C 
BRANCH  31  32
ATOM     32  C   UNL     1      -1.409  -0.527   0.006  0.00  0.00    -0.010 A 
ATOM     33  C   UNL     1      -2.032  -0.786   1.212  0.00  0.00    +0.007 A 
ATOM     34  C   UNL     1      -3.330  -1.260   1.232  0.00  0.00    +0.000 A 
ATOM     35  C   UNL     1      -4.001  -1.487   0.045  0.00  0.00    +0.000 A 
ATOM     36  C   UNL     1      -3.376  -1.233  -1.162  0.00  0.00    +0.000 A 
ATOM     37  C   UNL     1      -2.080  -0.753  -1.181  0.00  0.00    +0.007 A 
ENDBRANCH  31  32
ENDBRANCH  30  31
ENDBRANCH  28  30
ENDBRANCH   3  28
TORSDOF 7
