REMARK  Name = ZINC08789572
REMARK  7 active torsions:
REMARK  status: ('A' for Active; 'I' for Inactive)
REMARK    1  A    between atoms: C_1  and  C_2
REMARK    2  A    between atoms: C_9  and  O_20
REMARK    3  A    between atoms: C_12  and  C_14
REMARK    4  A    between atoms: C_23  and  O_36
REMARK    5  A    between atoms: C_24  and  C_34
REMARK    6  A    between atoms: C_27  and  O_30
REMARK    7  A    between atoms: O_30  and  N_31
REMARK                            x       y       z     vdW  Elec       q    Type
REMARK                         _______ _______ _______ _____ _____    ______ ____
ROOT
ATOM      1  C   UNL     1       3.506   3.561  -4.157  0.00  0.00    +0.014 C 
ATOM      2  C   UNL     1       3.481   2.072  -3.807  0.00  0.00    +0.004 C 
ATOM      3  C   UNL     1       2.050   1.534  -3.730  0.00  0.00    +0.010 C 
ATOM      4  C   UNL     1       1.342   2.057  -2.483  0.00  0.00    +0.005 C 
ATOM      5  C   UNL     1       2.088   1.544  -1.246  0.00  0.00    +0.011 C 
ATOM      6  C   UNL     1       3.500   2.128  -1.256  0.00  0.00    +0.025 C 
ATOM      7  C   UNL     1       4.242   1.781  -2.501  0.00  0.00    +0.075 C 
ATOM      8  C   UNL     1       4.518   0.268  -2.575  0.00  0.00    +0.036 C 
ATOM      9  C   UNL     1       4.866   0.037  -4.063  0.00  0.00    +0.011 C 
ATOM     10  C   UNL     1       4.222   1.217  -4.870  0.00  0.00    +0.027 C 
ATOM     11  C   UNL     1       4.260   1.650  -0.017  0.00  0.00    +0.009 C 
ATOM     12  C   UNL     1       3.526   2.113   1.242  0.00  0.00    +0.036 C 
ATOM     13  C   UNL     1       2.111   1.530   1.253  0.00  0.00    +0.082 C 
ATOM     14  C   UNL     1       1.353   2.008   0.013  0.00  0.00    +0.058 C 
ATOM     15  C   UNL     1      -0.061   1.424   0.023  0.00  0.00    +0.021 C 
ATOM     16  C   UNL     1       0.016  -0.104   0.019  0.00  0.00    +0.048 C 
ATOM     17  C   UNL     1       0.773  -0.579   1.260  0.00  0.00    +0.212 C 
ATOM     18  C   UNL     1       2.188   0.002   1.248  0.00  0.00    +0.083 C 
ENDROOT
BRANCH  10  19
ATOM     19  C   UNL     1       5.289   2.041  -5.544  0.00  0.00    -0.022 C 
ATOM     20  C   UNL     1       5.311   2.418  -6.819  0.00  0.00    +0.094 C 
ATOM     21  C   UNL     1       6.519   3.206  -7.076  0.00  0.00    +0.332 C 
ATOM     22  O   UNL     1       6.821   3.691  -8.149  0.00  0.00    -0.246 OA
ATOM     23  O   UNL     1       7.246   3.314  -5.948  0.00  0.00    -0.457 OA
ATOM     24  C   UNL     1       6.535   2.600  -4.897  0.00  0.00    +0.264 C 
ENDBRANCH  10  19
BRANCH   7  25
ATOM     25  O   UNL     1       5.485   2.485  -2.518  0.00  0.00    -0.388 OA
ATOM     26  H   UNL     1       6.023   2.352  -1.725  0.00  0.00    +0.210 HD
ENDBRANCH   7  25
BRANCH  14  27
ATOM     27  C   UNL     1       1.275   3.513   0.022  0.00  0.00    +0.233 C 
ATOM     28  O   UNL     1       1.758   4.147  -0.885  0.00  0.00    -0.300 OA
ENDBRANCH  14  27
BRANCH  13  29
ATOM     29  O   UNL     1       1.427   1.968   2.428  0.00  0.00    -0.387 OA
ATOM     30  H   UNL     1       1.853   1.701   3.254  0.00  0.00    +0.210 HD
ENDBRANCH  13  29
BRANCH  17  31
ATOM     31  O   UNL     1       0.087  -0.139   2.434  0.00  0.00    -0.348 OA
BRANCH  31  32
ATOM     32  N   UNL     1      -0.958  -1.000   2.848  0.00  0.00    +0.218 N 
ATOM     33  O   UNL     1      -1.200  -2.011   2.214  0.00  0.00    -0.090 OA
ATOM     34  O   UNL     1      -1.615  -0.729   3.837  0.00  0.00    -0.090 OA
ENDBRANCH  31  32
ENDBRANCH  17  31
TORSDOF 6
