REMARK  Name = ZINC65399071
REMARK  10 active torsions:
REMARK  status: ('A' for Active; 'I' for Inactive)
REMARK    1  A    between atoms: C_1  and  C_2
REMARK    2  A    between atoms: C_2  and  N_3
REMARK    3  A    between atoms: C_4  and  C_10
REMARK    4  A    between atoms: C_10  and  C_11
REMARK    5  A    between atoms: C_17  and  C_19
REMARK    6  A    between atoms: C_19  and  C_21
REMARK    7  A    between atoms: C_19  and  N_22
REMARK    8  A    between atoms: C_26  and  C_27
REMARK    9  A    between atoms: C_27  and  C_28
REMARK   10  A    between atoms: C_27  and  C_29
REMARK                            x       y       z     vdW  Elec       q    Type
REMARK                         _______ _______ _______ _____ _____    ______ ____
ROOT
ATOM      1  C   UNL     1      -2.179  -1.180   3.750  0.00  0.00    -0.001 C 
ATOM      2  C   UNL     1      -2.488  -2.669   3.571  0.00  0.00    +0.023 C 
ATOM      3  C   UNL     1      -3.795  -3.006   4.296  0.00  0.00    +0.108 C 
ATOM      4  N   UNL     1      -3.682  -2.577   5.697  0.00  0.00    -0.300 N 
ATOM      5  C   UNL     1      -3.301  -1.187   5.982  0.00  0.00    +0.108 C 
ATOM      6  C   UNL     1      -2.000  -0.870   5.238  0.00  0.00    +0.023 C 
ATOM      7  C   UNL     1      -3.925  -3.443   6.702  0.00  0.00    +0.238 C 
ATOM      8  O   UNL     1      -3.765  -3.096   7.853  0.00  0.00    -0.273 OA
ENDROOT
BRANCH   7   9
ATOM      9  C   UNL     1      -4.394  -4.841   6.394  0.00  0.00    +0.171 C 
ATOM     10  C   UNL     1      -5.794  -4.786   5.780  0.00  0.00    +0.041 C 
BRANCH   9  11
ATOM     11  N   UNL     1      -4.434  -5.626   7.631  0.00  0.00    -0.324 N 
ATOM     12  C   UNL     1      -5.187  -5.354   8.741  0.00  0.00    +0.105 A 
ATOM     13  C   UNL     1      -4.923  -6.323   9.638  0.00  0.00    +0.101 A 
ATOM     14  N   UNL     1      -4.033  -7.163   9.091  0.00  0.00    -0.349 N 
ATOM     15  C   UNL     1      -3.739  -6.755   7.887  0.00  0.00    +0.090 A 
ATOM     16  H   UNL     1      -3.668  -7.953   9.521  0.00  0.00    +0.166 HD
BRANCH  15  17
ATOM     17  C   UNL     1      -2.780  -7.429   6.940  0.00  0.00    +0.047 C 
ATOM     18  C   UNL     1      -1.625  -8.042   7.734  0.00  0.00    +0.015 C 
ATOM     19  C   UNL     1      -3.512  -8.531   6.172  0.00  0.00    +0.015 C 
ENDBRANCH  15  17
ENDBRANCH   9  11
ENDBRANCH   7   9
BRANCH   1  20
ATOM     20  C   UNL     1      -0.893  -0.832   2.998  0.00  0.00    +0.080 C 
BRANCH  20  22
ATOM     21  N   UNL     1      -0.171  -0.802   0.539  0.00  0.00    -0.280 N 
ATOM     22  C   UNL     1      -1.109  -1.021   1.519  0.00  0.00    +0.134 A 
ATOM     23  H   UNL     1      -2.657  -1.725  -1.092  0.00  0.00    +0.194 HD
ATOM     24  N   UNL     1      -2.209  -1.416   0.963  0.00  0.00    -0.156 NA
ATOM     25  N   UNL     1      -2.005  -1.464  -0.423  0.00  0.00    -0.227 N 
ATOM     26  C   UNL     1      -0.735  -1.072  -0.655  0.00  0.00    +0.344 A 
ATOM     27  O   UNL     1      -0.195  -0.982  -1.744  0.00  0.00    -0.245 OA
BRANCH  21  29
ATOM     28  C   UNL     1       1.246   1.182   0.727  0.00  0.00    +0.027 C 
ATOM     29  C   UNL     1       1.204  -0.347   0.756  0.00  0.00    +0.125 C 
ENDBRANCH  21  29
ENDBRANCH  20  22
ENDBRANCH   1  20
TORSDOF 6
