REMARK  Name = ZINC38995278
REMARK  6 active torsions:
REMARK  status: ('A' for Active; 'I' for Inactive)
REMARK    1  A    between atoms: C_1  and  N_2
REMARK    2  A    between atoms: N_2  and  C_3
REMARK    3  A    between atoms: N_2  and  C_4
REMARK    4  A    between atoms: C_7  and  C_10
REMARK    5  A    between atoms: N_16  and  N_17
REMARK    6  A    between atoms: C_18  and  C_19
REMARK                            x       y       z     vdW  Elec       q    Type
REMARK                         _______ _______ _______ _____ _____    ______ ____
ROOT
ATOM      1  C   UNL     1      -0.142  -2.925  -5.133  0.00  0.00    +0.264 C 
ATOM      2  N   UNL     1       0.433  -4.272  -5.268  0.00  0.00    -0.189 NA
ATOM      3  N   UNL     1       1.277  -4.241  -6.167  0.00  0.00    -0.219 N 
ATOM      4  C   UNL     1       1.412  -3.014  -6.739  0.00  0.00    +0.174 C 
ATOM      5  S   UNL     1       2.495  -2.639  -8.010  0.00  0.00    -0.015 S 
ATOM      6  N   UNL     1       0.564  -2.132  -6.157  0.00  0.00    -0.172 N 
ATOM      7  H   UNL     1       1.794  -5.015  -6.439  0.00  0.00    +0.176 HD
ENDROOT
BRANCH   1  11
ATOM      8  C   UNL     1       0.616  -1.352  -1.232  0.00  0.00    +0.029 A 
ATOM      9  C   UNL     1       0.411  -2.715  -1.406  0.00  0.00    +0.023 A 
ATOM     10  C   UNL     1       0.166  -3.220  -2.667  0.00  0.00    +0.009 A 
ATOM     11  C   UNL     1       0.124  -2.370  -3.758  0.00  0.00    -0.002 A 
ATOM     12  C   UNL     1       0.328  -1.013  -3.589  0.00  0.00    +0.009 A 
ATOM     13  C   UNL     1       0.568  -0.501  -2.329  0.00  0.00    +0.023 A 
BRANCH   8  15
ATOM     14  C   UNL     1       1.073   0.601   0.224  0.00  0.00    +0.129 C 
ATOM     15  N   UNL     1       0.863  -0.838   0.042  0.00  0.00    -0.336 N 
ATOM     16  C   UNL     1       0.913  -1.737   1.198  0.00  0.00    +0.129 C 
ENDBRANCH   8  15
ENDBRANCH   1  11
BRANCH   6  17
ATOM     17  N   UNL     1       0.394  -0.775  -6.458  0.00  0.00    -0.183 NA
ATOM     18  C   UNL     1       1.188  -0.193  -7.305  0.00  0.00    +0.141 C 
BRANCH  18  19
ATOM     19  C   UNL     1       0.914   1.186  -7.746  0.00  0.00    +0.031 A 
ATOM     20  C   UNL     1      -0.198   1.874  -7.250  0.00  0.00    +0.051 A 
ATOM     21  C   UNL     1      -0.449   3.166  -7.668  0.00  0.00    +0.021 A 
ATOM     22  C   UNL     1       0.397   3.780  -8.575  0.00  0.00    +0.003 A 
ATOM     23  C   UNL     1       1.499   3.105  -9.071  0.00  0.00    +0.021 A 
ATOM     24  C   UNL     1       1.766   1.815  -8.658  0.00  0.00    +0.051 A 
ATOM     25 CL   UNL     1       3.154   0.975  -9.275  0.00  0.00    -0.083 Cl
ATOM     26 CL   UNL     1      -1.260   1.106  -6.112  0.00  0.00    -0.083 Cl
ENDBRANCH  18  19
ENDBRANCH   6  17
TORSDOF 4
