REMARK  Name = ZINC20548082
REMARK  7 active torsions:
REMARK  status: ('A' for Active; 'I' for Inactive)
REMARK    1  A    between atoms: C_1  and  C_2
REMARK    2  A    between atoms: C_6  and  N_8
REMARK    3  A    between atoms: C_13  and  C_35
REMARK    4  A    between atoms: C_16  and  C_21
REMARK    5  A    between atoms: C_16  and  C_32
REMARK    6  A    between atoms: C_21  and  C_22
REMARK    7  A    between atoms: C_40  and  O_41
REMARK                            x       y       z     vdW  Elec       q    Type
REMARK                         _______ _______ _______ _____ _____    ______ ____
ROOT
ATOM      1  N   UNL     1      -5.383   1.049   1.715  0.00  0.00    -0.210 N 
ATOM      2  C   UNL     1      -4.282   1.787   1.536  0.00  0.00    +0.229 C 
ATOM      3  O   UNL     1      -4.252   2.998   1.476  0.00  0.00    -0.275 OA
ATOM      4  C   UNL     1      -3.080   0.876   1.421  0.00  0.00    +0.077 C 
ATOM      5  C   UNL     1      -2.541   0.928  -0.023  0.00  0.00    -0.023 C 
ATOM      6  N   UNL     1      -2.306  -0.492  -0.391  0.00  0.00    +0.396 N 
ATOM      7  C   UNL     1      -3.463  -1.216   0.199  0.00  0.00    +0.052 C 
ATOM      8  C   UNL     1      -3.691  -0.543   1.568  0.00  0.00    +0.086 C 
ATOM      9  C   UNL     1      -5.168  -0.271   1.749  0.00  0.00    +0.229 C 
ATOM     10  O   UNL     1      -6.022  -1.117   1.901  0.00  0.00    -0.275 OA
ATOM     11  H   UNL     1      -2.275  -0.586  -1.487  0.00  0.00    -0.083 HD
ATOM     12  H   UNL     1      -1.349  -0.828   0.033  0.00  0.00    -0.083 HD
ENDROOT
BRANCH   1  18
ATOM     13  C   UNL     1      -8.559   3.740   4.334  0.00  0.00    +0.044 C 
ATOM     14  C   UNL     1      -8.225   2.921   3.115  0.00  0.00    -0.049 A 
ATOM     15  C   UNL     1      -9.178   2.724   2.132  0.00  0.00    +0.003 A 
ATOM     16  C   UNL     1      -8.875   1.972   1.012  0.00  0.00    +0.002 A 
ATOM     17  C   UNL     1      -7.619   1.416   0.871  0.00  0.00    +0.024 A 
ATOM     18  C   UNL     1      -6.660   1.612   1.855  0.00  0.00    +0.044 A 
ATOM     19  C   UNL     1      -6.969   2.363   2.982  0.00  0.00    +0.027 A 
ENDBRANCH   1  18
BRANCH   5  20
ATOM     20  C   UNL     1      -1.249   1.703  -0.073  0.00  0.00    -0.019 A 
ATOM     21  C   UNL     1      -0.041   1.034  -0.078  0.00  0.00    +0.005 A 
ATOM     22  C   UNL     1       1.144   1.744  -0.130  0.00  0.00    +0.000 A 
ATOM     23  C   UNL     1       1.123   3.126  -0.173  0.00  0.00    +0.004 A 
ATOM     24  C   UNL     1      -0.083   3.800  -0.162  0.00  0.00    +0.045 A 
ATOM     25  C   UNL     1      -1.273   3.090  -0.110  0.00  0.00    +0.118 A 
BRANCH  25  26
ATOM     26  O   UNL     1      -2.460   3.751  -0.099  0.00  0.00    -0.507 OA
ATOM     27  H   UNL     1      -2.478   4.850  -0.127  0.00  0.00    +0.292 HD
ENDBRANCH  25  26
ENDBRANCH   5  20
BRANCH   7  28
ATOM     28  C   UNL     1      -3.135  -2.676   0.379  0.00  0.00    +0.347 C 
ATOM     29  O   UNL     1      -3.508  -3.261   1.368  0.00  0.00    -0.248 OA
ATOM     30  O   UNL     1      -2.430  -3.326  -0.560  0.00  0.00    -0.248 OA
ENDBRANCH   7  28
BRANCH   7  31
ATOM     31  C   UNL     1      -4.699  -1.053  -0.688  0.00  0.00    +0.037 C 
BRANCH  31  32
ATOM     32  C   UNL     1      -4.454  -1.717  -2.019  0.00  0.00    -0.023 A 
ATOM     33  C   UNL     1      -4.011  -1.122  -3.138  0.00  0.00    +0.087 A 
ATOM     34  N   UNL     1      -3.910  -2.042  -4.146  0.00  0.00    -0.360 N 
ATOM     35  H   UNL     1      -3.561  -1.730  -5.142  0.00  0.00    +0.165 HD
ATOM     36  C   UNL     1      -4.295  -3.282  -3.689  0.00  0.00    +0.047 A 
ATOM     37  C   UNL     1      -4.646  -3.134  -2.334  0.00  0.00    +0.003 A 
ATOM     38  C   UNL     1      -5.076  -4.242  -1.601  0.00  0.00    +0.010 A 
ATOM     39  C   UNL     1      -5.149  -5.466  -2.203  0.00  0.00    +0.001 A 
ATOM     40  C   UNL     1      -4.800  -5.618  -3.538  0.00  0.00    +0.002 A 
ATOM     41  C   UNL     1      -4.381  -4.537  -4.282  0.00  0.00    +0.026 A 
ENDBRANCH  31  32
ENDBRANCH   7  31
TORSDOF 6
