REMARK  Name = ZINC66858763
REMARK  7 active torsions:
REMARK  status: ('A' for Active; 'I' for Inactive)
REMARK    1  A    between atoms: C_1  and  N_2
REMARK    2  A    between atoms: C_8  and  C_10
REMARK    3  A    between atoms: C_10  and  C_11
REMARK    4  A    between atoms: C_17  and  C_19
REMARK    5  A    between atoms: C_19  and  C_20
REMARK    6  A    between atoms: C_20  and  N_21
REMARK    7  A    between atoms: C_22  and  C_24
REMARK                            x       y       z     vdW  Elec       q    Type
REMARK                         _______ _______ _______ _____ _____    ______ ____
ROOT
ATOM      1  C   UNL     1       3.665  -5.151   0.951  0.00  0.00    +0.001 C 
ATOM      2  C   UNL     1       4.866  -4.518   0.243  0.00  0.00    +0.023 C 
ATOM      3  C   UNL     1       5.891  -5.607  -0.086  0.00  0.00    +0.108 C 
ATOM      4  N   UNL     1       6.229  -6.327   1.150  0.00  0.00    -0.301 N 
ATOM      5  C   UNL     1       5.141  -6.898   1.955  0.00  0.00    +0.108 C 
ATOM      6  C   UNL     1       4.124  -5.794   2.262  0.00  0.00    +0.023 C 
ATOM      7  C   UNL     1       7.513  -6.463   1.536  0.00  0.00    +0.217 C 
ATOM      8  O   UNL     1       8.403  -5.987   0.863  0.00  0.00    -0.276 OA
ENDROOT
BRANCH   1   9
ATOM      9  C   UNL     1       2.623  -4.072   1.250  0.00  0.00    +0.099 C 
BRANCH   9  17
ATOM     10  C   UNL     1      -0.018   1.465   0.010  0.00  0.00    -0.096 C 
ATOM     11  N   UNL     1       0.002  -0.004   0.002  0.00  0.00    +0.380 N 
ATOM     12  C   UNL     1       0.680  -0.476  -1.212  0.00  0.00    -0.060 C 
ATOM     13  C   UNL     1       0.601  -2.005  -1.279  0.00  0.00    +0.089 C 
ATOM     14  N   UNL     1       1.144  -2.555  -0.027  0.00  0.00    -0.305 N 
ATOM     15  C   UNL     1       0.635  -2.018   1.245  0.00  0.00    +0.089 C 
ATOM     16  C   UNL     1       0.713  -0.489   1.192  0.00  0.00    -0.060 C 
ATOM     17  C   UNL     1       2.081  -3.523  -0.045  0.00  0.00    +0.216 C 
ATOM     18  O   UNL     1       2.489  -3.954  -1.103  0.00  0.00    -0.276 OA
ATOM     19  H   UNL     1      -0.945  -0.352   0.012  0.00  0.00    -0.082 HD
ENDBRANCH   9  17
ENDBRANCH   1   9
BRANCH   7  20
ATOM     20  C   UNL     1       7.844  -7.204   2.806  0.00  0.00    +0.114 C 
BRANCH  20  21
ATOM     21  C   UNL     1       9.360  -7.212   3.012  0.00  0.00    +0.113 C 
BRANCH  21  22
ATOM     22  N   UNL     1       9.681  -7.933   4.246  0.00  0.00    -0.315 N 
ATOM     23  C   UNL     1      10.966  -8.068   4.633  0.00  0.00    +0.216 C 
ATOM     24  O   UNL     1      11.855  -7.593   3.959  0.00  0.00    -0.276 OA
ATOM     25  H   UNL     1       8.970  -8.313   4.785  0.00  0.00    +0.149 HD
BRANCH  23  26
ATOM     26  C   UNL     1      11.296  -8.809   5.903  0.00  0.00    +0.075 C 
ATOM     27  C   UNL     1      10.684  -8.079   7.116  0.00  0.00    +0.013 C 
ATOM     28  C   UNL     1      11.743  -8.244   8.233  0.00  0.00    +0.001 C 
ATOM     29  C   UNL     1      13.079  -8.104   7.461  0.00  0.00    +0.001 C 
ATOM     30  C   UNL     1      12.819  -8.825   6.122  0.00  0.00    +0.013 C 
ENDBRANCH  23  26
ENDBRANCH  21  22
ENDBRANCH  20  21
ENDBRANCH   7  20
TORSDOF 6
