REMARK  Name = ZINC17157793
REMARK  6 active torsions:
REMARK  status: ('A' for Active; 'I' for Inactive)
REMARK    1  A    between atoms: C_1  and  C_2
REMARK    2  A    between atoms: C_5  and  S_8
REMARK    3  A    between atoms: S_8  and  N_11
REMARK    4  A    between atoms: C_15  and  C_17
REMARK    5  A    between atoms: N_19  and  N_20
REMARK    6  A    between atoms: C_21  and  C_23
REMARK                            x       y       z     vdW  Elec       q    Type
REMARK                         _______ _______ _______ _____ _____    ______ ____
ROOT
ATOM      1  C   UNL     1       3.442  -3.792  -3.995  0.00  0.00    +0.248 C 
ATOM      2  O   UNL     1       2.721  -4.672  -3.574  0.00  0.00    -0.273 OA
ATOM      3  N   UNL     1       3.461  -2.588  -3.390  0.00  0.00    -0.233 N 
ATOM      4  H   UNL     1       4.115  -1.791  -3.773  0.00  0.00    +0.173 HD
ENDROOT
BRANCH   1   9
ATOM      5  N   UNL     1       4.627  -5.480  -5.294  0.00  0.00    -0.165 NA
ATOM      6  C   UNL     1       4.085  -5.994  -6.566  0.00  0.00    +0.110 C 
ATOM      7  C   UNL     1       3.994  -4.754  -7.488  0.00  0.00    +0.019 C 
ATOM      8  C   UNL     1       3.570  -3.646  -6.485  0.00  0.00    +0.031 C 
ATOM      9  C   UNL     1       4.317  -4.046  -5.196  0.00  0.00    +0.167 C 
BRANCH   5  10
ATOM     10  S   UNL     1       5.448  -6.370  -4.165  0.00  0.00    +0.062 S 
ATOM     11  O   UNL     1       5.411  -5.626  -2.955  0.00  0.00    -0.153 OA
ATOM     12  O   UNL     1       4.953  -7.699  -4.257  0.00  0.00    -0.153 OA
BRANCH  10  17
ATOM     13  C   UNL     1      11.224  -6.558  -5.899  0.00  0.00    +0.044 C 
ATOM     14  C   UNL     1       9.782  -6.512  -5.465  0.00  0.00    -0.050 A 
ATOM     15  C   UNL     1       9.359  -5.544  -4.574  0.00  0.00    +0.005 A 
ATOM     16  C   UNL     1       8.036  -5.501  -4.177  0.00  0.00    +0.029 A 
ATOM     17  C   UNL     1       7.135  -6.426  -4.671  0.00  0.00    +0.106 A 
ATOM     18  C   UNL     1       7.559  -7.397  -5.559  0.00  0.00    +0.029 A 
ATOM     19  C   UNL     1       8.881  -7.437  -5.959  0.00  0.00    +0.005 A 
ENDBRANCH  10  17
ENDBRANCH   5  10
ENDBRANCH   1   9
BRANCH   3  20
ATOM     20  N   UNL     1       2.647  -2.352  -2.275  0.00  0.00    -0.234 N 
ATOM     21  C   UNL     1       2.666  -1.148  -1.670  0.00  0.00    +0.235 C 
ATOM     22  O   UNL     1       3.387  -0.269  -2.091  0.00  0.00    -0.274 OA
ATOM     23  H   UNL     1       1.993  -3.149  -1.892  0.00  0.00    +0.173 HD
BRANCH  21  24
ATOM     24  C   UNL     1       1.790  -0.894  -0.470  0.00  0.00    +0.049 C 
ATOM     25  C   UNL     1       0.323  -1.090  -0.858  0.00  0.00    +0.019 C 
ATOM     26  C   UNL     1      -0.566  -0.832   0.361  0.00  0.00    -0.009 C 
ATOM     27  C   UNL     1      -0.355   0.602   0.851  0.00  0.00    +0.007 C 
ATOM     28  C   UNL     1       1.112   0.798   1.239  0.00  0.00    -0.009 C 
ATOM     29  C   UNL     1       2.001   0.540   0.021  0.00  0.00    +0.019 C 
ATOM     30  C   UNL     1       1.480  -0.182   2.355  0.00  0.00    +0.007 C 
ATOM     31  C   UNL     1       1.269  -1.616   1.865  0.00  0.00    -0.009 C 
ATOM     32  C   UNL     1      -0.198  -1.812   1.477  0.00  0.00    +0.007 C 
ATOM     33  C   UNL     1       2.158  -1.874   0.646  0.00  0.00    +0.019 C 
ENDBRANCH  21  24
ENDBRANCH   3  20
TORSDOF 5
