REMARK  Name = ZINC39370603
REMARK  8 active torsions:
REMARK  status: ('A' for Active; 'I' for Inactive)
REMARK    1  A    between atoms: C_1  and  C_2
REMARK    2  A    between atoms: C_4  and  N_8
REMARK    3  A    between atoms: C_9  and  C_11
REMARK    4  A    between atoms: C_11  and  N_12
REMARK    5  A    between atoms: N_12  and  C_13
REMARK    6  A    between atoms: C_16  and  C_19
REMARK    7  A    between atoms: C_19  and  C_20
REMARK    8  A    between atoms: C_19  and  C_21
REMARK                            x       y       z     vdW  Elec       q    Type
REMARK                         _______ _______ _______ _____ _____    ______ ____
ROOT
ATOM      1  N   UNL     1      -2.300  -6.252  -1.997  0.00  0.00    -0.273 N 
ATOM      2  C   UNL     1      -1.520  -7.370  -2.199  0.00  0.00    +0.136 C 
ATOM      3  N   UNL     1      -0.233  -7.408  -2.405  0.00  0.00    -0.362 N 
ATOM      4  C   UNL     1       0.445  -8.680  -2.674  0.00  0.00    +0.117 C 
ATOM      5  C   UNL     1       0.556  -8.793  -4.216  0.00  0.00    +0.191 C 
ATOM      6  S   UNL     1       0.377 -10.591  -4.526  0.00  0.00    -0.028 S 
ATOM      7  O   UNL     1      -0.601 -10.788  -5.538  0.00  0.00    -0.174 OA
ATOM      8  O   UNL     1       1.669 -11.161  -4.684  0.00  0.00    -0.174 OA
ATOM      9  C   UNL     1      -0.318 -11.129  -2.916  0.00  0.00    +0.182 C 
ATOM     10  C   UNL     1      -0.396  -9.843  -2.102  0.00  0.00    +0.099 C 
ATOM     11  S   UNL     1      -2.058  -9.074  -2.227  0.00  0.00    -0.085 S 
ATOM     12  H   UNL     1       0.281  -6.586  -2.379  0.00  0.00    +0.162 HD
ENDROOT
BRANCH   1  13
ATOM     13  C   UNL     1      -3.646  -6.393  -1.644  0.00  0.00    +0.036 A 
ATOM     14  C   UNL     1      -3.989  -6.915  -0.404  0.00  0.00    +0.024 A 
ATOM     15  C   UNL     1      -5.319  -7.053  -0.058  0.00  0.00    +0.006 A 
ATOM     16  C   UNL     1      -6.309  -6.672  -0.946  0.00  0.00    -0.045 A 
ATOM     17  C   UNL     1      -5.970  -6.152  -2.182  0.00  0.00    +0.006 A 
ATOM     18  C   UNL     1      -4.642  -6.005  -2.531  0.00  0.00    +0.024 A 
BRANCH  16  19
ATOM     19  C   UNL     1      -7.759  -6.824  -0.566  0.00  0.00    +0.013 C 
ATOM     20  C   UNL     1      -8.439  -5.454  -0.590  0.00  0.00    +0.012 C 
ATOM     21  C   UNL     1      -8.452  -7.755  -1.563  0.00  0.00    +0.012 C 
ENDBRANCH  16  19
ENDBRANCH   1  13
BRANCH   1  22
ATOM     22  C   UNL     1      -1.719  -4.916  -2.151  0.00  0.00    +0.208 C 
BRANCH  22  24
ATOM     23  N   UNL     1      -0.572  -3.247  -0.732  0.00  0.00    -0.288 N 
ATOM     24  C   UNL     1      -1.160  -4.455  -0.830  0.00  0.00    +0.233 C 
ATOM     25  O   UNL     1      -1.238  -5.173   0.145  0.00  0.00    -0.274 OA
ATOM     26  H   UNL     1      -0.509  -2.673  -1.511  0.00  0.00    +0.151 HD
BRANCH  23  30
ATOM     27  C   UNL     1       0.886   0.763   1.167  0.00  0.00    +0.067 C 
ATOM     28  C   UNL     1       0.741  -0.713   0.903  0.00  0.00    +0.060 C 
ATOM     29  C   UNL     1      -0.425  -1.360   0.831  0.00  0.00    +0.045 C 
ATOM     30  C   UNL     1      -0.028  -2.799   0.553  0.00  0.00    +0.239 C 
ATOM     31  N   UNL     1       1.442  -2.734   0.506  0.00  0.00    -0.160 NA
ATOM     32  N   UNL     1       1.774  -1.562   0.701  0.00  0.00    -0.157 NA
ENDBRANCH  23  30
ENDBRANCH  22  24
ENDBRANCH   1  22
TORSDOF 5
