REMARK  Name = ZINC18191098
REMARK  6 active torsions:
REMARK  status: ('A' for Active; 'I' for Inactive)
REMARK    1  A    between atoms: C_2  and  C_18
REMARK    2  A    between atoms: C_3  and  N_17
REMARK    3  A    between atoms: C_5  and  S_9
REMARK    4  A    between atoms: C_6  and  C_7
REMARK    5  A    between atoms: S_9  and  C_10
REMARK    6  A    between atoms: C_10  and  C_11
REMARK                            x       y       z     vdW  Elec       q    Type
REMARK                         _______ _______ _______ _____ _____    ______ ____
ROOT
ATOM      1  C   UNL     1       3.537   3.719  -0.012  0.00  0.00    +0.043 A 
ATOM      2  C   UNL     1       4.409   2.627  -0.026  0.00  0.00    +0.092 A 
ATOM      3  C   UNL     1       3.875   1.323  -0.028  0.00  0.00    +0.135 A 
ATOM      4  N   UNL     1       2.566   1.127  -0.016  0.00  0.00    -0.224 NA
ATOM      5  C   UNL     1       1.708   2.135  -0.003  0.00  0.00    +0.117 A 
ATOM      6  C   UNL     1       2.163   3.470  -0.006  0.00  0.00    +0.085 A 
ENDROOT
BRANCH   3   7
ATOM      7  N   UNL     1       4.727   0.237  -0.042  0.00  0.00    -0.342 N 
ATOM      8  H   UNL     1       4.366  -0.663  -0.044  0.00  0.00    +0.144 HD
ATOM      9  H   UNL     1       5.687   0.375  -0.051  0.00  0.00    +0.144 HD
ENDBRANCH   3   7
BRANCH   6  10
ATOM     10  C   UNL     1       1.229   4.555   0.003  0.00  0.00    +0.102 C 
ATOM     11  N   UNL     1       0.488   5.416   0.009  0.00  0.00    -0.191 NA
ENDBRANCH   6  10
BRANCH   2  12
ATOM     12  C   UNL     1       5.826   2.830  -0.038  0.00  0.00    +0.103 C 
ATOM     13  N   UNL     1       6.951   2.991  -0.047  0.00  0.00    -0.191 NA
ENDBRANCH   2  12
BRANCH   5  14
ATOM     14  S   UNL     1      -0.022   1.806   0.012  0.00  0.00    -0.098 S 
BRANCH  14  15
ATOM     15  C   UNL     1       0.002  -0.004   0.002  0.00  0.00    +0.138 C 
BRANCH  15  16
ATOM     16  C   UNL     1      -1.412  -0.526   0.013  0.00  0.00    +0.136 A 
ATOM     17  C   UNL     1      -2.224  -0.815  -1.167  0.00  0.00    +0.184 A 
ATOM     18  N   UNL     1      -3.389  -1.249  -0.768  0.00  0.00    -0.034 NA
ATOM     19  O   UNL     1      -3.382  -1.259   0.649  0.00  0.00    -0.241 OA
ATOM     20  N   UNL     1      -2.111  -0.799   1.072  0.00  0.00    -0.051 NA
ATOM     21  N   UNL     1      -1.823  -0.655  -2.490  0.00  0.00    -0.339 N 
ATOM     22  H   UNL     1      -0.934  -0.325  -2.691  0.00  0.00    +0.144 HD
ATOM     23  H   UNL     1      -2.434  -0.874  -3.211  0.00  0.00    +0.144 HD
ENDBRANCH  15  16
ENDBRANCH  14  15
ENDBRANCH   5  14
TORSDOF 6
