REMARK  Name = ZINC02763990
REMARK  5 active torsions:
REMARK  status: ('A' for Active; 'I' for Inactive)
REMARK    1  A    between atoms: C_1  and  O_2
REMARK    2  A    between atoms: O_2  and  C_3
REMARK    3  A    between atoms: C_7  and  C_10
REMARK    4  A    between atoms: C_8  and  O_9
REMARK    5  A    between atoms: N_11  and  N_12
REMARK                            x       y       z     vdW  Elec       q    Type
REMARK                         _______ _______ _______ _____ _____    ______ ____
ROOT
ATOM      1  C   UNL     1      -0.017  -4.220  -0.020  0.00  0.00    +0.163 A 
ATOM      2  C   UNL     1       1.199  -4.888  -0.036  0.00  0.00    +0.063 A 
ATOM      3  C   UNL     1       2.386  -4.176  -0.043  0.00  0.00    +0.018 A 
ATOM      4  C   UNL     1       2.372  -2.797  -0.036  0.00  0.00    +0.027 A 
ATOM      5  C   UNL     1       1.154  -2.111  -0.020  0.00  0.00    +0.041 A 
ATOM      6  C   UNL     1      -0.046  -2.831  -0.007  0.00  0.00    +0.167 A 
ATOM      7  I   UNL     1       4.214  -5.200  -0.067  0.00  0.00    -0.044 I 
ENDROOT
BRANCH   1   9
ATOM      8  C   UNL     1      -1.074  -6.351  -0.020  0.00  0.00    +0.277 C 
ATOM      9  O   UNL     1      -1.179  -4.925  -0.012  0.00  0.00    -0.491 OA
ENDBRANCH   1   9
BRANCH   6  10
ATOM     10  O   UNL     1      -1.236  -2.174   0.014  0.00  0.00    -0.503 OA
ATOM     11  H   UNL     1      -1.593  -1.979  -0.864  0.00  0.00    +0.292 HD
ENDBRANCH   6  10
BRANCH   5  12
ATOM     12  C   UNL     1       1.135  -0.637  -0.012  0.00  0.00    +0.142 C 
ATOM     13  N   UNL     1       0.002  -0.004   0.002  0.00  0.00    -0.186 NA
BRANCH  13  14
ATOM     14  N   UNL     1      -0.017   1.397   0.010  0.00  0.00    -0.191 N 
ATOM     15  C   UNL     1      -1.193   2.055   0.019  0.00  0.00    +0.317 C 
ATOM     16  O   UNL     1      -1.210   3.271   0.026  0.00  0.00    -0.251 OA
ATOM     17  N   UNL     1      -2.351   1.365   0.021  0.00  0.00    -0.312 N 
ATOM     18  H   UNL     1       0.816   1.893   0.004  0.00  0.00    +0.179 HD
ATOM     19  H   UNL     1      -2.338   0.395   0.015  0.00  0.00    +0.147 HD
ATOM     20  H   UNL     1      -3.198   1.839   0.027  0.00  0.00    +0.147 HD
ENDBRANCH  13  14
ENDBRANCH   5  12
TORSDOF 4
