REMARK  Name = ZINC17820215
REMARK  5 active torsions:
REMARK  status: ('A' for Active; 'I' for Inactive)
REMARK    1  A    between atoms: C_1  and  N_2
REMARK    2  A    between atoms: C_10  and  O_25
REMARK    3  A    between atoms: C_12  and  C_15
REMARK    4  A    between atoms: C_17  and  O_24
REMARK    5  A    between atoms: C_20  and  N_21
REMARK                            x       y       z     vdW  Elec       q    Type
REMARK                         _______ _______ _______ _____ _____    ______ ____
ROOT
ATOM      1  C   UNL     1       0.639   1.452   0.360  0.00  0.00    -0.096 C 
ATOM      2  N   UNL     1       0.536  -0.012   0.286  0.00  0.00    +0.381 N 
ATOM      3  C   UNL     1      -0.880  -0.402   0.273  0.00  0.00    -0.074 C 
ATOM      4  C   UNL     1      -1.018  -1.878  -0.115  0.00  0.00    +0.018 C 
ATOM      5  C   UNL     1      -0.104  -2.689   0.793  0.00  0.00    -0.027 A 
ATOM      6  C   UNL     1       0.885  -2.071   1.484  0.00  0.00    -0.021 A 
ATOM      7  S   UNL     1       1.678  -3.369   2.390  0.00  0.00    -0.080 S 
ATOM      8  C   UNL     1       0.758  -4.655   1.889  0.00  0.00    +0.080 A 
ATOM      9  C   UNL     1      -0.185  -4.120   1.003  0.00  0.00    +0.067 A 
ATOM     10  C   UNL     1      -1.149  -5.062   0.378  0.00  0.00    +0.220 C 
ATOM     11  N   UNL     1      -1.224  -6.269   0.872  0.00  0.00    -0.223 NA
ATOM     12  C   UNL     1      -0.476  -6.734   2.033  0.00  0.00    +0.226 C 
ATOM     13  N   UNL     1       0.790  -5.997   2.194  0.00  0.00    -0.313 N 
ATOM     14  C   UNL     1       1.204  -0.611   1.456  0.00  0.00    -0.036 C 
ATOM     15  H   UNL     1       1.601  -6.433   2.498  0.00  0.00    +0.149 HD
ATOM     16  H   UNL     1       0.981  -0.338  -0.558  0.00  0.00    -0.082 HD
ENDROOT
BRANCH  12  17
ATOM     17  C   UNL     1      -1.317  -6.542   3.269  0.00  0.00    +0.028 A 
ATOM     18  C   UNL     1      -2.317  -5.590   3.282  0.00  0.00    +0.055 A 
ATOM     19  C   UNL     1      -3.091  -5.413   4.420  0.00  0.00    +0.117 A 
ATOM     20  C   UNL     1      -2.857  -6.195   5.542  0.00  0.00    +0.047 A 
ATOM     21  C   UNL     1      -1.855  -7.146   5.524  0.00  0.00    +0.037 A 
ATOM     22  C   UNL     1      -1.089  -7.323   4.386  0.00  0.00    +0.133 A 
BRANCH  22  23
ATOM     23  N   UNL     1      -0.021  -8.347   4.367  0.00  0.00    +0.057 N 
ATOM     24  O   UNL     1       0.107  -9.104   5.301  0.00  0.00    -0.126 OA
ATOM     25  O   UNL     1       0.723  -8.427   3.418  0.00  0.00    -0.126 OA
ENDBRANCH  22  23
BRANCH  19  26
ATOM     26  O   UNL     1      -4.075  -4.477   4.435  0.00  0.00    -0.507 OA
ATOM     27  H   UNL     1      -4.936  -4.806   4.142  0.00  0.00    +0.292 HD
ENDBRANCH  19  26
ENDBRANCH  12  17
BRANCH  10  28
ATOM     28  O   UNL     1      -1.921  -4.684  -0.667  0.00  0.00    -0.492 OA
ATOM     29  H   UNL     1      -2.510  -5.379  -0.993  0.00  0.00    +0.294 HD
ENDBRANCH  10  28
TORSDOF 4
