REMARK  Name = ZINC63168819
REMARK  7 active torsions:
REMARK  status: ('A' for Active; 'I' for Inactive)
REMARK    1  A    between atoms: C_1  and  C_2
REMARK    2  A    between atoms: C_2  and  N_3
REMARK    3  A    between atoms: C_7  and  C_9
REMARK    4  A    between atoms: C_9  and  N_10
REMARK    5  A    between atoms: C_15  and  C_17
REMARK    6  A    between atoms: C_17  and  N_18
REMARK    7  A    between atoms: N_18  and  C_19
REMARK                            x       y       z     vdW  Elec       q    Type
REMARK                         _______ _______ _______ _____ _____    ______ ____
ROOT
ATOM      1  C   UNL     1       2.428  -3.966  -4.075  0.00  0.00    +0.181 C 
ENDROOT
BRANCH   1   6
ATOM      2  N   UNL     1       1.000  -0.211  -1.434  0.00  0.00    -0.299 N 
ATOM      3  C   UNL     1       1.078  -1.547  -1.598  0.00  0.00    +0.306 C 
ATOM      4  O   UNL     1       0.606  -2.290  -0.759  0.00  0.00    -0.252 OA
ATOM      5  N   UNL     1       1.678  -2.058  -2.690  0.00  0.00    -0.239 N 
ATOM      6  C   UNL     1       1.756  -3.394  -2.854  0.00  0.00    +0.234 C 
ATOM      7  O   UNL     1       1.286  -4.135  -2.018  0.00  0.00    -0.274 OA
ATOM      8  H   UNL     1       1.376   0.382  -2.103  0.00  0.00    +0.150 HD
ATOM      9  H   UNL     1       2.055  -1.465  -3.359  0.00  0.00    +0.159 HD
BRANCH   2  11
ATOM     10  C   UNL     1       0.395   1.873  -0.307  0.00  0.00    +0.024 C 
ATOM     11  C   UNL     1       0.347   0.345  -0.247  0.00  0.00    +0.102 C 
ENDBRANCH   2  11
ENDBRANCH   1   6
BRANCH   1  12
ATOM     12  N   UNL     1       2.382  -5.433  -4.018  0.00  0.00    -0.293 NA
ATOM     13  C   UNL     1       3.297  -5.949  -2.992  0.00  0.00    +0.085 C 
ATOM     14  C   UNL     1       3.118  -7.463  -2.860  0.00  0.00    +0.015 C 
ATOM     15  C   UNL     1       3.407  -8.126  -4.209  0.00  0.00    +0.003 C 
ATOM     16  C   UNL     1       2.473  -7.537  -5.269  0.00  0.00    +0.017 C 
ATOM     17  C   UNL     1       2.671  -6.021  -5.332  0.00  0.00    +0.040 C 
BRANCH  17  18
ATOM     18  C   UNL     1       1.725  -5.425  -6.377  0.00  0.00    -0.064 C 
BRANCH  18  19
ATOM     19  N   UNL     1       0.336  -5.593  -5.930  0.00  0.00    +0.378 N 
ATOM     20  C   UNL     1      -0.576  -5.126  -6.984  0.00  0.00    -0.100 C 
ATOM     21  H   UNL     1       0.159  -6.567  -5.740  0.00  0.00    -0.086 HD
ATOM     22  H   UNL     1       0.185  -5.053  -5.091  0.00  0.00    -0.086 HD
ENDBRANCH  18  19
ENDBRANCH  17  18
ENDBRANCH   1  12
TORSDOF 5
