REMARK  Name = ZINC45104568
REMARK  9 active torsions:
REMARK  status: ('A' for Active; 'I' for Inactive)
REMARK    1  A    between atoms: C_1  and  N_2
REMARK    2  A    between atoms: N_2  and  C_3
REMARK    3  A    between atoms: N_2  and  C_4
REMARK    4  A    between atoms: C_4  and  C_5
REMARK    5  A    between atoms: C_10  and  C_11
REMARK    6  A    between atoms: C_11  and  N_12
REMARK    7  A    between atoms: N_15  and  N_16
REMARK    8  A    between atoms: C_17  and  C_19
REMARK    9  A    between atoms: C_19  and  C_20
REMARK                            x       y       z     vdW  Elec       q    Type
REMARK                         _______ _______ _______ _____ _____    ______ ____
ROOT
ATOM      1  N   UNL     1      -2.581  -2.051   2.574  0.00  0.00    -0.294 N 
ATOM      2  C   UNL     1      -2.708  -1.488   3.792  0.00  0.00    +0.316 C 
ATOM      3  O   UNL     1      -1.746  -1.415   4.532  0.00  0.00    -0.251 OA
ATOM      4  N   UNL     1      -3.902  -1.006   4.190  0.00  0.00    -0.218 N 
ATOM      5  H   UNL     1      -3.349  -2.110   1.984  0.00  0.00    +0.151 HD
ATOM      6  H   UNL     1      -3.993  -0.600   5.067  0.00  0.00    +0.174 HD
ENDROOT
BRANCH   4   7
ATOM      7  N   UNL     1      -5.011  -1.089   3.338  0.00  0.00    -0.233 N 
ATOM      8  C   UNL     1      -6.204  -0.607   3.736  0.00  0.00    +0.230 C 
ATOM      9  O   UNL     1      -6.319  -0.100   4.832  0.00  0.00    -0.274 OA
ATOM     10  H   UNL     1      -4.919  -1.495   2.462  0.00  0.00    +0.173 HD
BRANCH   8  11
ATOM     11  C   UNL     1      -7.397  -0.697   2.820  0.00  0.00    +0.104 C 
BRANCH  11  12
ATOM     12  C   UNL     1      -8.617  -0.082   3.508  0.00  0.00    -0.020 C 
ATOM     13  C   UNL     1      -8.910  -0.842   4.803  0.00  0.00    +0.011 C 
ATOM     14  C   UNL     1     -10.130  -0.226   5.491  0.00  0.00    -0.010 C 
ATOM     15  C   UNL     1     -11.341  -0.318   4.560  0.00  0.00    +0.007 C 
ATOM     16  C   UNL     1     -11.048   0.443   3.265  0.00  0.00    -0.010 C 
ATOM     17  C   UNL     1      -9.828  -0.173   2.577  0.00  0.00    +0.011 C 
ATOM     18  C   UNL     1     -10.764   1.911   3.590  0.00  0.00    +0.007 C 
ATOM     19  C   UNL     1      -9.553   2.002   4.520  0.00  0.00    -0.010 C 
ATOM     20  C   UNL     1      -9.846   1.242   5.815  0.00  0.00    +0.007 C 
ATOM     21  C   UNL     1      -8.333   1.387   3.832  0.00  0.00    +0.011 C 
ENDBRANCH  11  12
ENDBRANCH   8  11
ENDBRANCH   4   7
BRANCH   1  22
ATOM     22  C   UNL     1      -1.283  -2.576   2.142  0.00  0.00    +0.141 C 
BRANCH  22  28
ATOM     23  C   UNL     1      -1.270  -2.100  -0.315  0.00  0.00    -0.059 A 
ATOM     24  C   UNL     1      -1.350  -2.512  -1.633  0.00  0.00    +0.002 A 
ATOM     25  C   UNL     1      -1.541  -3.849  -1.928  0.00  0.00    +0.000 A 
ATOM     26  C   UNL     1      -1.652  -4.773  -0.906  0.00  0.00    +0.000 A 
ATOM     27  C   UNL     1      -1.572  -4.361   0.411  0.00  0.00    +0.005 A 
ATOM     28  C   UNL     1      -1.376  -3.025   0.706  0.00  0.00    -0.029 A 
BRANCH  23  29
ATOM     29  C   UNL     1      -1.062  -0.642   0.007  0.00  0.00    -0.043 C 
BRANCH  29  31
ATOM     30  C   UNL     1      -2.134   1.358   0.783  0.00  0.00    -0.096 C 
ATOM     31  N   UNL     1      -2.353  -0.024   0.335  0.00  0.00    +0.379 N 
ATOM     32  C   UNL     1      -3.212  -0.022  -0.856  0.00  0.00    -0.096 C 
ATOM     33  H   UNL     1      -2.800  -0.549   1.072  0.00  0.00    -0.082 HD
ENDBRANCH  29  31
ENDBRANCH  23  29
ENDBRANCH  22  28
ENDBRANCH   1  22
TORSDOF 7
