REMARK  Name = ZINC31057533
REMARK  8 active torsions:
REMARK  status: ('A' for Active; 'I' for Inactive)
REMARK    1  A    between atoms: C_1  and  C_2
REMARK    2  A    between atoms: C_5  and  C_8
REMARK    3  A    between atoms: C_8  and  C_10
REMARK    4  A    between atoms: C_8  and  N_16
REMARK    5  A    between atoms: C_17  and  C_19
REMARK    6  A    between atoms: N_24  and  C_26
REMARK    7  A    between atoms: C_26  and  C_27
REMARK    8  A    between atoms: C_29  and  C_32
REMARK                            x       y       z     vdW  Elec       q    Type
REMARK                         _______ _______ _______ _____ _____    ______ ____
ROOT
ATOM      1  N   UNL     1      -1.127   5.816   0.932  0.00  0.00    -0.304 N 
ATOM      2  C   UNL     1      -0.881   5.940   2.252  0.00  0.00    +0.215 C 
ATOM      3  O   UNL     1       0.214   5.664   2.693  0.00  0.00    -0.276 OA
ATOM      4  H   UNL     1      -2.120   6.066   0.531  0.00  0.00    +0.150 HD
ENDROOT
BRANCH   2   5
ATOM      5  C   UNL     1      -1.968   6.422   3.178  0.00  0.00    +0.058 C 
ATOM      6  C   UNL     1      -2.418   7.823   2.752  0.00  0.00    +0.009 C 
ATOM      7  C   UNL     1      -3.479   8.329   3.734  0.00  0.00    -0.018 C 
ATOM      8  C   UNL     1      -2.898   8.329   5.149  0.00  0.00    -0.078 C 
ATOM      9  N   UNL     1      -2.483   6.968   5.510  0.00  0.00    +0.386 N 
ATOM     10  C   UNL     1      -1.431   6.478   4.610  0.00  0.00    -0.065 C 
ATOM     11  H   UNL     1      -3.357   6.309   5.394  0.00  0.00    -0.081 HD
BRANCH   9  12
ATOM     12  C   UNL     1      -2.049   6.903   6.912  0.00  0.00    +0.022 C 
BRANCH  12  13
ATOM     13  C   UNL     1      -3.225   7.170   7.815  0.00  0.00    +0.211 A 
ATOM     14  N   UNL     1      -4.053   6.277   8.296  0.00  0.00    -0.192 NA
ATOM     15  C   UNL     1      -4.939   6.971   9.050  0.00  0.00    +0.209 A 
ATOM     16  N   UNL     1      -4.602   8.235   8.973  0.00  0.00    -0.056 NA
ATOM     17  O   UNL     1      -3.622   8.363   8.269  0.00  0.00    -0.340 OA
BRANCH  15  18
ATOM     18  C   UNL     1      -6.074   6.410   9.810  0.00  0.00    +0.060 A 
ATOM     19  C   UNL     1      -6.998   7.059  10.586  0.00  0.00    +0.019 A 
ATOM     20  C   UNL     1      -7.980   6.318  11.204  0.00  0.00    +0.008 A 
ATOM     21  C   UNL     1      -7.998   4.970  11.035  0.00  0.00    +0.046 A 
ATOM     22  S   UNL     1      -6.594   4.709   9.964  0.00  0.00    -0.093 S 
ENDBRANCH  15  18
ENDBRANCH  12  13
ENDBRANCH   9  12
ENDBRANCH   2   5
BRANCH   1  23
ATOM     23  C   UNL     1      -0.070   5.347   0.032  0.00  0.00    +0.134 C 
BRANCH  23  28
ATOM     24  C   UNL     1      -1.093   7.291  -5.313  0.00  0.00    +0.044 C 
ATOM     25  C   UNL     1      -0.826   6.784  -3.920  0.00  0.00    -0.050 A 
ATOM     26  C   UNL     1       0.465   6.764  -3.427  0.00  0.00    +0.004 A 
ATOM     27  C   UNL     1       0.710   6.299  -2.148  0.00  0.00    +0.006 A 
ATOM     28  C   UNL     1      -0.337   5.854  -1.362  0.00  0.00    -0.023 A 
ATOM     29  C   UNL     1      -1.628   5.869  -1.857  0.00  0.00    +0.006 A 
ATOM     30  C   UNL     1      -1.873   6.338  -3.134  0.00  0.00    +0.004 A 
ENDBRANCH  23  28
BRANCH  23  31
ATOM     31  C   UNL     1      -0.050   3.840   0.023  0.00  0.00    -0.023 A 
ATOM     32  C   UNL     1       1.156   3.165   0.008  0.00  0.00    +0.006 A 
ATOM     33  C   UNL     1       1.175   1.783   0.000  0.00  0.00    +0.000 A 
ATOM     34  C   UNL     1      -0.013   1.076   0.008  0.00  0.00    +0.000 A 
ATOM     35  C   UNL     1      -1.219   1.751   0.017  0.00  0.00    +0.000 A 
ATOM     36  C   UNL     1      -1.238   3.133   0.030  0.00  0.00    +0.006 A 
ENDBRANCH  23  31
ENDBRANCH   1  23
TORSDOF 7
