REMARK  Name = ZINC39682566
REMARK  8 active torsions:
REMARK  status: ('A' for Active; 'I' for Inactive)
REMARK    1  A    between atoms: C_1  and  C_2
REMARK    2  A    between atoms: C_5  and  C_9
REMARK    3  A    between atoms: C_6  and  C_8
REMARK    4  A    between atoms: C_13  and  C_22
REMARK    5  A    between atoms: N_24  and  C_25
REMARK    6  A    between atoms: C_25  and  C_27
REMARK    7  A    between atoms: C_25  and  C_31
REMARK    8  A    between atoms: C_27  and  C_28
REMARK                            x       y       z     vdW  Elec       q    Type
REMARK                         _______ _______ _______ _____ _____    ______ ____
ROOT
ATOM      1  C   UNL     1      -0.184  -3.499  -0.787  0.00  0.00    +0.247 C 
ATOM      2  O   UNL     1      -0.355  -3.994   0.310  0.00  0.00    -0.270 OA
ATOM      3  N   UNL     1      -0.033  -4.292  -1.867  0.00  0.00    -0.296 N 
ATOM      4  C   UNL     1       0.287  -3.884  -3.255  0.00  0.00    +0.121 C 
ATOM      5  C   UNL     1       1.266  -4.965  -3.764  0.00  0.00    +0.100 C 
ATOM      6  C   UNL     1       0.974  -6.199  -2.895  0.00  0.00    -0.004 C 
ATOM      7  C   UNL     1      -0.142  -5.769  -1.933  0.00  0.00    +0.115 C 
ATOM      8  C   UNL     1       0.504  -7.360  -3.766  0.00  0.00    -0.010 C 
ATOM      9  C   UNL     1       0.276  -8.593  -2.886  0.00  0.00    -0.082 C 
ATOM     10  N   UNL     1       1.525  -8.944  -2.200  0.00  0.00    +0.379 N 
ATOM     11  C   UNL     1       1.921  -7.860  -1.294  0.00  0.00    -0.082 C 
ATOM     12  C   UNL     1       2.219  -6.596  -2.106  0.00  0.00    -0.010 C 
ATOM     13  H   UNL     1       1.389  -9.791  -1.669  0.00  0.00    -0.086 HD
ATOM     14  H   UNL     1       2.253  -9.092  -2.884  0.00  0.00    -0.086 HD
ENDROOT
BRANCH   1  19
ATOM     15  C   UNL     1      -0.019   2.223  -1.370  0.00  0.00    +0.044 C 
ATOM     16  C   UNL     1      -0.062   0.725  -1.218  0.00  0.00    -0.050 A 
ATOM     17  C   UNL     1      -0.781  -0.039  -2.120  0.00  0.00    +0.004 A 
ATOM     18  C   UNL     1      -0.825  -1.411  -1.986  0.00  0.00    +0.013 A 
ATOM     19  C   UNL     1      -0.141  -2.029  -0.937  0.00  0.00    +0.040 A 
ATOM     20  C   UNL     1       0.582  -1.253  -0.030  0.00  0.00    -0.038 A 
ATOM     21  C   UNL     1       0.622   0.118  -0.179  0.00  0.00    +0.007 A 
ATOM     22  C   UNL     1       1.323  -1.911   1.105  0.00  0.00    +0.044 C 
ENDBRANCH   1  19
BRANCH   5  23
ATOM     23  C   UNL     1       2.691  -4.512  -3.576  0.00  0.00    +0.219 C 
ATOM     24  O   UNL     1       2.990  -3.833  -2.616  0.00  0.00    -0.275 OA
ATOM     25  N   UNL     1       3.634  -4.862  -4.473  0.00  0.00    -0.308 N 
ATOM     26  H   UNL     1       3.383  -5.345  -5.276  0.00  0.00    +0.149 HD
BRANCH  25  27
ATOM     27  C   UNL     1       5.037  -4.512  -4.237  0.00  0.00    +0.114 C 
BRANCH  27  28
ATOM     28  C   UNL     1       5.270  -3.077  -4.635  0.00  0.00    -0.027 A 
ATOM     29  C   UNL     1       4.669  -2.568  -5.771  0.00  0.00    +0.005 A 
ATOM     30  C   UNL     1       4.883  -1.252  -6.136  0.00  0.00    +0.000 A 
ATOM     31  C   UNL     1       5.699  -0.445  -5.364  0.00  0.00    +0.000 A 
ATOM     32  C   UNL     1       6.300  -0.954  -4.228  0.00  0.00    +0.000 A 
ATOM     33  C   UNL     1       6.082  -2.269  -3.861  0.00  0.00    +0.005 A 
ENDBRANCH  27  28
BRANCH  27  34
ATOM     34  C   UNL     1       5.938  -5.425  -5.070  0.00  0.00    +0.152 C 
BRANCH  34  35
ATOM     35  C   UNL     1       5.811  -6.843  -4.575  0.00  0.00    +0.358 C 
ATOM     36  O   UNL     1       5.040  -7.105  -3.667  0.00  0.00    -0.246 OA
ATOM     37  O   UNL     1       6.478  -7.728  -5.083  0.00  0.00    -0.246 OA
ENDBRANCH  34  35
ENDBRANCH  27  34
ENDBRANCH  25  27
ENDBRANCH   5  23
TORSDOF 6
