REMARK  Name = ZINC11865364
REMARK  8 active torsions:
REMARK  status: ('A' for Active; 'I' for Inactive)
REMARK    1  A    between atoms: C_1  and  C_2
REMARK    2  A    between atoms: C_4  and  C_30
REMARK    3  A    between atoms: C_6  and  S_10
REMARK    4  A    between atoms: C_7  and  C_8
REMARK    5  A    between atoms: S_10  and  C_11
REMARK    6  A    between atoms: C_11  and  C_12
REMARK    7  A    between atoms: C_20  and  O_29
REMARK    8  A    between atoms: C_21  and  C_23
REMARK                            x       y       z     vdW  Elec       q    Type
REMARK                         _______ _______ _______ _____ _____    ______ ____
ROOT
ATOM      1  C   UNL     1       2.417   3.928   0.000  0.00  0.00    -0.020 A 
ATOM      2  C   UNL     1       3.573   3.215  -0.015  0.00  0.00    +0.097 A 
ATOM      3  C   UNL     1       3.527   1.805  -0.022  0.00  0.00    +0.338 A 
ATOM      4  O   UNL     1       4.571   1.177  -0.036  0.00  0.00    -0.245 OA
ATOM      5  O   UNL     1       2.363   1.137  -0.015  0.00  0.00    -0.422 OA
ATOM      6  C   UNL     1       1.178   1.785   0.000  0.00  0.00    +0.140 A 
ATOM      7  C   UNL     1       1.150   3.192   0.008  0.00  0.00    +0.025 A 
ATOM      8  C   UNL     1      -0.073   3.872   0.023  0.00  0.00    +0.058 A 
ATOM      9  C   UNL     1      -1.253   3.158   0.030  0.00  0.00    +0.125 A 
ATOM     10  C   UNL     1      -1.226   1.755   0.017  0.00  0.00    +0.027 A 
ATOM     11  C   UNL     1      -0.013   1.076   0.008  0.00  0.00    +0.059 A 
ENDROOT
BRANCH  10  12
ATOM     12  C   UNL     1      -2.497   0.993   0.019  0.00  0.00    -0.014 A 
ATOM     13  C   UNL     1      -2.706  -0.022  -0.914  0.00  0.00    +0.008 A 
ATOM     14  C   UNL     1      -3.889  -0.731  -0.904  0.00  0.00    +0.001 A 
ATOM     15  C   UNL     1      -4.873  -0.429   0.021  0.00  0.00    +0.000 A 
ATOM     16  C   UNL     1      -4.674   0.581   0.945  0.00  0.00    +0.001 A 
ATOM     17  C   UNL     1      -3.492   1.293   0.949  0.00  0.00    +0.008 A 
ENDBRANCH  10  12
BRANCH   9  18
ATOM     18  O   UNL     1      -2.443   3.813   0.045  0.00  0.00    -0.506 OA
ATOM     19  H   UNL     1      -2.796   4.008  -0.834  0.00  0.00    +0.292 HD
ENDBRANCH   9  18
BRANCH   1  20
ATOM     20  C   UNL     1       2.438   5.435   0.007  0.00  0.00    +0.112 C 
BRANCH  20  21
ATOM     21  S   UNL     1       2.462   6.029   1.717  0.00  0.00    -0.100 S 
BRANCH  21  27
ATOM     22  C   UNL     1       2.544  11.020   3.416  0.00  0.00    +0.045 C 
ATOM     23  C   UNL     1       2.520  10.031   2.279  0.00  0.00    -0.029 A 
ATOM     24  C   UNL     1       2.514  10.461   0.964  0.00  0.00    +0.027 A 
ATOM     25  C   UNL     1       2.492   9.530  -0.058  0.00  0.00    +0.040 A 
ATOM     26  N   UNL     1       2.477   8.236   0.196  0.00  0.00    -0.244 NA
ATOM     27  C   UNL     1       2.483   7.769   1.436  0.00  0.00    +0.115 A 
ATOM     28  C   UNL     1       2.499   8.654   2.528  0.00  0.00    +0.086 A 
ATOM     29  C   UNL     1       2.485  10.002  -1.489  0.00  0.00    +0.065 C 
BRANCH  28  30
ATOM     30  C   UNL     1       2.499   8.156   3.871  0.00  0.00    +0.102 C 
ATOM     31  N   UNL     1       2.499   7.760   4.936  0.00  0.00    -0.191 NA
ENDBRANCH  28  30
ENDBRANCH  21  27
ENDBRANCH  20  21
ENDBRANCH   1  20
TORSDOF 6
