REMARK  Name = ZINC08951258
REMARK  8 active torsions:
REMARK  status: ('A' for Active; 'I' for Inactive)
REMARK    1  A    between atoms: C_1  and  C_2
REMARK    2  A    between atoms: C_5  and  C_9
REMARK    3  A    between atoms: C_6  and  C_8
REMARK    4  A    between atoms: C_9  and  S_10
REMARK    5  A    between atoms: S_10  and  C_11
REMARK    6  A    between atoms: C_21  and  C_22
REMARK    7  A    between atoms: C_21  and  N_66
REMARK    8  A    between atoms: N_30  and  C_31
REMARK                            x       y       z     vdW  Elec       q    Type
REMARK                         _______ _______ _______ _____ _____    ______ ____
ROOT
ATOM      1  C   UNL     1       3.932   6.892  -7.640  0.00  0.00    +0.178 A 
ATOM      2  N   UNL     1       2.734   6.689  -7.109  0.00  0.00    -0.215 NA
ATOM      3  C   UNL     1       2.664   5.897  -6.047  0.00  0.00    +0.117 A 
ATOM      4  C   UNL     1       3.784   5.266  -5.457  0.00  0.00    +0.076 A 
ATOM      5  C   UNL     1       3.510   4.436  -4.298  0.00  0.00    -0.026 A 
ATOM      6  C   UNL     1       2.218   4.349  -3.902  0.00  0.00    -0.021 A 
ATOM      7  S   UNL     1       1.314   5.362  -5.043  0.00  0.00    -0.075 S 
ATOM      8  C   UNL     1       1.691   3.560  -2.745  0.00  0.00    -0.035 C 
ATOM      9  C   UNL     1       4.024   3.297  -2.158  0.00  0.00    -0.073 C 
ATOM     10  C   UNL     1       4.589   3.677  -3.529  0.00  0.00    +0.018 C 
ATOM     11  C   UNL     1       5.063   5.508  -6.057  0.00  0.00    +0.268 A 
ATOM     12  O   UNL     1       6.087   5.009  -5.621  0.00  0.00    -0.267 OA
ATOM     13  N   UNL     1       5.065   6.323  -7.137  0.00  0.00    -0.255 N 
ATOM     14  N   UNL     1       2.738   2.594  -2.337  0.00  0.00    +0.386 N 
ATOM     15  H   UNL     1       2.844   1.884  -3.071  0.00  0.00    -0.081 HD
ENDROOT
BRANCH  13  16
ATOM     16  C   UNL     1       6.287   6.597  -7.766  0.00  0.00    +0.052 A 
ATOM     17  C   UNL     1       7.049   7.684  -7.362  0.00  0.00    +0.026 A 
ATOM     18  C   UNL     1       8.256   7.948  -7.981  0.00  0.00    +0.002 A 
ATOM     19  C   UNL     1       8.699   7.136  -9.009  0.00  0.00    +0.000 A 
ATOM     20  C   UNL     1       7.939   6.056  -9.418  0.00  0.00    +0.002 A 
ATOM     21  C   UNL     1       6.735   5.784  -8.799  0.00  0.00    +0.026 A 
ENDBRANCH  13  16
BRANCH   1  22
ATOM     22  S   UNL     1       4.066   7.937  -9.052  0.00  0.00    -0.083 S 
BRANCH  22  23
ATOM     23  C   UNL     1       2.328   8.391  -9.272  0.00  0.00    +0.112 C 
BRANCH  23  28
ATOM     24  C   UNL     1       1.818  11.916 -13.823  0.00  0.00    +0.044 C 
ATOM     25  C   UNL     1       1.951  10.997 -12.636  0.00  0.00    -0.050 A 
ATOM     26  C   UNL     1       1.856   9.629 -12.808  0.00  0.00    +0.003 A 
ATOM     27  C   UNL     1       1.978   8.786 -11.719  0.00  0.00    +0.005 A 
ATOM     28  C   UNL     1       2.195   9.311 -10.459  0.00  0.00    -0.034 A 
ATOM     29  C   UNL     1       2.285  10.679 -10.287  0.00  0.00    -0.046 A 
ATOM     30  C   UNL     1       2.169  11.522 -11.376  0.00  0.00    +0.007 A 
ATOM     31  C   UNL     1       2.517  11.252  -8.912  0.00  0.00    +0.044 C 
ENDBRANCH  23  28
ENDBRANCH  22  23
ENDBRANCH   1  22
BRANCH  14  32
ATOM     32  C   UNL     1       2.347   1.926  -1.076  0.00  0.00    -0.043 C 
BRANCH  32  33
ATOM     33  C   UNL     1       0.923   1.445  -1.192  0.00  0.00    -0.064 A 
ATOM     34  C   UNL     1       0.658   0.186  -1.696  0.00  0.00    +0.002 A 
ATOM     35  C   UNL     1      -0.647  -0.256  -1.803  0.00  0.00    +0.000 A 
ATOM     36  C   UNL     1      -1.688   0.564  -1.409  0.00  0.00    +0.000 A 
ATOM     37  C   UNL     1      -1.423   1.822  -0.899  0.00  0.00    +0.000 A 
ATOM     38  C   UNL     1      -0.117   2.263  -0.793  0.00  0.00    +0.002 A 
ENDBRANCH  32  33
ENDBRANCH  14  32
TORSDOF 6
