REMARK  Name = ZINC08188005
REMARK  6 active torsions:
REMARK  status: ('A' for Active; 'I' for Inactive)
REMARK    1  A    between atoms: C_1  and  C_2
REMARK    2  A    between atoms: C_2  and  C_4
REMARK    3  A    between atoms: C_2  and  N_11
REMARK    4  A    between atoms: C_12  and  C_14
REMARK    5  A    between atoms: C_14  and  S_15
REMARK    6  A    between atoms: S_15  and  C_16
REMARK                            x       y       z     vdW  Elec       q    Type
REMARK                         _______ _______ _______ _____ _____    ______ ____
ROOT
ATOM      1  S   UNL     1       4.633  -1.292  -1.797  0.00  0.00    -0.057 S 
ENDROOT
BRANCH   1   2
ATOM      2  C   UNL     1       5.404  -1.875  -3.271  0.00  0.00    +0.274 C 
ATOM      3  N   UNL     1       4.795  -2.125  -4.394  0.00  0.00    -0.135 NA
ATOM      4  N   UNL     1       5.760  -2.567  -5.313  0.00  0.00    -0.202 N 
ATOM      5  C   UNL     1       6.943  -2.558  -4.670  0.00  0.00    +0.218 C 
ATOM      6  C   UNL     1       8.187  -2.928  -5.213  0.00  0.00    +0.061 C 
ATOM      7  C   UNL     1       8.453  -3.370  -6.521  0.00  0.00    +0.125 C 
ATOM      8  N   UNL     1       9.735  -3.619  -6.649  0.00  0.00    -0.254 NA
ATOM      9  C   UNL     1      10.413  -3.384  -5.513  0.00  0.00    +0.072 A 
ATOM     10  C   UNL     1       9.493  -2.929  -4.539  0.00  0.00    +0.014 A 
ATOM     11  C   UNL     1       9.935  -2.603  -3.259  0.00  0.00    +0.011 A 
ATOM     12  C   UNL     1      11.261  -2.722  -2.951  0.00  0.00    +0.001 A 
ATOM     13  C   UNL     1      12.171  -3.164  -3.903  0.00  0.00    +0.002 A 
ATOM     14  C   UNL     1      11.765  -3.499  -5.162  0.00  0.00    +0.028 A 
ATOM     15  O   UNL     1       6.720  -2.127  -3.418  0.00  0.00    -0.415 OA
ATOM     16  H   UNL     1       5.604  -2.827  -6.234  0.00  0.00    +0.178 HD
ENDBRANCH   1   2
BRANCH   1  17
ATOM     17  C   UNL     1       2.880  -1.158  -2.243  0.00  0.00    +0.174 C 
BRANCH  17  19
ATOM     18  N   UNL     1       0.764  -0.485  -1.153  0.00  0.00    -0.308 N 
ATOM     19  C   UNL     1       2.096  -0.663  -1.055  0.00  0.00    +0.224 C 
ATOM     20  O   UNL     1       2.665  -0.425  -0.010  0.00  0.00    -0.275 OA
ATOM     21  H   UNL     1       0.310  -0.676  -1.989  0.00  0.00    +0.149 HD
BRANCH  18  23
ATOM     22  C   UNL     1       0.009   1.526   0.016  0.00  0.00    +0.033 C 
ATOM     23  C   UNL     1       0.002  -0.004   0.002  0.00  0.00    +0.102 C 
BRANCH  23  24
ATOM     24  C   UNL     1      -1.418  -0.499  -0.092  0.00  0.00    -0.009 A 
ATOM     25  C   UNL     1      -1.976  -0.770  -1.327  0.00  0.00    +0.007 A 
ATOM     26  C   UNL     1      -3.279  -1.224  -1.413  0.00  0.00    +0.000 A 
ATOM     27  C   UNL     1      -4.025  -1.407  -0.264  0.00  0.00    +0.001 A 
ATOM     28  C   UNL     1      -3.468  -1.137   0.972  0.00  0.00    +0.020 A 
ATOM     29  C   UNL     1      -2.162  -0.688   1.059  0.00  0.00    +0.046 A 
ATOM     30 CL   UNL     1      -1.461  -0.354   2.611  0.00  0.00    -0.083 Cl
ENDBRANCH  23  24
ENDBRANCH  18  23
ENDBRANCH  17  19
ENDBRANCH   1  17
TORSDOF 5
