REMARK  Name = ZINC43426135
REMARK  3 active torsions:
REMARK  status: ('A' for Active; 'I' for Inactive)
REMARK    1  A    between atoms: C_3  and  N_12
REMARK    2  A    between atoms: C_4  and  C_10
REMARK    3  A    between atoms: C_6  and  N_7
REMARK                            x       y       z     vdW  Elec       q    Type
REMARK                         _______ _______ _______ _____ _____    ______ ____
ROOT
ATOM      1  C   UNL     1      -0.017   1.378   0.010  0.00  0.00    +0.034 A 
ATOM      2  C   UNL     1       1.169   2.087   0.002  0.00  0.00    +0.025 A 
ATOM      3  C   UNL     1       2.381   1.409  -0.013  0.00  0.00    +0.035 A 
ATOM      4  C   UNL     1       2.396   0.020  -0.021  0.00  0.00    -0.010 A 
ATOM      5  C   UNL     1       1.207  -0.682  -0.013  0.00  0.00    +0.039 A 
ATOM      6  C   UNL     1       0.002  -0.004   0.002  0.00  0.00    +0.127 A 
ENDROOT
BRANCH   3   7
ATOM      7  N   UNL     1       3.582   2.122  -0.021  0.00  0.00    -0.322 N 
ATOM      8  C   UNL     1       4.204   2.512  -1.296  0.00  0.00    +0.133 C 
ATOM      9  C   UNL     1       4.533   4.009  -1.210  0.00  0.00    +0.179 C 
ATOM     10  O   UNL     1       5.340   4.230  -0.055  0.00  0.00    -0.373 OA
ATOM     11  C   UNL     1       4.710   3.952   1.196  0.00  0.00    +0.139 C 
ATOM     12  C   UNL     1       4.226   2.491   1.235  0.00  0.00    +0.102 C 
ATOM     13  C   UNL     1       5.502   1.665   1.462  0.00  0.00    +0.025 C 
ATOM     14  C   UNL     1       6.518   2.612   2.129  0.00  0.00    +0.004 C 
ATOM     15  C   UNL     1       5.818   3.966   2.285  0.00  0.00    +0.033 C 
ENDBRANCH   3   7
BRANCH   6  16
ATOM     16  N   UNL     1      -1.270  -0.760   0.010  0.00  0.00    +0.056 N 
ATOM     17  O   UNL     1      -2.325  -0.168   0.023  0.00  0.00    -0.126 OA
ATOM     18  O   UNL     1      -1.256  -1.969   0.004  0.00  0.00    -0.126 OA
ENDBRANCH   6  16
BRANCH   4  19
ATOM     19  C   UNL     1       3.709  -0.720  -0.038  0.00  0.00    +0.145 C 
ATOM     20 CL   UNL     1       4.250  -1.025   1.655  0.00  0.00    -0.120 Cl
ENDBRANCH   4  19
TORSDOF 3
