REMARK  Name = ZINC37171498
REMARK  11 active torsions:
REMARK  status: ('A' for Active; 'I' for Inactive)
REMARK    1  A    between atoms: C_1  and  C_2
REMARK    2  A    between atoms: C_2  and  C_4
REMARK    3  A    between atoms: C_2  and  N_11
REMARK    4  A    between atoms: C_12  and  C_14
REMARK    5  A    between atoms: C_14  and  N_15
REMARK    6  A    between atoms: N_15  and  C_16
REMARK    7  A    between atoms: N_15  and  C_27
REMARK    8  A    between atoms: C_16  and  C_17
REMARK    9  A    between atoms: C_20  and  C_23
REMARK   10  A    between atoms: N_25  and  C_26
REMARK   11  A    between atoms: C_27  and  C_28
REMARK                            x       y       z     vdW  Elec       q    Type
REMARK                         _______ _______ _______ _____ _____    ______ ____
ROOT
ATOM      1  N   UNL     1      -4.030  -1.113  -2.706  0.00  0.00    +0.393 N 
ATOM      2  H   UNL     1      -4.043  -0.172  -3.069  0.00  0.00    -0.080 HD
ENDROOT
BRANCH   1   3
ATOM      3  C   UNL     1      -3.302  -1.135  -1.430  0.00  0.00    +0.020 C 
BRANCH   3   5
ATOM      4  N   UNL     1      -1.077  -0.464  -0.584  0.00  0.00    -0.310 N 
ATOM      5  C   UNL     1      -1.929  -0.547  -1.625  0.00  0.00    +0.197 C 
ATOM      6  O   UNL     1      -1.589  -0.149  -2.719  0.00  0.00    -0.278 OA
ATOM      7  H   UNL     1      -1.349  -0.783   0.291  0.00  0.00    +0.149 HD
BRANCH   4   9
ATOM      8  C   UNL     1       0.184   1.630  -0.644  0.00  0.00    +0.033 C 
ATOM      9  C   UNL     1       0.258   0.108  -0.773  0.00  0.00    +0.100 C 
BRANCH   9  10
ATOM     10  C   UNL     1       1.192  -0.440   0.275  0.00  0.00    -0.027 A 
ATOM     11  C   UNL     1       0.750  -0.611   1.574  0.00  0.00    +0.006 A 
ATOM     12  C   UNL     1       1.606  -1.113   2.535  0.00  0.00    +0.015 A 
ATOM     13  C   UNL     1       2.906  -1.445   2.198  0.00  0.00    +0.018 A 
ATOM     14  C   UNL     1       3.349  -1.274   0.899  0.00  0.00    +0.015 A 
ATOM     15  C   UNL     1       2.490  -0.776  -0.063  0.00  0.00    +0.006 A 
ATOM     16 BR   UNL     1       4.078  -2.132   3.513  0.00  0.00    -0.050 Br
ENDBRANCH   9  10
ENDBRANCH   4   9
ENDBRANCH   3   5
ENDBRANCH   1   3
BRANCH   1  17
ATOM     17  C   UNL     1      -5.408  -1.575  -2.492  0.00  0.00    -0.042 C 
BRANCH  17  18
ATOM     18  C   UNL     1      -6.137  -0.589  -1.616  0.00  0.00    -0.064 A 
ATOM     19  C   UNL     1      -6.215  -0.806  -0.252  0.00  0.00    +0.002 A 
ATOM     20  C   UNL     1      -6.881   0.092   0.556  0.00  0.00    +0.013 A 
ATOM     21  C   UNL     1      -7.478   1.222  -0.006  0.00  0.00    +0.037 A 
ATOM     22  C   UNL     1      -7.396   1.435  -1.383  0.00  0.00    +0.013 A 
ATOM     23  C   UNL     1      -6.722   0.532  -2.179  0.00  0.00    +0.002 A 
BRANCH  21  24
ATOM     24  C   UNL     1      -8.194   2.189   0.854  0.00  0.00    +0.244 C 
ATOM     25  O   UNL     1      -8.264   2.001   2.053  0.00  0.00    -0.270 OA
ATOM     26  N   UNL     1      -8.769   3.279   0.308  0.00  0.00    -0.314 N 
ATOM     27  C   UNL     1      -9.479   4.236   1.160  0.00  0.00    +0.128 C 
ATOM     28  H   UNL     1      -8.713   3.429  -0.649  0.00  0.00    +0.149 HD
ENDBRANCH  21  24
ENDBRANCH  17  18
ENDBRANCH   1  17
BRANCH   1  29
ATOM     29  C   UNL     1      -3.361  -1.999  -3.667  0.00  0.00    -0.002 C 
BRANCH  29  30
ATOM     30  C   UNL     1      -4.035  -1.885  -5.010  0.00  0.00    +0.089 A 
ATOM     31  C   UNL     1      -3.777  -0.951  -5.943  0.00  0.00    +0.042 A 
ATOM     32  C   UNL     1      -4.632  -1.218  -7.037  0.00  0.00    +0.041 A 
ATOM     33  C   UNL     1      -5.362  -2.298  -6.707  0.00  0.00    +0.195 A 
ATOM     34  O   UNL     1      -4.992  -2.702  -5.480  0.00  0.00    -0.470 OA
ENDBRANCH  29  30
ENDBRANCH   1  29
TORSDOF 9
