REMARK  Name = ZINC29495461
REMARK  7 active torsions:
REMARK  status: ('A' for Active; 'I' for Inactive)
REMARK    1  A    between atoms: C_1  and  C_2
REMARK    2  A    between atoms: C_15  and  C_17
REMARK    3  A    between atoms: C_17  and  S_18
REMARK    4  A    between atoms: S_18  and  C_19
REMARK    5  A    between atoms: N_20  and  C_21
REMARK    6  A    between atoms: C_21  and  C_22
REMARK    7  A    between atoms: C_22  and  C_23
REMARK                            x       y       z     vdW  Elec       q    Type
REMARK                         _______ _______ _______ _____ _____    ______ ____
ROOT
ATOM      1  C   UNL     1      -0.630   2.769   4.274  0.00  0.00    +0.029 C 
ATOM      2  C   UNL     1      -1.388   1.634   3.583  0.00  0.00    +0.087 C 
ATOM      3  C   UNL     1      -1.573   0.468   4.562  0.00  0.00    +0.118 C 
ATOM      4  C   UNL     1      -1.941  -0.787   3.815  0.00  0.00    +0.219 C 
ATOM      5  O   UNL     1      -3.086  -1.186   3.836  0.00  0.00    -0.275 OA
ATOM      6  N   UNL     1      -1.004  -1.470   3.122  0.00  0.00    -0.284 N 
ATOM      7  C   UNL     1       0.298  -0.972   3.008  0.00  0.00    +0.055 A 
ATOM      8  C   UNL     1       1.394  -1.786   3.243  0.00  0.00    +0.025 A 
ATOM      9  C   UNL     1       2.672  -1.288   3.069  0.00  0.00    +0.002 A 
ATOM     10  C   UNL     1       2.860   0.021   2.664  0.00  0.00    +0.002 A 
ATOM     11  C   UNL     1       1.771   0.844   2.438  0.00  0.00    +0.025 A 
ATOM     12  C   UNL     1       0.488   0.355   2.618  0.00  0.00    +0.058 A 
ATOM     13  N   UNL     1      -0.627   1.180   2.417  0.00  0.00    -0.266 N 
ATOM     14  C   UNL     1      -0.988   1.555   1.174  0.00  0.00    +0.230 C 
ATOM     15  O   UNL     1      -1.955   2.269   1.013  0.00  0.00    -0.274 OA
ATOM     16  H   UNL     1      -1.263  -2.426   2.642  0.00  0.00    +0.155 HD
ENDROOT
BRANCH  14  17
ATOM     17  C   UNL     1      -0.192   1.085  -0.016  0.00  0.00    +0.173 C 
BRANCH  17  18
ATOM     18  S   UNL     1      -0.922   1.752  -1.532  0.00  0.00    -0.084 S 
BRANCH  18  19
ATOM     19  C   UNL     1       0.175   1.065  -2.728  0.00  0.00    +0.126 C 
ATOM     20  N   UNL     1       1.168   0.311  -2.345  0.00  0.00    -0.368 N 
ATOM     21  N   UNL     1      -0.016   1.324  -4.065  0.00  0.00    -0.339 N 
ATOM     22  H   UNL     1       0.669   0.895  -4.812  0.00  0.00    +0.144 HD
ATOM     23  H   UNL     1      -0.853   1.960  -4.388  0.00  0.00    +0.144 HD
ATOM     24  H   UNL     1       1.377   0.179  -1.273  0.00  0.00    +0.161 HD
BRANCH  20  25
ATOM     25  C   UNL     1       2.005  -0.360  -3.342  0.00  0.00    +0.119 C 
BRANCH  25  26
ATOM     26  C   UNL     1       1.827  -1.875  -3.221  0.00  0.00    +0.056 C 
BRANCH  26  27
ATOM     27  C   UNL     1       2.688  -2.566  -4.247  0.00  0.00    -0.046 A 
ATOM     28  C   UNL     1       2.179  -2.845  -5.501  0.00  0.00    +0.004 A 
ATOM     29  C   UNL     1       2.971  -3.474  -6.444  0.00  0.00    +0.000 A 
ATOM     30  C   UNL     1       4.268  -3.834  -6.128  0.00  0.00    +0.000 A 
ATOM     31  C   UNL     1       4.775  -3.560  -4.872  0.00  0.00    +0.000 A 
ATOM     32  C   UNL     1       3.985  -2.926  -3.931  0.00  0.00    +0.004 A 
ENDBRANCH  26  27
ENDBRANCH  25  26
ENDBRANCH  20  25
ENDBRANCH  18  19
ENDBRANCH  17  18
ENDBRANCH  14  17
TORSDOF 6
