REMARK  Name = ZINC38600358
REMARK  13 active torsions:
REMARK  status: ('A' for Active; 'I' for Inactive)
REMARK    1  A    between atoms: C_1  and  C_2
REMARK    2  A    between atoms: C_2  and  O_3
REMARK    3  A    between atoms: O_3  and  C_4
REMARK    4  A    between atoms: C_4  and  C_6
REMARK    5  A    between atoms: C_8  and  N_18
REMARK    6  A    between atoms: C_11  and  O_16
REMARK    7  A    between atoms: O_16  and  C_17
REMARK    8  A    between atoms: C_19  and  C_21
REMARK    9  A    between atoms: C_21  and  C_23
REMARK   10  A    between atoms: C_21  and  N_24
REMARK   11  A    between atoms: N_27  and  C_30
REMARK   12  A    between atoms: C_34  and  C_37
REMARK   13  A    between atoms: C_35  and  C_36
REMARK                            x       y       z     vdW  Elec       q    Type
REMARK                         _______ _______ _______ _____ _____    ______ ____
ROOT
ATOM      1  N   UNL     1      -3.657  -1.379  -2.380  0.00  0.00    -0.285 N 
ATOM      2  C   UNL     1      -4.261  -1.621  -3.560  0.00  0.00    +0.234 C 
ATOM      3  O   UNL     1      -4.695  -2.727  -3.803  0.00  0.00    -0.274 OA
ATOM      4  H   UNL     1      -3.385  -0.477  -2.150  0.00  0.00    +0.155 HD
ENDROOT
BRANCH   1   6
ATOM      5  C   UNL     1      -3.905  -3.832  -1.633  0.00  0.00    +0.234 C 
ATOM      6  C   UNL     1      -3.428  -2.403  -1.508  0.00  0.00    +0.053 C 
ATOM      7  C   UNL     1      -2.711  -2.348  -0.326  0.00  0.00    +0.021 A 
ATOM      8  C   UNL     1      -2.025  -1.294   0.327  0.00  0.00    +0.057 A 
ATOM      9  C   UNL     1      -1.391  -1.533   1.505  0.00  0.00    +0.121 A 
ATOM     10  C   UNL     1      -1.398  -2.804   2.097  0.00  0.00    +0.047 A 
ATOM     11  C   UNL     1      -2.033  -3.854   1.526  0.00  0.00    +0.029 A 
ATOM     12  C   UNL     1      -2.718  -3.684   0.294  0.00  0.00    +0.045 A 
ATOM     13  N   UNL     1      -3.399  -4.534  -0.450  0.00  0.00    -0.367 N 
ATOM     14  H   UNL     1      -3.542  -5.472  -0.247  0.00  0.00    +0.161 HD
BRANCH   5  15
ATOM     15  C   UNL     1      -5.412  -3.877  -1.658  0.00  0.00    +0.336 C 
ATOM     16  O   UNL     1      -6.038  -3.712  -0.638  0.00  0.00    -0.248 OA
BRANCH  15  17
ATOM     17  O   UNL     1      -6.058  -4.099  -2.813  0.00  0.00    -0.463 OA
BRANCH  17  19
ATOM     18  C   UNL     1      -8.040  -4.391  -4.165  0.00  0.00    +0.048 C 
ATOM     19  C   UNL     1      -7.486  -4.127  -2.763  0.00  0.00    +0.229 C 
ENDBRANCH  17  19
ENDBRANCH  15  17
ENDBRANCH   5  15
BRANCH   9  20
ATOM     20  O   UNL     1      -0.736  -0.515   2.125  0.00  0.00    -0.495 OA
ATOM     21  C   UNL     1      -0.086  -0.819   3.361  0.00  0.00    +0.277 C 
ENDBRANCH   9  20
ENDBRANCH   1   6
BRANCH   2  22
ATOM     22  C   UNL     1      -4.398  -0.518  -4.577  0.00  0.00    +0.140 C 
ATOM     23  C   UNL     1      -3.008  -0.012  -4.970  0.00  0.00    +0.034 C 
BRANCH  22  24
ATOM     24  N   UNL     1      -5.087  -1.032  -5.768  0.00  0.00    -0.289 NA
ATOM     25  C   UNL     1      -4.327  -2.130  -6.383  0.00  0.00    +0.104 C 
ATOM     26  C   UNL     1      -5.160  -2.756  -7.506  0.00  0.00    +0.120 C 
ATOM     27  N   UNL     1      -5.572  -1.690  -8.432  0.00  0.00    -0.327 N 
ATOM     28  C   UNL     1      -6.217  -0.493  -7.872  0.00  0.00    +0.120 C 
ATOM     29  C   UNL     1      -5.343   0.044  -6.734  0.00  0.00    +0.104 C 
BRANCH  27  30
ATOM     30  C   UNL     1      -5.355  -1.811  -9.807  0.00  0.00    +0.033 A 
ATOM     31  C   UNL     1      -6.325  -2.389 -10.616  0.00  0.00    +0.023 A 
ATOM     32  C   UNL     1      -6.108  -2.506 -11.975  0.00  0.00    +0.002 A 
ATOM     33  C   UNL     1      -4.926  -2.050 -12.530  0.00  0.00    +0.004 A 
ATOM     34  C   UNL     1      -3.959  -1.475 -11.727  0.00  0.00    -0.046 A 
ATOM     35  C   UNL     1      -4.172  -1.348 -10.368  0.00  0.00    -0.027 A 
ATOM     36  C   UNL     1      -3.120  -0.715  -9.495  0.00  0.00    +0.046 C 
ATOM     37  C   UNL     1      -2.672  -0.980 -12.336  0.00  0.00    +0.044 C 
ENDBRANCH  27  30
ENDBRANCH  22  24
ENDBRANCH   2  22
TORSDOF 8
