REMARK  Name = ZINC19661888
REMARK  8 active torsions:
REMARK  status: ('A' for Active; 'I' for Inactive)
REMARK    1  A    between atoms: C_1  and  C_2
REMARK    2  A    between atoms: C_9  and  C_30
REMARK    3  A    between atoms: C_10  and  C_13
REMARK    4  A    between atoms: C_13  and  C_14
REMARK    5  A    between atoms: C_14  and  C_15
REMARK    6  A    between atoms: C_20  and  C_23
REMARK    7  A    between atoms: N_25  and  C_29
REMARK    8  A    between atoms: C_27  and  C_28
REMARK                            x       y       z     vdW  Elec       q    Type
REMARK                         _______ _______ _______ _____ _____    ______ ____
ROOT
ATOM      1  C   UNL     1      -0.729   1.579   1.267  0.00  0.00    +0.101 C 
ENDROOT
BRANCH   1   2
ATOM      2  C   UNL     1       0.000   1.080   2.488  0.00  0.00    +0.219 C 
ATOM      3  O   UNL     1       0.994   0.397   2.363  0.00  0.00    -0.275 OA
ATOM      4  N   UNL     1      -0.453   1.393   3.718  0.00  0.00    -0.265 N 
ATOM      5  C   UNL     1       0.219   0.932   4.844  0.00  0.00    +0.165 A 
ATOM      6  N   UNL     1      -0.067   1.130   6.114  0.00  0.00    -0.224 NA
ATOM      7  C   UNL     1       0.684   0.614   7.076  0.00  0.00    +0.083 A 
ATOM      8  C   UNL     1       1.769  -0.132   6.712  0.00  0.00    +0.077 A 
ATOM      9  S   UNL     1       1.644  -0.056   4.932  0.00  0.00    -0.060 S 
ATOM     10  H   UNL     1      -1.355   2.012   3.831  0.00  0.00    +0.157 HD
BRANCH   7  11
ATOM     11  C   UNL     1       0.357   0.842   8.507  0.00  0.00    +0.041 A 
ATOM     12  C   UNL     1       1.054   0.365   9.578  0.00  0.00    +0.118 A 
ATOM     13  N   UNL     1       0.430   0.795  10.695  0.00  0.00    -0.274 N 
ATOM     14  N   UNL     1      -0.680   1.557  10.310  0.00  0.00    -0.176 NA
ATOM     15  C   UNL     1      -0.725   1.593   9.004  0.00  0.00    +0.069 A 
ATOM     16  C   UNL     1      -1.757   2.312   8.174  0.00  0.00    +0.068 C 
ATOM     17  C   UNL     1       0.842   0.513  12.072  0.00  0.00    +0.172 C 
ENDBRANCH   7  11
ENDBRANCH   1   2
BRANCH   1  18
ATOM     18  C   UNL     1      -0.013   1.086   0.008  0.00  0.00    +0.050 C 
BRANCH  18  28
ATOM     19  C   UNL     1      -2.231   4.439  -5.145  0.00  0.00    +0.046 C 
ATOM     20  C   UNL     1      -2.646   3.107  -4.574  0.00  0.00    -0.026 A 
ATOM     21  C   UNL     1      -3.648   2.396  -5.159  0.00  0.00    +0.005 A 
ATOM     22  C   UNL     1      -4.047   1.163  -4.647  0.00  0.00    +0.001 A 
ATOM     23  C   UNL     1      -3.443   0.636  -3.546  0.00  0.00    +0.014 A 
ATOM     24  C   UNL     1      -2.407   1.342  -2.919  0.00  0.00    +0.046 A 
ATOM     25  C   UNL     1      -1.999   2.595  -3.436  0.00  0.00    +0.053 A 
ATOM     26  N   UNL     1      -1.011   3.273  -2.842  0.00  0.00    -0.358 N 
ATOM     27  C   UNL     1      -0.399   2.807  -1.779  0.00  0.00    +0.020 A 
ATOM     28  C   UNL     1      -0.742   1.585  -1.213  0.00  0.00    +0.019 A 
ATOM     29  C   UNL     1      -1.751   0.827  -1.778  0.00  0.00    +0.193 A 
ATOM     30  O   UNL     1      -2.103  -0.372  -1.250  0.00  0.00    -0.287 OA
ATOM     31  C   UNL     1       0.707   3.619  -1.155  0.00  0.00    +0.064 C 
ATOM     32  H   UNL     1      -0.693   4.247  -3.243  0.00  0.00    +0.166 HD
ENDBRANCH  18  28
ENDBRANCH   1  18
TORSDOF 4
