REMARK  Name = ZINC38685045
REMARK  8 active torsions:
REMARK  status: ('A' for Active; 'I' for Inactive)
REMARK    1  A    between atoms: C_1  and  C_2
REMARK    2  A    between atoms: C_7  and  C_27
REMARK    3  A    between atoms: C_9  and  N_12
REMARK    4  A    between atoms: C_13  and  C_15
REMARK    5  A    between atoms: C_15  and  C_16
REMARK    6  A    between atoms: C_16  and  N_17
REMARK    7  A    between atoms: C_27  and  O_29
REMARK    8  A    between atoms: O_29  and  C_30
REMARK                            x       y       z     vdW  Elec       q    Type
REMARK                         _______ _______ _______ _____ _____    ______ ____
ROOT
ATOM      1  N   UNL     1       0.322  -2.654   3.616  0.00  0.00    -0.286 N 
ATOM      2  C   UNL     1       0.160  -1.379   4.021  0.00  0.00    +0.215 C 
ATOM      3  O   UNL     1      -0.169  -0.527   3.224  0.00  0.00    -0.276 OA
ATOM      4  H   UNL     1       0.503  -3.350   4.267  0.00  0.00    +0.155 HD
ENDROOT
BRANCH   1  12
ATOM      5  C   UNL     1       0.292  -7.990   2.103  0.00  0.00    +0.044 C 
ATOM      6  C   UNL     1       0.228  -6.615   1.489  0.00  0.00    -0.050 A 
ATOM      7  C   UNL     1       0.126  -6.493   0.100  0.00  0.00    +0.005 A 
ATOM      8  C   UNL     1       0.064  -5.285  -0.509  0.00  0.00    +0.026 A 
ATOM      9  C   UNL     1       0.102  -4.098   0.269  0.00  0.00    +0.045 A 
ATOM     10  N   UNL     1       0.059  -2.827  -0.076  0.00  0.00    -0.367 N 
ATOM     11  C   UNL     1       0.134  -2.000   1.133  0.00  0.00    +0.234 C 
ATOM     12  C   UNL     1       0.231  -2.965   2.293  0.00  0.00    +0.053 C 
ATOM     13  C   UNL     1       0.209  -4.231   1.732  0.00  0.00    +0.018 A 
ATOM     14  C   UNL     1       0.264  -5.527   2.297  0.00  0.00    +0.015 A 
ATOM     15  H   UNL     1      -0.011  -2.493  -0.984  0.00  0.00    +0.161 HD
BRANCH  11  16
ATOM     16  C   UNL     1       1.355  -1.119   1.084  0.00  0.00    +0.335 C 
ATOM     17  O   UNL     1       2.310  -1.447   0.419  0.00  0.00    -0.248 OA
BRANCH  16  18
ATOM     18  O   UNL     1       1.383   0.029   1.779  0.00  0.00    -0.466 OA
ATOM     19  C   UNL     1       2.574   0.814   1.687  0.00  0.00    +0.280 C 
ENDBRANCH  16  18
ENDBRANCH  11  16
ENDBRANCH   1  12
BRANCH   2  20
ATOM     20  C   UNL     1       0.390  -1.012   5.464  0.00  0.00    +0.077 C 
BRANCH  20  21
ATOM     21  C   UNL     1       0.141   0.486   5.655  0.00  0.00    -0.070 C 
BRANCH  21  22
ATOM     22  N   UNL     1       0.364   0.844   7.063  0.00  0.00    +0.380 N 
ATOM     23  C   UNL     1       1.776   0.628   7.402  0.00  0.00    -0.074 C 
ATOM     24  C   UNL     1       1.996   0.918   8.889  0.00  0.00    +0.046 C 
ATOM     25  C   UNL     1       1.608   2.369   9.183  0.00  0.00    +0.167 C 
ATOM     26  C   UNL     1       0.159   2.608   8.751  0.00  0.00    +0.046 C 
ATOM     27  C   UNL     1       0.010   2.253   7.269  0.00  0.00    -0.074 C 
ATOM     28  O   UNL     1       1.737   2.625  10.590  0.00  0.00    -0.346 OA
ATOM     29  C   UNL     1       3.051   3.216  10.739  0.00  0.00    +0.191 C 
ATOM     30  C   UNL     1       3.165   4.061   9.446  0.00  0.00    +0.191 C 
ATOM     31  O   UNL     1       2.477   3.255   8.467  0.00  0.00    -0.346 OA
ATOM     32  H   UNL     1      -0.214   0.263   7.652  0.00  0.00    -0.082 HD
ENDBRANCH  21  22
ENDBRANCH  20  21
ENDBRANCH   2  20
TORSDOF 6
