REMARK  Name = ZINC03665813
REMARK  5 active torsions:
REMARK  status: ('A' for Active; 'I' for Inactive)
REMARK    1  A    between atoms: C_4  and  N_7
REMARK    2  A    between atoms: C_17  and  C_18
REMARK    3  A    between atoms: C_17  and  O_29
REMARK    4  A    between atoms: N_20  and  C_21
REMARK    5  A    between atoms: C_21  and  C_22
REMARK                            x       y       z     vdW  Elec       q    Type
REMARK                         _______ _______ _______ _____ _____    ______ ____
ROOT
ATOM      1  N   UNL     1       3.686   3.107  -0.016  0.00  0.00    -0.214 N 
ATOM      2  C   UNL     1       3.572   1.789   0.230  0.00  0.00    +0.314 C 
ATOM      3  O   UNL     1       4.584   1.149   0.442  0.00  0.00    -0.252 OA
ATOM      4  N   UNL     1       2.396   1.149   0.251  0.00  0.00    -0.269 N 
ATOM      5  C   UNL     1       1.179   1.790   0.019  0.00  0.00    +0.043 A 
ATOM      6  C   UNL     1      -0.014   1.080   0.053  0.00  0.00    +0.024 A 
ATOM      7  C   UNL     1      -1.209   1.732  -0.184  0.00  0.00    +0.002 A 
ATOM      8  C   UNL     1      -1.224   3.090  -0.443  0.00  0.00    +0.001 A 
ATOM      9  C   UNL     1      -0.037   3.803  -0.477  0.00  0.00    +0.010 A 
ATOM     10  C   UNL     1       1.154   3.154  -0.248  0.00  0.00    +0.033 A 
ATOM     11  C   UNL     1       2.471   3.896  -0.276  0.00  0.00    +0.247 C 
ATOM     12  H   UNL     1       2.391   0.197   0.436  0.00  0.00    +0.156 HD
ENDROOT
BRANCH   1  16
ATOM     13  C   UNL     1       7.432   4.931  -0.044  0.00  0.00    +0.000 A 
ATOM     14  C   UNL     1       6.520   5.242   0.948  0.00  0.00    +0.002 A 
ATOM     15  C   UNL     1       5.278   4.639   0.960  0.00  0.00    +0.024 A 
ATOM     16  C   UNL     1       4.944   3.719  -0.025  0.00  0.00    +0.041 A 
ATOM     17  C   UNL     1       5.864   3.405  -1.017  0.00  0.00    +0.024 A 
ATOM     18  C   UNL     1       7.103   4.015  -1.026  0.00  0.00    +0.002 A 
ENDBRANCH   1  16
BRANCH  11  19
ATOM     19  C   UNL     1       2.614   4.537  -1.633  0.00  0.00    +0.269 C 
ATOM     20  O   UNL     1       2.721   5.741  -1.726  0.00  0.00    -0.270 OA
ATOM     21  N   UNL     1       2.622   3.771  -2.742  0.00  0.00    -0.307 N 
ATOM     22  H   UNL     1       2.537   2.808  -2.667  0.00  0.00    +0.149 HD
BRANCH  21  23
ATOM     23  C   UNL     1       2.761   4.394  -4.061  0.00  0.00    +0.141 C 
BRANCH  23  24
ATOM     24  C   UNL     1       2.742   3.327  -5.125  0.00  0.00    -0.012 A 
ATOM     25  C   UNL     1       1.615   3.151  -5.907  0.00  0.00    +0.006 A 
ATOM     26  C   UNL     1       1.597   2.172  -6.883  0.00  0.00    +0.000 A 
ATOM     27  C   UNL     1       2.705   1.369  -7.077  0.00  0.00    +0.001 A 
ATOM     28  C   UNL     1       3.832   1.544  -6.296  0.00  0.00    +0.020 A 
ATOM     29  C   UNL     1       3.853   2.527  -5.323  0.00  0.00    +0.046 A 
ATOM     30 CL   UNL     1       5.270   2.752  -4.346  0.00  0.00    -0.083 Cl
ENDBRANCH  23  24
ENDBRANCH  21  23
ENDBRANCH  11  19
BRANCH  11  31
ATOM     31  O   UNL     1       2.408   4.942   0.696  0.00  0.00    -0.360 OA
ATOM     32  H   UNL     1       1.700   5.583   0.539  0.00  0.00    +0.213 HD
ENDBRANCH  11  31
TORSDOF 5
