REMARK  Name = ZINC20673762
REMARK  1 active torsions:
REMARK  status: ('A' for Active; 'I' for Inactive)
REMARK    1  A    between atoms: C_5  and  C_7
REMARK                            x       y       z     vdW  Elec       q    Type
REMARK                         _______ _______ _______ _____ _____    ______ ____
ROOT
ATOM      1  C   UNL     1       1.228  -2.186  -0.022  0.00  0.00    +0.093 C 
ATOM      2  C   UNL     1       0.558  -2.693   1.219  0.00  0.00    +0.044 A 
ATOM      3  C   UNL     1       1.220  -2.672   2.444  0.00  0.00    +0.127 A 
ATOM      4  N   UNL     1       0.589  -3.128   3.524  0.00  0.00    -0.199 NA
ATOM      5  C   UNL     1      -0.648  -3.594   3.442  0.00  0.00    +0.221 A 
ATOM      6  N   UNL     1      -1.306  -3.630   2.292  0.00  0.00    -0.199 NA
ATOM      7  C   UNL     1      -0.736  -3.192   1.173  0.00  0.00    +0.134 A 
ATOM      8  N   UNL     1      -1.413  -3.232  -0.034  0.00  0.00    -0.302 N 
ATOM      9  C   UNL     1      -0.730  -3.163  -1.216  0.00  0.00    +0.017 C 
ATOM     10  C   UNL     1       0.529  -2.682  -1.263  0.00  0.00    +0.024 C 
ATOM     11  C   UNL     1       1.236  -2.628  -2.477  0.00  0.00    +0.162 C 
ATOM     12  O   UNL     1       2.367  -2.182  -2.488  0.00  0.00    -0.292 OA
ATOM     13  C   UNL     1       0.622  -3.110  -3.762  0.00  0.00    +0.080 C 
ATOM     14  C   UNL     1      -0.402  -4.205  -3.446  0.00  0.00    +0.014 C 
ATOM     15  C   UNL     1      -1.428  -3.636  -2.469  0.00  0.00    +0.051 C 
ATOM     16  N   UNL     1      -1.270  -4.058   4.588  0.00  0.00    -0.300 N 
ATOM     17  C   UNL     1      -2.639  -4.588   4.535  0.00  0.00    +0.108 C 
ATOM     18  C   UNL     1      -2.651  -5.987   5.160  0.00  0.00    +0.019 C 
ATOM     19  C   UNL     1      -2.059  -5.916   6.569  0.00  0.00    +0.003 C 
ATOM     20  C   UNL     1      -0.609  -5.434   6.492  0.00  0.00    +0.019 C 
ATOM     21  C   UNL     1      -0.571  -4.035   5.880  0.00  0.00    +0.108 C 
ATOM     22  N   UNL     1       2.515  -2.186   2.537  0.00  0.00    -0.343 N 
ATOM     23  H   UNL     1      -2.380  -3.311  -0.040  0.00  0.00    +0.153 HD
ATOM     24  H   UNL     1       2.967  -1.856   1.744  0.00  0.00    +0.144 HD
ATOM     25  H   UNL     1       2.969  -2.175   3.394  0.00  0.00    +0.144 HD
ENDROOT
BRANCH   1  30
ATOM     26  C   UNL     1      -0.017   1.378   0.010  0.00  0.00    +0.000 A 
ATOM     27  C   UNL     1       1.171   2.087   0.002  0.00  0.00    +0.003 A 
ATOM     28  C   UNL     1       2.377   1.414  -0.013  0.00  0.00    +0.038 A 
ATOM     29  C   UNL     1       2.397   0.029  -0.021  0.00  0.00    +0.127 A 
ATOM     30  C   UNL     1       1.208  -0.679  -0.013  0.00  0.00    -0.000 A 
ATOM     31  C   UNL     1       0.002  -0.004   0.002  0.00  0.00    +0.007 A 
ATOM     32  F   UNL     1       3.577  -0.630  -0.036  0.00  0.00    -0.205 F 
ENDBRANCH   1  30
TORSDOF 1
