REMARK  Name = ZINC35839571
REMARK  11 active torsions:
REMARK  status: ('A' for Active; 'I' for Inactive)
REMARK    1  A    between atoms: C_1  and  C_2
REMARK    2  A    between atoms: C_9  and  C_11
REMARK    3  A    between atoms: C_14  and  C_16
REMARK    4  A    between atoms: C_16  and  N_17
REMARK    5  A    between atoms: N_20  and  C_23
REMARK    6  A    between atoms: C_23  and  C_24
REMARK    7  A    between atoms: C_24  and  C_26
REMARK    8  A    between atoms: C_24  and  O_31
REMARK    9  A    between atoms: C_26  and  O_27
REMARK   10  A    between atoms: O_27  and  C_28
REMARK   11  A    between atoms: C_28  and  C_29
REMARK                            x       y       z     vdW  Elec       q    Type
REMARK                         _______ _______ _______ _____ _____    ______ ____
ROOT
ATOM      1  N   UNL     1       5.419  -2.873   4.004  0.00  0.00    +0.387 N 
ATOM      2  C   UNL     1       5.190  -3.178   2.585  0.00  0.00    -0.063 C 
ATOM      3  C   UNL     1       6.509  -3.599   1.934  0.00  0.00    +0.066 C 
ATOM      4  N   UNL     1       7.039  -4.781   2.628  0.00  0.00    -0.303 NA
ATOM      5  C   UNL     1       7.251  -4.498   4.054  0.00  0.00    +0.066 C 
ATOM      6  C   UNL     1       5.926  -4.069   4.688  0.00  0.00    -0.063 C 
ATOM      7  H   UNL     1       6.097  -2.129   4.082  0.00  0.00    -0.081 HD
ENDROOT
BRANCH   1   8
ATOM      8  C   UNL     1       4.156  -2.451   4.624  0.00  0.00    +0.019 C 
BRANCH   8  12
ATOM      9  C   UNL     1       2.740   0.272   2.700  0.00  0.00    +0.164 A 
ATOM     10  C   UNL     1       3.433   0.971   3.640  0.00  0.00    +0.230 A 
ATOM     11  O   UNL     1       4.023   0.070   4.441  0.00  0.00    -0.449 OA
ATOM     12  C   UNL     1       3.700  -1.155   4.005  0.00  0.00    +0.179 A 
ATOM     13  N   UNL     1       2.928  -1.050   2.965  0.00  0.00    -0.210 NA
BRANCH   9  21
ATOM     14  C   UNL     1       0.618   2.083  -0.383  0.00  0.00    +0.028 C 
ATOM     15  C   UNL     1       0.485   0.559  -0.350  0.00  0.00    +0.073 C 
ATOM     16  C   UNL     1      -0.995   0.175  -0.257  0.00  0.00    +0.022 C 
ATOM     17  C   UNL     1      -1.114  -1.341  -0.085  0.00  0.00    +0.003 C 
ATOM     18  C   UNL     1      -0.423  -1.764   1.213  0.00  0.00    +0.019 C 
ATOM     19  C   UNL     1       1.064  -1.402   1.137  0.00  0.00    +0.108 C 
ATOM     20  N   UNL     1       1.189   0.029   0.826  0.00  0.00    -0.293 N 
ATOM     21  C   UNL     1       1.932   0.839   1.605  0.00  0.00    +0.268 C 
ATOM     22  O   UNL     1       1.937   2.039   1.405  0.00  0.00    -0.268 OA
ENDBRANCH   9  21
ENDBRANCH   8  12
ENDBRANCH   1   8
BRANCH   4  23
ATOM     23  C   UNL     1       8.279  -5.251   1.995  0.00  0.00    +0.117 C 
BRANCH  23  24
ATOM     24  C   UNL     1       7.942  -5.982   0.694  0.00  0.00    +0.154 C 
BRANCH  24  25
ATOM     25  O   UNL     1       7.089  -7.093   0.980  0.00  0.00    -0.388 OA
ATOM     26  H   UNL     1       7.478  -7.743   1.580  0.00  0.00    +0.210 HD
ENDBRANCH  24  25
BRANCH  24  27
ATOM     27  C   UNL     1       9.232  -6.485   0.043  0.00  0.00    +0.193 C 
BRANCH  27  28
ATOM     28  O   UNL     1       8.930  -7.065  -1.228  0.00  0.00    -0.365 OA
BRANCH  28  29
ATOM     29  C   UNL     1      10.072  -7.568  -1.924  0.00  0.00    +0.248 C 
BRANCH  29  30
ATOM     30  C   UNL     1       9.648  -8.141  -3.212  0.00  0.00    -0.077 C 
ATOM     31  C   UNL     1       9.311  -8.597  -4.240  0.00  0.00    +0.006 C 
ENDBRANCH  29  30
ENDBRANCH  28  29
ENDBRANCH  27  28
ENDBRANCH  24  27
ENDBRANCH  23  24
ENDBRANCH   4  23
TORSDOF 10
