REMARK  Name = ZINC66653527
REMARK  10 active torsions:
REMARK  status: ('A' for Active; 'I' for Inactive)
REMARK    1  A    between atoms: C_1  and  C_2
REMARK    2  A    between atoms: C_2  and  C_3
REMARK    3  A    between atoms: C_2  and  C_4
REMARK    4  A    between atoms: C_4  and  C_6
REMARK    5  A    between atoms: C_4  and  N_20
REMARK    6  A    between atoms: N_8  and  C_9
REMARK    7  A    between atoms: C_13  and  S_15
REMARK    8  A    between atoms: S_15  and  N_18
REMARK    9  A    between atoms: C_21  and  O_23
REMARK   10  A    between atoms: O_23  and  C_24
REMARK                            x       y       z     vdW  Elec       q    Type
REMARK                         _______ _______ _______ _____ _____    ______ ____
ROOT
ATOM      1  C   UNL     1      -1.636  -0.140  -1.498  0.00  0.00    +0.238 C 
ATOM      2  O   UNL     1      -1.692  -0.952  -2.397  0.00  0.00    -0.273 OA
ATOM      3  N   UNL     1      -2.204   1.073  -1.649  0.00  0.00    -0.284 N 
ATOM      4  H   UNL     1      -2.240   1.689  -0.900  0.00  0.00    +0.155 HD
ENDROOT
BRANCH   3   5
ATOM      5  C   UNL     1      -2.743   1.445  -2.886  0.00  0.00    +0.035 A 
ATOM      6  C   UNL     1      -3.245   0.476  -3.745  0.00  0.00    +0.025 A 
ATOM      7  C   UNL     1      -3.776   0.845  -4.965  0.00  0.00    +0.024 A 
ATOM      8  C   UNL     1      -3.808   2.179  -5.332  0.00  0.00    +0.067 A 
ATOM      9  C   UNL     1      -3.308   3.146  -4.478  0.00  0.00    +0.125 A 
ATOM     10  C   UNL     1      -2.782   2.783  -3.254  0.00  0.00    +0.053 A 
ATOM     11 CL   UNL     1      -4.475   2.640  -6.867  0.00  0.00    -0.082 Cl
BRANCH   9  12
ATOM     12  S   UNL     1      -3.351   4.844  -4.949  0.00  0.00    +0.057 S 
ATOM     13  O   UNL     1      -4.672   5.106  -5.403  0.00  0.00    -0.153 OA
ATOM     14  O   UNL     1      -2.750   5.574  -3.889  0.00  0.00    -0.153 OA
BRANCH  12  15
ATOM     15  N   UNL     1      -2.357   5.012  -6.263  0.00  0.00    -0.203 NA
ATOM     16  H   UNL     1      -1.889   4.241  -6.619  0.00  0.00    +0.144 HD
ATOM     17  H   UNL     1      -2.243   5.882  -6.677  0.00  0.00    +0.144 HD
ENDBRANCH  12  15
ENDBRANCH   9  12
ENDBRANCH   3   5
BRANCH   1  18
ATOM     18  C   UNL     1      -0.930  -0.486  -0.213  0.00  0.00    +0.165 C 
BRANCH  18  19
ATOM     19  N   UNL     1      -1.075  -1.920   0.052  0.00  0.00    -0.270 N 
ATOM     20  C   UNL     1      -0.994  -2.384   1.315  0.00  0.00    +0.401 C 
ATOM     21  O   UNL     1      -0.801  -1.613   2.234  0.00  0.00    -0.226 OA
ATOM     22  H   UNL     1      -1.228  -2.536  -0.682  0.00  0.00    +0.153 HD
BRANCH  20  23
ATOM     23  O   UNL     1      -1.127  -3.701   1.558  0.00  0.00    -0.454 OA
ATOM     24  C   UNL     1      -1.030  -4.122   2.921  0.00  0.00    +0.282 C 
ENDBRANCH  20  23
ENDBRANCH  18  19
BRANCH  18  26
ATOM     25  C   UNL     1       1.231  -0.299   1.028  0.00  0.00    +0.009 C 
ATOM     26  C   UNL     1       0.555  -0.138  -0.335  0.00  0.00    +0.012 C 
ATOM     27  C   UNL     1       1.217  -1.075  -1.347  0.00  0.00    +0.009 C 
ENDBRANCH  18  26
ENDBRANCH   1  18
TORSDOF 7
