REMARK  Name = ZINC46902030
REMARK  8 active torsions:
REMARK  status: ('A' for Active; 'I' for Inactive)
REMARK    1  A    between atoms: C_1  and  N_2
REMARK    2  A    between atoms: N_2  and  C_3
REMARK    3  A    between atoms: N_2  and  C_4
REMARK    4  A    between atoms: C_7  and  C_10
REMARK    5  A    between atoms: C_10  and  C_12
REMARK    6  A    between atoms: C_10  and  C_30
REMARK    7  A    between atoms: C_12  and  N_13
REMARK    8  A    between atoms: C_14  and  C_16
REMARK                            x       y       z     vdW  Elec       q    Type
REMARK                         _______ _______ _______ _____ _____    ______ ____
ROOT
ATOM      1  C   UNL     1      -4.442  -3.309   0.375  0.00  0.00    +0.068 C 
ENDROOT
BRANCH   1   2
ATOM      2  C   UNL     1      -5.159  -2.860  -0.873  0.00  0.00    -0.013 A 
ATOM      3  C   UNL     1      -5.484  -1.599  -1.197  0.00  0.00    +0.088 A 
ATOM      4  N   UNL     1      -6.127  -1.579  -2.404  0.00  0.00    -0.360 N 
ATOM      5  H   UNL     1      -6.458  -0.781  -2.846  0.00  0.00    +0.165 HD
ATOM      6  C   UNL     1      -6.234  -2.859  -2.899  0.00  0.00    +0.047 A 
ATOM      7  C   UNL     1      -5.627  -3.718  -1.964  0.00  0.00    +0.003 A 
ATOM      8  C   UNL     1      -5.581  -5.091  -2.207  0.00  0.00    +0.010 A 
ATOM      9  C   UNL     1      -6.124  -5.596  -3.355  0.00  0.00    +0.001 A 
ATOM     10  C   UNL     1      -6.721  -4.753  -4.282  0.00  0.00    +0.002 A 
ATOM     11  C   UNL     1      -6.785  -3.395  -4.058  0.00  0.00    +0.026 A 
ENDBRANCH   1   2
BRANCH   1  15
ATOM     12  C   UNL     1      -0.607  -1.433   0.566  0.00  0.00    +0.029 A 
ATOM     13  C   UNL     1      -0.703  -2.818   0.528  0.00  0.00    +0.023 A 
ATOM     14  C   UNL     1      -1.944  -3.421   0.467  0.00  0.00    +0.006 A 
ATOM     15  C   UNL     1      -3.090  -2.647   0.443  0.00  0.00    -0.038 A 
ATOM     16  C   UNL     1      -2.997  -1.268   0.480  0.00  0.00    +0.006 A 
ATOM     17  C   UNL     1      -1.760  -0.659   0.547  0.00  0.00    +0.023 A 
BRANCH  12  19
ATOM     18  C   UNL     1       0.746   0.641   0.674  0.00  0.00    +0.129 C 
ATOM     19  N   UNL     1       0.647  -0.820   0.628  0.00  0.00    -0.336 N 
ATOM     20  C   UNL     1       1.862  -1.637   0.648  0.00  0.00    +0.129 C 
ENDBRANCH  12  19
ENDBRANCH   1  15
BRANCH   1  21
ATOM     21  C   UNL     1      -5.264  -2.916   1.604  0.00  0.00    +0.117 C 
BRANCH  21  22
ATOM     22  N   UNL     1      -6.531  -3.651   1.600  0.00  0.00    -0.314 N 
ATOM     23  C   UNL     1      -7.422  -3.465   2.594  0.00  0.00    +0.218 C 
ATOM     24  O   UNL     1      -7.175  -2.688   3.492  0.00  0.00    -0.275 OA
ATOM     25  H   UNL     1      -6.729  -4.272   0.881  0.00  0.00    +0.149 HD
BRANCH  23  26
ATOM     26  C   UNL     1      -8.726  -4.221   2.589  0.00  0.00    +0.092 C 
ATOM     27  C   UNL     1      -9.548  -3.830   3.819  0.00  0.00    +0.016 C 
ATOM     28  C   UNL     1     -10.885  -4.573   3.798  0.00  0.00    +0.020 C 
ATOM     29  C   UNL     1     -10.628  -6.082   3.849  0.00  0.00    +0.109 C 
ATOM     30  N   UNL     1      -9.720  -6.444   2.752  0.00  0.00    -0.285 N 
ATOM     31  C   UNL     1      -8.443  -5.726   2.625  0.00  0.00    +0.122 C 
ATOM     32  C   UNL     1     -10.050  -7.415   1.878  0.00  0.00    +0.305 C 
ATOM     33  O   UNL     1      -9.399  -7.567   0.863  0.00  0.00    -0.252 OA
ATOM     34  N   UNL     1     -11.103  -8.218   2.130  0.00  0.00    -0.285 N 
ATOM     35  C   UNL     1     -12.082  -8.033   3.211  0.00  0.00    +0.109 C 
ATOM     36  C   UNL     1     -13.085  -9.203   3.126  0.00  0.00    +0.020 C 
ATOM     37  C   UNL     1     -12.288 -10.289   2.356  0.00  0.00    +0.020 C 
ATOM     38  C   UNL     1     -11.467  -9.424   1.364  0.00  0.00    +0.109 C 
ENDBRANCH  23  26
ENDBRANCH  21  22
ENDBRANCH   1  21
TORSDOF 6
