REMARK  Name = ZINC39669457
REMARK  7 active torsions:
REMARK  status: ('A' for Active; 'I' for Inactive)
REMARK    1  A    between atoms: C_1  and  C_2
REMARK    2  A    between atoms: C_2  and  S_3
REMARK    3  A    between atoms: S_3  and  C_4
REMARK    4  A    between atoms: C_5  and  C_10
REMARK    5  A    between atoms: C_14  and  C_23
REMARK    6  A    between atoms: N_25  and  C_26
REMARK    7  A    between atoms: C_26  and  C_27
REMARK                            x       y       z     vdW  Elec       q    Type
REMARK                         _______ _______ _______ _____ _____    ______ ____
ROOT
ATOM      1  C   UNL     1       2.269  -2.358   3.606  0.00  0.00    +0.249 C 
ATOM      2  O   UNL     1       2.468  -1.167   3.752  0.00  0.00    -0.270 OA
ATOM      3  N   UNL     1       2.676  -3.229   4.551  0.00  0.00    -0.296 N 
ATOM      4  C   UNL     1       2.620  -4.710   4.505  0.00  0.00    +0.121 C 
ATOM      5  C   UNL     1       3.943  -5.170   5.158  0.00  0.00    +0.100 C 
ATOM      6  C   UNL     1       4.369  -3.994   6.053  0.00  0.00    -0.004 C 
ATOM      7  C   UNL     1       3.284  -2.924   5.868  0.00  0.00    +0.115 C 
ATOM      8  C   UNL     1       5.721  -3.450   5.604  0.00  0.00    -0.010 C 
ATOM      9  C   UNL     1       6.150  -2.320   6.544  0.00  0.00    -0.082 C 
ATOM     10  N   UNL     1       6.237  -2.830   7.918  0.00  0.00    +0.379 N 
ATOM     11  C   UNL     1       4.913  -3.267   8.375  0.00  0.00    -0.082 C 
ATOM     12  C   UNL     1       4.432  -4.437   7.512  0.00  0.00    -0.010 C 
ATOM     13  H   UNL     1       6.875  -3.612   7.944  0.00  0.00    -0.086 HD
ATOM     14  H   UNL     1       6.578  -2.101   8.525  0.00  0.00    -0.086 HD
ENDROOT
BRANCH   1  16
ATOM     15  C   UNL     1       1.792  -2.224   1.154  0.00  0.00    +0.109 A 
ATOM     16  C   UNL     1       1.585  -2.849   2.397  0.00  0.00    +0.069 A 
ATOM     17  C   UNL     1       0.718  -3.945   2.464  0.00  0.00    +0.017 A 
ATOM     18  C   UNL     1       0.100  -4.367   1.300  0.00  0.00    +0.020 A 
ATOM     19  C   UNL     1       0.354  -3.701   0.113  0.00  0.00    +0.112 A 
ATOM     20  N   UNL     1       1.170  -2.667   0.071  0.00  0.00    -0.248 NA
BRANCH  15  21
ATOM     21  S   UNL     1       2.877  -0.841   1.038  0.00  0.00    -0.105 S 
BRANCH  21  23
ATOM     22  C   UNL     1       3.729   0.822  -0.960  0.00  0.00    +0.015 C 
ATOM     23  C   UNL     1       2.818  -0.383  -0.717  0.00  0.00    +0.072 C 
ENDBRANCH  21  23
ENDBRANCH  15  21
ENDBRANCH   1  16
BRANCH   5  24
ATOM     24  C   UNL     1       4.986  -5.432   4.101  0.00  0.00    +0.218 C 
ATOM     25  O   UNL     1       4.966  -4.807   3.062  0.00  0.00    -0.275 OA
ATOM     26  N   UNL     1       5.940  -6.360   4.312  0.00  0.00    -0.315 N 
ATOM     27  H   UNL     1       5.956  -6.859   5.143  0.00  0.00    +0.149 HD
BRANCH  26  28
ATOM     28  C   UNL     1       6.954  -6.614   3.285  0.00  0.00    +0.109 C 
BRANCH  28  29
ATOM     29  C   UNL     1       7.910  -7.705   3.772  0.00  0.00    +0.024 C 
ATOM     30  C   UNL     1       9.039  -7.886   2.755  0.00  0.00    +0.008 C 
ATOM     31  C   UNL     1      10.014  -8.954   3.256  0.00  0.00    +0.019 C 
ATOM     32  C   UNL     1       9.274 -10.287   3.399  0.00  0.00    +0.108 C 
ATOM     33  N   UNL     1       8.102 -10.088   4.261  0.00  0.00    -0.299 N 
ATOM     34  C   UNL     1       7.146  -9.025   3.921  0.00  0.00    +0.113 C 
ATOM     35  C   UNL     1       7.901 -10.887   5.374  0.00  0.00    +0.218 A 
ATOM     36  N   UNL     1       6.831 -10.686   6.129  0.00  0.00    -0.223 NA
ATOM     37  C   UNL     1       6.609 -11.432   7.199  0.00  0.00    +0.116 A 
ATOM     38  C   UNL     1       7.511 -12.432   7.525  0.00  0.00    +0.039 A 
ATOM     39  C   UNL     1       8.620 -12.615   6.713  0.00  0.00    +0.116 A 
ATOM     40  N   UNL     1       8.780 -11.837   5.655  0.00  0.00    -0.223 NA
ENDBRANCH  28  29
ENDBRANCH  26  28
ENDBRANCH   5  24
TORSDOF 6
