REMARK  Name = ZINC67399885
REMARK  7 active torsions:
REMARK  status: ('A' for Active; 'I' for Inactive)
REMARK    1  A    between atoms: C_1  and  C_2
REMARK    2  A    between atoms: C_2  and  N_3
REMARK    3  A    between atoms: N_3  and  C_4
REMARK    4  A    between atoms: N_3  and  C_6
REMARK    5  A    between atoms: C_4  and  C_5
REMARK    6  A    between atoms: N_9  and  C_12
REMARK    7  A    between atoms: C_12  and  C_13
REMARK                            x       y       z     vdW  Elec       q    Type
REMARK                         _______ _______ _______ _____ _____    ______ ____
ROOT
ATOM      1  C   UNL     1       4.210  -5.351   3.419  0.00  0.00    +0.146 A 
ATOM      2  N   UNL     1       5.505  -5.107   3.516  0.00  0.00    -0.216 NA
ATOM      3  C   UNL     1       6.171  -5.278   4.647  0.00  0.00    +0.128 A 
ATOM      4  C   UNL     1       5.473  -5.738   5.798  0.00  0.00    +0.051 A 
ATOM      5  C   UNL     1       6.000  -5.996   7.143  0.00  0.00    -0.025 A 
ATOM      6  C   UNL     1       5.120  -6.436   8.064  0.00  0.00    -0.004 A 
ATOM      7  S   UNL     1       3.563  -6.523   7.217  0.00  0.00    -0.073 S 
ATOM      8  C   UNL     1       4.098  -5.975   5.617  0.00  0.00    +0.114 A 
ATOM      9  N   UNL     1       3.509  -5.774   4.454  0.00  0.00    -0.223 NA
ATOM     10  C   UNL     1       5.387  -6.792   9.493  0.00  0.00    +0.043 C 
ATOM     11  C   UNL     1       6.186  -5.662  10.156  0.00  0.00    +0.005 C 
ATOM     12  C   UNL     1       7.672  -5.947   9.963  0.00  0.00    +0.001 C 
ATOM     13  C   UNL     1       7.899  -6.654   8.628  0.00  0.00    +0.005 C 
ATOM     14  C   UNL     1       7.472  -5.760   7.470  0.00  0.00    +0.037 C 
ATOM     15  N   UNL     1       7.527  -5.012   4.708  0.00  0.00    -0.343 N 
ATOM     16  H   UNL     1       7.934  -4.759   5.551  0.00  0.00    +0.144 HD
ATOM     17  H   UNL     1       8.071  -5.080   3.908  0.00  0.00    +0.144 HD
ENDROOT
BRANCH   1  18
ATOM     18  C   UNL     1       3.516  -5.134   2.099  0.00  0.00    +0.160 C 
BRANCH  18  22
ATOM     19  C   UNL     1       1.089  -1.646   1.621  0.00  0.00    -0.066 C 
ATOM     20  C   UNL     1       2.186  -1.948   0.596  0.00  0.00    +0.000 C 
ATOM     21  C   UNL     1       2.554  -3.431   0.672  0.00  0.00    +0.083 C 
ATOM     22  N   UNL     1       3.023  -3.752   2.026  0.00  0.00    -0.295 NA
ATOM     23  C   UNL     1       1.971  -3.515   3.023  0.00  0.00    +0.083 C 
ATOM     24  C   UNL     1       1.586  -2.034   3.017  0.00  0.00    +0.000 C 
BRANCH  19  25
ATOM     25  N   UNL     1       0.773  -0.212   1.594  0.00  0.00    +0.381 N 
ATOM     26  H   UNL     1       1.601   0.320   1.815  0.00  0.00    -0.081 HD
BRANCH  25  28
ATOM     27  C   UNL     1      -0.920  -0.694  -0.109  0.00  0.00    -0.017 C 
ATOM     28  C   UNL     1       0.297   0.159   0.254  0.00  0.00    -0.082 C 
ENDBRANCH  25  28
BRANCH  25  29
ATOM     29  C   UNL     1      -0.274   0.078   2.583  0.00  0.00    -0.082 C 
ATOM     30  C   UNL     1      -0.525   1.586   2.633  0.00  0.00    -0.017 C 
ENDBRANCH  25  29
ENDBRANCH  19  25
ENDBRANCH  18  22
ENDBRANCH   1  18
TORSDOF 5
