REMARK  Name = ZINC63138780
REMARK  10 active torsions:
REMARK  status: ('A' for Active; 'I' for Inactive)
REMARK    1  A    between atoms: C_1  and  C_2
REMARK    2  A    between atoms: C_2  and  C_3
REMARK    3  A    between atoms: C_3  and  C_4
REMARK    4  A    between atoms: C_4  and  C_5
REMARK    5  A    between atoms: C_5  and  C_7
REMARK    6  A    between atoms: C_5  and  C_9
REMARK    7  A    between atoms: C_7  and  C_8
REMARK    8  A    between atoms: C_9  and  N_10
REMARK    9  A    between atoms: C_30  and  C_31
REMARK   10  A    between atoms: C_30  and  C_32
REMARK                            x       y       z     vdW  Elec       q    Type
REMARK                         _______ _______ _______ _____ _____    ______ ____
ROOT
ATOM      1  N   UNL     1      -4.463  -3.642  -0.193  0.00  0.00    -0.291 N 
ATOM      2  C   UNL     1      -5.174  -3.950   1.061  0.00  0.00    +0.203 C 
ATOM      3  C   UNL     1      -6.662  -3.806   0.819  0.00  0.00    +0.234 C 
ATOM      4  O   UNL     1      -7.383  -3.243   1.615  0.00  0.00    -0.274 OA
ATOM      5  N   UNL     1      -7.156  -4.343  -0.345  0.00  0.00    -0.281 N 
ATOM      6  C   UNL     1      -6.194  -5.055  -1.159  0.00  0.00    +0.167 C 
ATOM      7  C   UNL     1      -4.959  -4.208  -1.334  0.00  0.00    +0.237 C 
ATOM      8  O   UNL     1      -4.437  -4.042  -2.416  0.00  0.00    -0.274 OA
ATOM      9  C   UNL     1      -6.663  -5.657  -2.458  0.00  0.00    +0.065 C 
ATOM     10  C   UNL     1      -8.058  -5.187  -2.766  0.00  0.00    -0.034 C 
ATOM     11  C   UNL     1      -8.640  -4.806  -3.895  0.00  0.00    -0.001 A 
ATOM     12  C   UNL     1      -8.145  -4.744  -5.280  0.00  0.00    +0.010 A 
ATOM     13  C   UNL     1      -9.023  -4.286  -6.211  0.00  0.00    +0.001 A 
ATOM     14  C   UNL     1     -10.329  -3.887  -5.907  0.00  0.00    +0.002 A 
ATOM     15  C   UNL     1     -10.868  -3.916  -4.662  0.00  0.00    +0.026 A 
ATOM     16  C   UNL     1     -10.042  -4.383  -3.598  0.00  0.00    +0.043 A 
ATOM     17  N   UNL     1     -10.300  -4.522  -2.333  0.00  0.00    -0.375 N 
ATOM     18  C   UNL     1      -9.113  -5.074  -1.668  0.00  0.00    +0.129 C 
ATOM     19  C   UNL     1      -8.559  -4.095  -0.643  0.00  0.00    +0.057 C 
ATOM     20  C   UNL     1      -8.703  -2.689  -1.228  0.00  0.00    +0.034 C 
ATOM     21  C   UNL     1      -9.367  -4.178   0.654  0.00  0.00    +0.034 C 
ATOM     22  H   UNL     1     -11.139  -4.298  -1.899  0.00  0.00    +0.160 HD
ENDROOT
BRANCH   1  23
ATOM     23  C   UNL     1      -3.288  -2.768  -0.216  0.00  0.00    +0.112 C 
BRANCH  23  24
ATOM     24  C   UNL     1      -3.734  -1.318  -0.421  0.00  0.00    +0.006 C 
BRANCH  24  25
ATOM     25  C   UNL     1      -4.555  -0.862   0.787  0.00  0.00    +0.002 C 
ATOM     26  C   UNL     1      -5.089   0.550   0.537  0.00  0.00    +0.004 C 
ENDBRANCH  24  25
BRANCH  24  27
ATOM     27  C   UNL     1      -2.504  -0.422  -0.570  0.00  0.00    +0.005 C 
BRANCH  27  28
ATOM     28  C   UNL     1      -1.743  -0.807  -1.840  0.00  0.00    +0.000 C 
BRANCH  28  30
ATOM     29  C   UNL     1       0.175  -0.215  -3.328  0.00  0.00    +0.004 C 
ATOM     30  C   UNL     1      -0.586   0.171  -2.058  0.00  0.00    -0.003 C 
ENDBRANCH  28  30
ENDBRANCH  27  28
ENDBRANCH  24  27
ENDBRANCH  23  24
ENDBRANCH   1  23
TORSDOF 6
