REMARK  Name = ZINC12496930
REMARK  7 active torsions:
REMARK  status: ('A' for Active; 'I' for Inactive)
REMARK    1  A    between atoms: C_1  and  O_2
REMARK    2  A    between atoms: O_2  and  C_3
REMARK    3  A    between atoms: C_3  and  C_5
REMARK    4  A    between atoms: C_5  and  C_28
REMARK    5  A    between atoms: C_10  and  C_12
REMARK    6  A    between atoms: N_19  and  C_22
REMARK    7  A    between atoms: C_28  and  C_29
REMARK                            x       y       z     vdW  Elec       q    Type
REMARK                         _______ _______ _______ _____ _____    ______ ____
ROOT
ATOM      1  C   UNL     1      -0.018   1.506   0.010  0.00  0.00    +0.048 C 
ATOM      2  C   UNL     1      -0.042  -0.004   0.027  0.00  0.00    +0.086 C 
ATOM      3  C   UNL     1       1.029  -0.249  -1.109  0.00  0.00    +0.078 C 
ATOM      4  C   UNL     1       2.138   0.626  -0.650  0.00  0.00    -0.020 C 
ATOM      5  C   UNL     1       0.864  -1.693  -1.284  0.00  0.00    +0.229 C 
ATOM      6  O   UNL     1       1.731  -2.502  -1.540  0.00  0.00    -0.275 OA
ATOM      7  N   UNL     1      -0.472  -1.934  -1.083  0.00  0.00    -0.210 N 
ATOM      8  C   UNL     1      -1.117  -0.871  -0.508  0.00  0.00    +0.229 C 
ATOM      9  O   UNL     1      -2.313  -0.680  -0.450  0.00  0.00    -0.275 OA
ATOM     10  N   UNL     1       1.447   1.793  -0.030  0.00  0.00    +0.396 N 
ATOM     11  H   UNL     1       1.799   1.939   0.923  0.00  0.00    -0.083 HD
ATOM     12  H   UNL     1       1.620   2.636  -0.591  0.00  0.00    -0.083 HD
ENDROOT
BRANCH   7  13
ATOM     13  C   UNL     1      -1.106  -3.136  -1.426  0.00  0.00    +0.044 A 
ATOM     14  C   UNL     1      -2.463  -3.301  -1.182  0.00  0.00    +0.024 A 
ATOM     15  C   UNL     1      -3.086  -4.485  -1.526  0.00  0.00    +0.002 A 
ATOM     16  C   UNL     1      -2.358  -5.509  -2.103  0.00  0.00    +0.000 A 
ATOM     17  C   UNL     1      -1.006  -5.349  -2.342  0.00  0.00    +0.002 A 
ATOM     18  C   UNL     1      -0.378  -4.166  -2.006  0.00  0.00    +0.024 A 
ENDBRANCH   7  13
BRANCH   4  19
ATOM     19  C   UNL     1       2.985  -0.090   0.370  0.00  0.00    -0.023 A 
ATOM     20  C   UNL     1       4.176  -0.715   0.202  0.00  0.00    +0.009 A 
ATOM     21  C   UNL     1       4.780  -1.312   1.293  0.00  0.00    +0.008 A 
ATOM     22  C   UNL     1       4.163  -1.254   2.499  0.00  0.00    +0.045 A 
ATOM     23  S   UNL     1       2.686  -0.329   2.113  0.00  0.00    -0.103 S 
ENDBRANCH   4  19
BRANCH   1  24
ATOM     24  C   UNL     1      -0.648   2.065   1.260  0.00  0.00    +0.297 C 
ATOM     25  O   UNL     1      -1.462   1.413   1.871  0.00  0.00    -0.252 OA
BRANCH  24  27
ATOM     26  C   UNL     1      -0.952   3.763   2.905  0.00  0.00    +0.280 C 
ATOM     27  O   UNL     1      -0.305   3.288   1.695  0.00  0.00    -0.469 OA
ENDBRANCH  24  27
ENDBRANCH   1  24
BRANCH   1  28
ATOM     28  C   UNL     1      -0.714   2.047  -1.240  0.00  0.00    +0.034 C 
BRANCH  28  29
ATOM     29  C   UNL     1      -0.718   3.554  -1.201  0.00  0.00    -0.048 A 
ATOM     30  C   UNL     1      -1.771   4.228  -0.612  0.00  0.00    +0.003 A 
ATOM     31  C   UNL     1      -1.772   5.609  -0.572  0.00  0.00    +0.000 A 
ATOM     32  C   UNL     1      -0.724   6.317  -1.129  0.00  0.00    +0.000 A 
ATOM     33  C   UNL     1       0.327   5.644  -1.723  0.00  0.00    +0.000 A 
ATOM     34  C   UNL     1       0.330   4.262  -1.759  0.00  0.00    +0.003 A 
ENDBRANCH  28  29
ENDBRANCH   1  28
TORSDOF 6
