REMARK  Name = ZINC31870525
REMARK  4 active torsions:
REMARK  status: ('A' for Active; 'I' for Inactive)
REMARK    1  A    between atoms: C_9  and  C_12
REMARK    2  A    between atoms: N_14  and  N_15
REMARK    3  A    between atoms: C_16  and  C_17
REMARK    4  A    between atoms: C_20  and  O_24
REMARK                            x       y       z     vdW  Elec       q    Type
REMARK                         _______ _______ _______ _____ _____    ______ ____
ROOT
ATOM      1  C   UNL     1       2.399   5.480  -0.291  0.00  0.00    +0.276 C 
ATOM      2  O   UNL     1       3.435   6.083  -0.480  0.00  0.00    -0.270 OA
ATOM      3  N   UNL     1       2.421   4.147  -0.096  0.00  0.00    -0.204 N 
ATOM      4  H   UNL     1       1.482   3.601   0.075  0.00  0.00    +0.177 HD
ENDROOT
BRANCH   1  13
ATOM      5  C   UNL     1      -1.772  10.245   0.138  0.00  0.00    +0.004 A 
ATOM      6  C   UNL     1      -0.752  10.591  -0.728  0.00  0.00    +0.004 A 
ATOM      7  C   UNL     1       0.276   9.702  -0.980  0.00  0.00    +0.049 A 
ATOM      8  C   UNL     1       0.286   8.460  -0.363  0.00  0.00    +0.163 A 
ATOM      9  C   UNL     1      -0.741   8.111   0.506  0.00  0.00    +0.162 A 
ATOM     10  C   UNL     1      -1.768   9.009   0.755  0.00  0.00    +0.049 A 
ATOM     11  O   UNL     1      -0.754   6.895   1.117  0.00  0.00    -0.484 OA
ATOM     12  C   UNL     1       0.481   6.170   1.134  0.00  0.00    +0.283 C 
ATOM     13  C   UNL     1       1.088   6.223  -0.275  0.00  0.00    +0.297 C 
ATOM     14  O   UNL     1       1.307   7.596  -0.618  0.00  0.00    -0.472 OA
ENDBRANCH   1  13
BRANCH   3  15
ATOM     15  N   UNL     1       3.640   3.457  -0.111  0.00  0.00    -0.188 NA
ATOM     16  C   UNL     1       3.652   2.160  -0.051  0.00  0.00    +0.138 C 
BRANCH  16  17
ATOM     17  C   UNL     1       2.489   1.389  -0.525  0.00  0.00    -0.004 A 
ATOM     18  C   UNL     1       1.513   2.006  -1.313  0.00  0.00    +0.013 A 
ATOM     19  C   UNL     1       0.427   1.281  -1.754  0.00  0.00    +0.047 A 
ATOM     20  C   UNL     1       0.301  -0.060  -1.416  0.00  0.00    +0.130 A 
ATOM     21  C   UNL     1       1.268  -0.677  -0.632  0.00  0.00    +0.055 A 
ATOM     22  C   UNL     1       2.357   0.040  -0.186  0.00  0.00    +0.027 A 
ATOM     23  I   UNL     1       1.064  -2.699  -0.119  0.00  0.00    -0.040 I 
BRANCH  20  24
ATOM     24  O   UNL     1      -0.771  -0.771  -1.853  0.00  0.00    -0.506 OA
ATOM     25  H   UNL     1      -0.873  -1.833  -1.587  0.00  0.00    +0.292 HD
ENDBRANCH  20  24
ENDBRANCH  16  17
ENDBRANCH   3  15
TORSDOF 4
