REMARK  Name = ZINC39530842
REMARK  7 active torsions:
REMARK  status: ('A' for Active; 'I' for Inactive)
REMARK    1  A    between atoms: C_1  and  C_2
REMARK    2  A    between atoms: C_2  and  C_3
REMARK    3  A    between atoms: C_2  and  S_4
REMARK    4  A    between atoms: S_4  and  C_7
REMARK    5  A    between atoms: C_12  and  N_13
REMARK    6  A    between atoms: C_17  and  C_20
REMARK    7  A    between atoms: C_20  and  C_21
REMARK                            x       y       z     vdW  Elec       q    Type
REMARK                         _______ _______ _______ _____ _____    ______ ____
ROOT
ATOM      1  N   UNL     1      -0.466  -2.455  -2.254  0.00  0.00    -0.332 N 
ATOM      2  C   UNL     1       0.936  -2.076  -2.489  0.00  0.00    +0.086 C 
ATOM      3  C   UNL     1       0.968  -0.643  -3.030  0.00  0.00    -0.063 C 
ATOM      4  N   UNL     1       0.108  -0.549  -4.216  0.00  0.00    +0.383 N 
ATOM      5  C   UNL     1      -1.290  -0.799  -3.842  0.00  0.00    -0.050 C 
ATOM      6  C   UNL     1      -1.432  -2.246  -3.344  0.00  0.00    +0.089 C 
ATOM      7  H   UNL     1       0.188   0.374  -4.616  0.00  0.00    -0.085 HD
ATOM      8  H   UNL     1       0.400  -1.234  -4.897  0.00  0.00    -0.085 HD
ENDROOT
BRANCH   1  14
ATOM      9  C   UNL     1      -0.716  -4.364  -0.799  0.00  0.00    +0.110 A 
ATOM     10  C   UNL     1      -1.108  -4.903   0.411  0.00  0.00    +0.043 A 
ATOM     11  C   UNL     1      -1.657  -4.090   1.386  0.00  0.00    +0.015 A 
ATOM     12  C   UNL     1      -1.815  -2.735   1.153  0.00  0.00    +0.016 A 
ATOM     13  C   UNL     1      -1.424  -2.191  -0.055  0.00  0.00    +0.026 A 
ATOM     14  C   UNL     1      -0.867  -3.004  -1.034  0.00  0.00    +0.055 A 
ATOM     15  I   UNL     1      -2.251  -4.911   3.220  0.00  0.00    -0.044 I 
BRANCH   9  16
ATOM     16  S   UNL     1      -0.017  -5.401  -2.041  0.00  0.00    +0.001 S 
ATOM     17  O   UNL     1       0.126  -6.669  -1.416  0.00  0.00    -0.169 OA
ATOM     18  O   UNL     1       1.122  -4.691  -2.507  0.00  0.00    -0.169 OA
BRANCH  16  20
ATOM     19  C   UNL     1      -0.747  -6.312  -4.514  0.00  0.00    +0.032 C 
ATOM     20  C   UNL     1      -1.278  -5.484  -3.342  0.00  0.00    +0.130 C 
ATOM     21  C   UNL     1      -2.543  -6.140  -2.786  0.00  0.00    +0.032 C 
ENDBRANCH  16  20
ENDBRANCH   9  16
ENDBRANCH   1  14
BRANCH   5  22
ATOM     22  C   UNL     1      -2.190  -0.591  -5.062  0.00  0.00    +0.021 C 
BRANCH  22  23
ATOM     23  C   UNL     1      -2.142   0.856  -5.480  0.00  0.00    -0.049 A 
ATOM     24  C   UNL     1      -3.040   1.760  -4.944  0.00  0.00    +0.003 A 
ATOM     25  C   UNL     1      -2.997   3.088  -5.328  0.00  0.00    +0.000 A 
ATOM     26  C   UNL     1      -2.054   3.511  -6.246  0.00  0.00    +0.000 A 
ATOM     27  C   UNL     1      -1.155   2.607  -6.780  0.00  0.00    +0.000 A 
ATOM     28  C   UNL     1      -1.196   1.281  -6.394  0.00  0.00    +0.003 A 
ENDBRANCH  22  23
ENDBRANCH   5  22
TORSDOF 5
