REMARK  Name = ZINC14476934
REMARK  3 active torsions:
REMARK  status: ('A' for Active; 'I' for Inactive)
REMARK    1  A    between atoms: C_3  and  C_9
REMARK    2  A    between atoms: C_19  and  N_26
REMARK    3  A    between atoms: C_22  and  O_25
REMARK                            x       y       z     vdW  Elec       q    Type
REMARK                         _______ _______ _______ _____ _____    ______ ____
ROOT
ATOM      1  C   UNL     1       1.126  -0.504  -1.080  0.00  0.00    +0.106 C 
ATOM      2  C   UNL     1       2.160   0.100  -0.153  0.00  0.00    +0.029 C 
ATOM      3  C   UNL     1       3.628  -0.288  -0.361  0.00  0.00    +0.033 C 
ATOM      4  C   UNL     1       4.349   0.968   0.135  0.00  0.00    -0.030 C 
ATOM      5  C   UNL     1       3.557   2.026   0.002  0.00  0.00    -0.023 C 
ATOM      6  C   UNL     1       2.281   1.586  -0.614  0.00  0.00    +0.051 C 
ATOM      7  C   UNL     1       0.985   2.232  -0.309  0.00  0.00    +0.014 A 
ATOM      8  C   UNL     1       0.904   3.564   0.045  0.00  0.00    +0.132 A 
ATOM      9  C   UNL     1      -0.320   4.148   0.307  0.00  0.00    +0.037 A 
ATOM     10  C   UNL     1      -1.474   3.391   0.212  0.00  0.00    +0.049 A 
ATOM     11  C   UNL     1      -1.403   2.057  -0.134  0.00  0.00    +0.138 A 
ATOM     12  C   UNL     1      -0.168   1.451  -0.398  0.00  0.00    +0.076 A 
ATOM     13  N   UNL     1      -0.171   0.095  -0.729  0.00  0.00    -0.334 N 
ATOM     14  H   UNL     1      -1.082  -0.522  -0.737  0.00  0.00    +0.147 HD
ENDROOT
BRANCH   1  17
ATOM     15  C   UNL     1       0.170  -3.912   0.234  0.00  0.00    +0.002 A 
ATOM     16  C   UNL     1       0.220  -2.542   0.056  0.00  0.00    +0.007 A 
ATOM     17  C   UNL     1       1.073  -1.997  -0.886  0.00  0.00    -0.007 A 
ATOM     18  C   UNL     1       1.872  -2.824  -1.655  0.00  0.00    +0.064 A 
ATOM     19  C   UNL     1       1.825  -4.196  -1.473  0.00  0.00    +0.060 A 
ATOM     20  C   UNL     1       0.972  -4.739  -0.529  0.00  0.00    +0.021 A 
ATOM     21 CL   UNL     1       2.833  -5.234  -2.432  0.00  0.00    -0.082 Cl
ATOM     22 CL   UNL     1       2.938  -2.142  -2.844  0.00  0.00    -0.082 Cl
ENDBRANCH   1  17
BRANCH   8  23
ATOM     23  N   UNL     1       2.140   4.372   0.146  0.00  0.00    +0.057 N 
ATOM     24  O   UNL     1       2.349   5.043   1.141  0.00  0.00    -0.126 OA
ATOM     25  O   UNL     1       2.947   4.367  -0.765  0.00  0.00    -0.126 OA
ENDBRANCH   8  23
BRANCH  11  26
ATOM     26  O   UNL     1      -2.544   1.322  -0.220  0.00  0.00    -0.505 OA
ATOM     27  H   UNL     1      -2.494   0.259  -0.496  0.00  0.00    +0.292 HD
ENDBRANCH  11  26
TORSDOF 3
