REMARK  Name = ZINC30987287
REMARK  9 active torsions:
REMARK  status: ('A' for Active; 'I' for Inactive)
REMARK    1  A    between atoms: C_6  and  C_7
REMARK    2  A    between atoms: C_9  and  C_12
REMARK    3  A    between atoms: C_12  and  N_13
REMARK    4  A    between atoms: C_16  and  C_19
REMARK    5  A    between atoms: N_21  and  C_22
REMARK    6  A    between atoms: C_22  and  C_23
REMARK    7  A    between atoms: C_23  and  C_24
REMARK    8  A    between atoms: C_24  and  O_25
REMARK    9  A    between atoms: O_25  and  C_26
REMARK                            x       y       z     vdW  Elec       q    Type
REMARK                         _______ _______ _______ _____ _____    ______ ____
ROOT
ATOM      1  N   UNL     1      -3.851   2.500   1.313  0.00  0.00    +0.386 N 
ATOM      2  C   UNL     1      -3.812   1.686   0.091  0.00  0.00    -0.077 C 
ATOM      3  C   UNL     1      -2.481   0.935   0.019  0.00  0.00    -0.006 C 
ATOM      4  C   UNL     1      -1.330   1.944   0.019  0.00  0.00    +0.071 C 
ATOM      5  C   UNL     1      -1.421   2.811   1.278  0.00  0.00    -0.006 C 
ATOM      6  C   UNL     1      -2.783   3.508   1.313  0.00  0.00    -0.077 C 
ATOM      7  H   UNL     1      -3.679   1.829   2.167  0.00  0.00    -0.081 HD
ENDROOT
BRANCH   4   8
ATOM      8  C   UNL     1      -0.014   1.209   0.009  0.00  0.00    +0.216 C 
ATOM      9  O   UNL     1       0.002  -0.004   0.002  0.00  0.00    -0.276 OA
ATOM     10  N   UNL     1       1.143   1.898   0.001  0.00  0.00    -0.315 N 
ATOM     11  H   UNL     1       1.129   2.998   0.007  0.00  0.00    +0.149 HD
BRANCH  10  12
ATOM     12  C   UNL     1       2.422   1.183  -0.015  0.00  0.00    +0.106 C 
BRANCH  12  13
ATOM     13  C   UNL     1       3.571   2.193  -0.020  0.00  0.00    +0.047 C 
BRANCH  13  14
ATOM     14  C   UNL     1       4.907   1.446  -0.037  0.00  0.00    +0.161 C 
BRANCH  14  15
ATOM     15  O   UNL     1       5.980   2.389  -0.042  0.00  0.00    -0.377 OA
BRANCH  15  16
ATOM     16  C   UNL     1       7.278   1.793  -0.058  0.00  0.00    +0.118 C 
ATOM     17  C   UNL     1       7.755   1.572   1.379  0.00  0.00    +0.031 C 
ATOM     18  C   UNL     1       9.145   0.933   1.362  0.00  0.00    +0.003 C 
ATOM     19  C   UNL     1      10.124   1.859   0.637  0.00  0.00    +0.000 C 
ATOM     20  C   UNL     1       9.646   2.079  -0.800  0.00  0.00    +0.003 C 
ATOM     21  C   UNL     1       8.257   2.719  -0.783  0.00  0.00    +0.031 C 
ENDBRANCH  15  16
ENDBRANCH  14  15
ENDBRANCH  13  14
ENDBRANCH  12  13
ENDBRANCH  10  12
ENDBRANCH   4   8
BRANCH   1  22
ATOM     22  C   UNL     1      -5.168   3.127   1.486  0.00  0.00    +0.022 C 
BRANCH  22  25
ATOM     23  C   UNL     1      -5.162   5.077   4.505  0.00  0.00    +0.202 A 
ATOM     24  N   UNL     1      -4.917   4.970   3.180  0.00  0.00    -0.193 NA
ATOM     25  C   UNL     1      -5.253   3.747   2.857  0.00  0.00    +0.211 A 
ATOM     26  O   UNL     1      -5.691   3.152   3.971  0.00  0.00    -0.340 OA
ATOM     27  N   UNL     1      -5.629   3.922   4.905  0.00  0.00    -0.056 NA
BRANCH  23  33
ATOM     28  C   UNL     1      -4.430   7.444   4.784  0.00  0.00    +0.013 A 
ATOM     29  C   UNL     1      -4.232   8.560   5.571  0.00  0.00    +0.021 A 
ATOM     30  C   UNL     1      -4.532   8.519   6.922  0.00  0.00    +0.041 A 
ATOM     31  C   UNL     1      -5.037   7.361   7.489  0.00  0.00    +0.021 A 
ATOM     32  C   UNL     1      -5.243   6.242   6.709  0.00  0.00    +0.013 A 
ATOM     33  C   UNL     1      -4.943   6.278   5.349  0.00  0.00    +0.023 A 
ATOM     34 CL   UNL     1      -4.275   9.924   7.908  0.00  0.00    -0.084 Cl
ENDBRANCH  23  33
ENDBRANCH  22  25
ENDBRANCH   1  22
TORSDOF 9
