REMARK  Name = ZINC40481795
REMARK  4 active torsions:
REMARK  status: ('A' for Active; 'I' for Inactive)
REMARK    1  A    between atoms: C_5  and  C_8
REMARK    2  A    between atoms: C_5  and  N_11
REMARK    3  A    between atoms: C_12  and  C_14
REMARK    4  A    between atoms: C_14  and  N_20
REMARK                            x       y       z     vdW  Elec       q    Type
REMARK                         _______ _______ _______ _____ _____    ______ ____
ROOT
ATOM      1  N   UNL     1       2.611  -0.166  -0.850  0.00  0.00    -0.301 N 
ATOM      2  C   UNL     1       2.816  -1.299  -0.150  0.00  0.00    +0.202 C 
ATOM      3  O   UNL     1       2.161  -2.290  -0.395  0.00  0.00    -0.277 OA
ATOM      4  H   UNL     1       3.135   0.627  -0.654  0.00  0.00    +0.150 HD
ENDROOT
BRANCH   1   9
ATOM      5  C   UNL     1      -0.032   1.513   0.022  0.00  0.00    +0.000 C 
ATOM      6  C   UNL     1       1.385   2.021   0.015  0.00  0.00    +0.000 C 
ATOM      7  C   UNL     1       1.891   2.334  -1.406  0.00  0.00    +0.003 C 
ATOM      8  C   UNL     1       1.470   1.272  -2.438  0.00  0.00    +0.037 C 
ATOM      9  C   UNL     1       1.598  -0.130  -1.907  0.00  0.00    +0.136 C 
ATOM     10  C   UNL     1       0.234  -0.562  -1.331  0.00  0.00    +0.037 C 
ATOM     11  C   UNL     1       0.000  -0.029   0.003  0.00  0.00    +0.003 C 
BRANCH   9  12
ATOM     12  C   UNL     1       1.993  -1.061  -3.024  0.00  0.00    +0.379 C 
ATOM     13  O   UNL     1       3.034  -1.692  -2.952  0.00  0.00    -0.244 OA
ATOM     14  O   UNL     1       1.273  -1.183  -4.000  0.00  0.00    -0.244 OA
ENDBRANCH   9  12
ENDBRANCH   1   9
BRANCH   2  15
ATOM     15  C   UNL     1       3.859  -1.335   0.938  0.00  0.00    +0.007 C 
ATOM     16  C   UNL     1       5.243  -1.518   0.311  0.00  0.00    -0.004 C 
ATOM     17  C   UNL     1       5.278  -2.831  -0.473  0.00  0.00    -0.001 C 
ATOM     18  C   UNL     1       4.988  -3.998   0.473  0.00  0.00    -0.000 C 
ATOM     19  C   UNL     1       3.604  -3.815   1.099  0.00  0.00    -0.001 C 
ATOM     20  C   UNL     1       3.569  -2.502   1.883  0.00  0.00    -0.004 C 
BRANCH  15  21
ATOM     21  N   UNL     1       3.825  -0.074   1.691  0.00  0.00    +0.388 N 
ATOM     22  H   UNL     1       2.912   0.046   2.104  0.00  0.00    -0.089 HD
ATOM     23  H   UNL     1       4.523  -0.098   2.419  0.00  0.00    -0.089 HD
ATOM     24  H   UNL     1       4.016   0.696   1.067  0.00  0.00    -0.089 HD
ENDBRANCH  15  21
ENDBRANCH   2  15
TORSDOF 4
