REMARK  Name = ZINC55132884
REMARK  7 active torsions:
REMARK  status: ('A' for Active; 'I' for Inactive)
REMARK    1  A    between atoms: C_1  and  C_2
REMARK    2  A    between atoms: C_2  and  C_3
REMARK    3  A    between atoms: C_6  and  C_9
REMARK    4  A    between atoms: C_9  and  N_10
REMARK    5  A    between atoms: C_11  and  C_13
REMARK    6  A    between atoms: C_17  and  N_23
REMARK    7  A    between atoms: C_19  and  C_22
REMARK                            x       y       z     vdW  Elec       q    Type
REMARK                         _______ _______ _______ _____ _____    ______ ____
ROOT
ATOM      1  N   UNL     1       3.430  -4.262  -1.176  0.00  0.00    -0.315 N 
ATOM      2  C   UNL     1       3.954  -5.004  -2.173  0.00  0.00    +0.216 C 
ATOM      3  O   UNL     1       4.404  -4.462  -3.160  0.00  0.00    -0.276 OA
ATOM      4  H   UNL     1       3.070  -4.696  -0.387  0.00  0.00    +0.149 HD
ENDROOT
BRANCH   2   5
ATOM      5  C   UNL     1       3.979  -6.506  -2.060  0.00  0.00    +0.075 C 
ATOM      6  C   UNL     1       2.549  -7.031  -1.921  0.00  0.00    +0.011 C 
ATOM      7  C   UNL     1       2.574  -8.557  -1.807  0.00  0.00    -0.015 C 
ATOM      8  C   UNL     1       3.216  -9.151  -3.062  0.00  0.00    -0.072 C 
ATOM      9  C   UNL     1       4.646  -8.626  -3.202  0.00  0.00    -0.028 C 
ATOM     10  C   UNL     1       4.620  -7.101  -3.316  0.00  0.00    +0.014 C 
ATOM     11  C   UNL     1       5.460  -9.032  -1.972  0.00  0.00    +0.006 C 
BRANCH   8  12
ATOM     12  N   UNL     1       3.240 -10.616  -2.953  0.00  0.00    +0.380 N 
ATOM     13  H   UNL     1       2.297 -10.962  -2.861  0.00  0.00    -0.090 HD
ATOM     14  H   UNL     1       3.663 -11.008  -3.781  0.00  0.00    -0.090 HD
ATOM     15  H   UNL     1       3.777 -10.884  -2.142  0.00  0.00    -0.090 HD
ENDBRANCH   8  12
ENDBRANCH   2   5
BRANCH   1  16
ATOM     16  C   UNL     1       3.406  -2.801  -1.285  0.00  0.00    +0.107 C 
BRANCH  16  20
ATOM     17  C   UNL     1       0.742  -0.511   1.242  0.00  0.00    -0.011 C 
ATOM     18  C   UNL     1       2.210  -0.086   1.169  0.00  0.00    +0.004 C 
ATOM     19  C   UNL     1       2.851  -0.680  -0.087  0.00  0.00    +0.005 C 
ATOM     20  C   UNL     1       2.765  -2.207  -0.030  0.00  0.00    +0.006 C 
ATOM     21  C   UNL     1       1.297  -2.632   0.043  0.00  0.00    +0.005 C 
ATOM     22  C   UNL     1       0.655  -2.037   1.299  0.00  0.00    +0.004 C 
BRANCH  17  24
ATOM     23  C   UNL     1      -0.019   1.526   0.010  0.00  0.00    +0.004 C 
ATOM     24  C   UNL     1       0.002  -0.004   0.002  0.00  0.00    -0.000 C 
ENDBRANCH  17  24
ENDBRANCH  16  20
ENDBRANCH   1  16
TORSDOF 5
