REMARK  Name = ZINC63530743
REMARK  9 active torsions:
REMARK  status: ('A' for Active; 'I' for Inactive)
REMARK    1  A    between atoms: C_1  and  C_2
REMARK    2  A    between atoms: C_2  and  O_3
REMARK    3  A    between atoms: O_3  and  C_4
REMARK    4  A    between atoms: C_7  and  C_10
REMARK    5  A    between atoms: C_10  and  N_11
REMARK    6  A    between atoms: C_12  and  C_14
REMARK    7  A    between atoms: C_16  and  S_25
REMARK    8  A    between atoms: C_20  and  C_24
REMARK    9  A    between atoms: S_25  and  C_26
REMARK                            x       y       z     vdW  Elec       q    Type
REMARK                         _______ _______ _______ _____ _____    ______ ____
ROOT
ATOM      1  C   UNL     1      -2.186  -7.996   2.599  0.00  0.00    +0.204 C 
ATOM      2  C   UNL     1      -3.490  -8.051   3.364  0.00  0.00    +0.030 C 
ATOM      3  C   UNL     1      -3.720  -9.400   3.617  0.00  0.00    +0.010 A 
ATOM      4  C   UNL     1      -4.762 -10.079   4.286  0.00  0.00    +0.011 A 
ATOM      5  C   UNL     1      -4.728 -11.433   4.386  0.00  0.00    +0.004 A 
ATOM      6  C   UNL     1      -3.681 -12.179   3.843  0.00  0.00    -0.048 A 
ATOM      7  C   UNL     1      -2.648 -11.592   3.189  0.00  0.00    +0.029 A 
ATOM      8  C   UNL     1      -2.615 -10.183   3.043  0.00  0.00    +0.044 A 
ATOM      9  N   UNL     1      -1.737  -9.385   2.461  0.00  0.00    -0.369 N 
ATOM     10  C   UNL     1      -3.699 -13.679   3.988  0.00  0.00    +0.044 C 
ATOM     11  H   UNL     1      -0.925  -9.671   2.014  0.00  0.00    +0.161 HD
ENDROOT
BRANCH   1  13
ATOM     12  N   UNL     1      -2.473  -6.045   1.105  0.00  0.00    -0.309 N 
ATOM     13  C   UNL     1      -2.407  -7.385   1.239  0.00  0.00    +0.241 C 
ATOM     14  O   UNL     1      -2.526  -8.098   0.266  0.00  0.00    -0.273 OA
ATOM     15  H   UNL     1      -2.378  -5.474   1.884  0.00  0.00    +0.149 HD
BRANCH  12  16
ATOM     16  C   UNL     1      -2.688  -5.451  -0.216  0.00  0.00    +0.139 C 
BRANCH  16  20
ATOM     17  C   UNL     1      -2.784  -1.193   0.134  0.00  0.00    +0.121 A 
ATOM     18  C   UNL     1      -1.581  -1.844  -0.098  0.00  0.00    +0.046 A 
ATOM     19  C   UNL     1      -1.553  -3.221  -0.211  0.00  0.00    +0.009 A 
ATOM     20  C   UNL     1      -2.722  -3.950  -0.093  0.00  0.00    -0.030 A 
ATOM     21  C   UNL     1      -3.922  -3.303   0.138  0.00  0.00    +0.009 A 
ATOM     22  C   UNL     1      -3.955  -1.927   0.257  0.00  0.00    +0.046 A 
BRANCH  17  23
ATOM     23  O   UNL     1      -2.814   0.161   0.245  0.00  0.00    -0.492 OA
BRANCH  23  25
ATOM     24  C   UNL     1      -1.803   2.356   0.261  0.00  0.00    +0.048 C 
ATOM     25  C   UNL     1      -1.571   0.851   0.107  0.00  0.00    +0.225 C 
ENDBRANCH  23  25
ENDBRANCH  17  23
ENDBRANCH  16  20
ENDBRANCH  12  16
ENDBRANCH   1  13
BRANCH   2  26
ATOM     26  S   UNL     1      -4.447  -6.770   3.809  0.00  0.00    -0.091 S 
BRANCH  26  27
ATOM     27  C   UNL     1      -3.480  -5.912   5.006  0.00  0.00    +0.013 A 
ATOM     28  C   UNL     1      -2.278  -6.451   5.447  0.00  0.00    +0.016 A 
ATOM     29  C   UNL     1      -1.522  -5.777   6.385  0.00  0.00    +0.021 A 
ATOM     30  C   UNL     1      -1.962  -4.564   6.888  0.00  0.00    +0.041 A 
ATOM     31  C   UNL     1      -3.159  -4.024   6.451  0.00  0.00    +0.021 A 
ATOM     32  C   UNL     1      -3.916  -4.691   5.508  0.00  0.00    +0.016 A 
ATOM     33 CL   UNL     1      -1.011  -3.719   8.068  0.00  0.00    -0.084 Cl
ENDBRANCH  26  27
ENDBRANCH   2  26
TORSDOF 7
