REMARK  Name = ZINC60391014
REMARK  16 active torsions:
REMARK  status: ('A' for Active; 'I' for Inactive)
REMARK    1  A    between atoms: C_1  and  C_2
REMARK    2  A    between atoms: C_2  and  N_3
REMARK    3  A    between atoms: N_3  and  C_4
REMARK    4  A    between atoms: N_3  and  C_6
REMARK    5  A    between atoms: C_4  and  C_5
REMARK    6  A    between atoms: C_6  and  C_8
REMARK    7  A    between atoms: C_6  and  C_30
REMARK    8  A    between atoms: C_8  and  N_9
REMARK    9  A    between atoms: C_10  and  C_12
REMARK   10  A    between atoms: C_12  and  C_14
REMARK   11  A    between atoms: C_12  and  N_18
REMARK   12  A    between atoms: C_14  and  C_15
REMARK   13  A    between atoms: C_15  and  S_16
REMARK   14  A    between atoms: S_16  and  C_17
REMARK   15  A    between atoms: C_19  and  C_21
REMARK   16  A    between atoms: C_25  and  N_27
REMARK                            x       y       z     vdW  Elec       q    Type
REMARK                         _______ _______ _______ _____ _____    ______ ____
ROOT
ATOM      1  N   UNL     1       1.403   0.730  -0.872  0.00  0.00    -0.315 N 
ATOM      2  C   UNL     1       2.292   1.739  -0.960  0.00  0.00    +0.233 C 
ATOM      3  O   UNL     1       2.975   1.860  -1.955  0.00  0.00    -0.274 OA
ATOM      4  H   UNL     1       0.806   0.675  -0.109  0.00  0.00    +0.149 HD
ENDROOT
BRANCH   1   5
ATOM      5  C   UNL     1       1.336  -0.282  -1.929  0.00  0.00    +0.093 C 
BRANCH   5   6
ATOM      6  C   UNL     1       0.170  -1.233  -1.651  0.00  0.00    -0.020 C 
BRANCH   6   7
ATOM      7  C   UNL     1       0.205  -2.372  -2.637  0.00  0.00    -0.059 A 
ATOM      8  C   UNL     1       1.399  -2.736  -3.230  0.00  0.00    +0.002 A 
ATOM      9  C   UNL     1       1.432  -3.781  -4.135  0.00  0.00    +0.000 A 
ATOM     10  C   UNL     1       0.270  -4.462  -4.446  0.00  0.00    +0.000 A 
ATOM     11  C   UNL     1      -0.925  -4.099  -3.852  0.00  0.00    +0.000 A 
ATOM     12  C   UNL     1      -0.956  -3.057  -2.944  0.00  0.00    +0.002 A 
ENDBRANCH   6   7
BRANCH   6  13
ATOM     13  N   UNL     1       0.285  -1.763  -0.286  0.00  0.00    +0.385 N 
ATOM     14  H   UNL     1       0.347  -0.998   0.368  0.00  0.00    -0.081 HD
BRANCH  13  16
ATOM     15  C   UNL     1      -2.139  -1.682   0.058  0.00  0.00    -0.017 C 
ATOM     16  C   UNL     1      -0.898  -2.577   0.024  0.00  0.00    -0.081 C 
ENDBRANCH  13  16
BRANCH  13  17
ATOM     17  C   UNL     1       1.492  -2.595  -0.183  0.00  0.00    -0.081 C 
ATOM     18  C   UNL     1       2.683  -1.718   0.209  0.00  0.00    -0.017 C 
ENDBRANCH  13  17
ENDBRANCH   6  13
ENDBRANCH   5   6
ENDBRANCH   1   5
BRANCH   2  19
ATOM     19  C   UNL     1       2.439   2.715   0.179  0.00  0.00    +0.160 C 
BRANCH  19  20
ATOM     20  N   UNL     1       3.467   3.704  -0.156  0.00  0.00    -0.300 N 
ATOM     21  C   UNL     1       4.131   4.345   0.826  0.00  0.00    +0.245 C 
ATOM     22  O   UNL     1       3.878   4.103   1.990  0.00  0.00    -0.270 OA
ATOM     23  H   UNL     1       3.669   3.898  -1.085  0.00  0.00    +0.150 HD
BRANCH  21  24
ATOM     24  C   UNL     1       5.168   5.344   0.488  0.00  0.00    +0.039 A 
ATOM     25  C   UNL     1       5.457   5.629  -0.848  0.00  0.00    +0.013 A 
ATOM     26  C   UNL     1       6.425   6.562  -1.156  0.00  0.00    +0.003 A 
ATOM     27  C   UNL     1       7.109   7.214  -0.145  0.00  0.00    +0.033 A 
ATOM     28  C   UNL     1       6.828   6.936   1.180  0.00  0.00    +0.127 A 
ATOM     29  C   UNL     1       5.857   6.009   1.502  0.00  0.00    +0.045 A 
BRANCH  28  30
ATOM     30  N   UNL     1       7.565   7.637   2.255  0.00  0.00    +0.056 N 
ATOM     31  O   UNL     1       8.412   8.453   1.974  0.00  0.00    -0.126 OA
ATOM     32  O   UNL     1       7.320   7.395   3.414  0.00  0.00    -0.126 OA
ENDBRANCH  28  30
ENDBRANCH  21  24
ENDBRANCH  19  20
BRANCH  19  33
ATOM     33  C   UNL     1       1.106   3.426   0.417  0.00  0.00    +0.042 C 
BRANCH  33  34
ATOM     34  C   UNL     1       1.219   4.324   1.649  0.00  0.00    +0.071 C 
BRANCH  34  35
ATOM     35  S   UNL     1      -0.362   5.167   1.932  0.00  0.00    -0.164 S 
ATOM     36  C   UNL     1      -0.064   6.178   3.408  0.00  0.00    +0.084 C 
ENDBRANCH  34  35
ENDBRANCH  33  34
ENDBRANCH  19  33
ENDBRANCH   2  19
TORSDOF 13
