REMARK  Name = ZINC60157178
REMARK  13 active torsions:
REMARK  status: ('A' for Active; 'I' for Inactive)
REMARK    1  A    between atoms: C_1  and  C_2
REMARK    2  A    between atoms: C_2  and  N_3
REMARK    3  A    between atoms: N_3  and  C_4
REMARK    4  A    between atoms: N_3  and  C_6
REMARK    5  A    between atoms: C_4  and  C_5
REMARK    6  A    between atoms: C_6  and  C_8
REMARK    7  A    between atoms: C_6  and  C_31
REMARK    8  A    between atoms: C_8  and  N_9
REMARK    9  A    between atoms: C_10  and  C_12
REMARK   10  A    between atoms: C_16  and  S_18
REMARK   11  A    between atoms: S_18  and  N_21
REMARK   12  A    between atoms: C_23  and  C_30
REMARK   13  A    between atoms: C_26  and  C_29
REMARK                            x       y       z     vdW  Elec       q    Type
REMARK                         _______ _______ _______ _____ _____    ______ ____
ROOT
ATOM      1  N   UNL     1       0.395  -1.496  -1.294  0.00  0.00    -0.312 N 
ATOM      2  C   UNL     1       0.614  -1.617  -2.619  0.00  0.00    +0.244 C 
ATOM      3  O   UNL     1       1.442  -2.408  -3.028  0.00  0.00    -0.270 OA
ATOM      4  H   UNL     1      -0.266  -0.865  -0.968  0.00  0.00    +0.149 HD
ENDROOT
BRANCH   2   5
ATOM      5  C   UNL     1      -0.153  -0.790  -3.574  0.00  0.00    +0.039 A 
ATOM      6  C   UNL     1      -1.101   0.122  -3.107  0.00  0.00    +0.013 A 
ATOM      7  C   UNL     1      -1.813   0.891  -4.004  0.00  0.00    +0.003 A 
ATOM      8  C   UNL     1      -1.590   0.760  -5.363  0.00  0.00    +0.028 A 
ATOM      9  C   UNL     1      -0.653  -0.143  -5.832  0.00  0.00    +0.106 A 
ATOM     10  C   UNL     1       0.071  -0.914  -4.946  0.00  0.00    +0.041 A 
BRANCH   9  11
ATOM     11  S   UNL     1      -0.377  -0.303  -7.565  0.00  0.00    +0.061 S 
ATOM     12  O   UNL     1       0.161  -1.602  -7.772  0.00  0.00    -0.153 OA
ATOM     13  O   UNL     1      -1.563   0.142  -8.208  0.00  0.00    -0.153 OA
BRANCH  11  14
ATOM     14  N   UNL     1       0.815   0.772  -7.973  0.00  0.00    -0.172 NA
ATOM     15  C   UNL     1       0.487   2.150  -8.374  0.00  0.00    +0.140 C 
ATOM     16  C   UNL     1       1.348   3.112  -7.548  0.00  0.00    +0.131 C 
ATOM     17  O   UNL     1       2.721   2.728  -7.659  0.00  0.00    -0.371 OA
ATOM     18  C   UNL     1       3.009   1.428  -7.139  0.00  0.00    +0.131 C 
ATOM     19  C   UNL     1       2.233   0.381  -7.939  0.00  0.00    +0.140 C 
ATOM     20  C   UNL     1       4.509   1.153  -7.253  0.00  0.00    +0.039 C 
ATOM     21  C   UNL     1       0.917   3.053  -6.081  0.00  0.00    +0.039 C 
ENDBRANCH  11  14
ENDBRANCH   9  11
ENDBRANCH   2   5
BRANCH   1  22
ATOM     22  C   UNL     1       1.155  -2.315  -0.348  0.00  0.00    +0.097 C 
BRANCH  22  23
ATOM     23  C   UNL     1       0.641  -2.065   1.071  0.00  0.00    +0.016 C 
BRANCH  23  24
ATOM     24  C   UNL     1       1.506  -2.807   2.057  0.00  0.00    +0.093 A 
ATOM     25  C   UNL     1       1.202  -3.979   2.644  0.00  0.00    +0.043 A 
ATOM     26  C   UNL     1       2.287  -4.308   3.488  0.00  0.00    +0.041 A 
ATOM     27  C   UNL     1       3.189  -3.318   3.367  0.00  0.00    +0.195 A 
ATOM     28  O   UNL     1       2.713  -2.414   2.495  0.00  0.00    -0.469 OA
ENDBRANCH  23  24
BRANCH  23  29
ATOM     29  N   UNL     1       0.691  -0.626   1.363  0.00  0.00    +0.387 N 
ATOM     30  H   UNL     1       0.056  -0.136   0.750  0.00  0.00    -0.081 HD
BRANCH  29  32
ATOM     31  C   UNL     1      -1.177  -0.758   2.942  0.00  0.00    -0.017 C 
ATOM     32  C   UNL     1       0.299  -0.396   2.760  0.00  0.00    -0.081 C 
ENDBRANCH  29  32
BRANCH  29  33
ATOM     33  C   UNL     1       2.057  -0.130   1.150  0.00  0.00    -0.081 C 
ATOM     34  C   UNL     1       2.076   1.393   1.296  0.00  0.00    -0.017 C 
ENDBRANCH  29  33
ENDBRANCH  23  29
ENDBRANCH  22  23
ENDBRANCH   1  22
TORSDOF 9
