REMARK  Name = ZINC36543697
REMARK  14 active torsions:
REMARK  status: ('A' for Active; 'I' for Inactive)
REMARK    1  A    between atoms: C_1  and  C_2
REMARK    2  A    between atoms: C_2  and  C_3
REMARK    3  A    between atoms: C_2  and  C_4
REMARK    4  A    between atoms: C_2  and  N_5
REMARK    5  A    between atoms: C_6  and  C_8
REMARK    6  A    between atoms: C_8  and  C_10
REMARK    7  A    between atoms: C_8  and  N_19
REMARK    8  A    between atoms: C_11  and  O_18
REMARK    9  A    between atoms: C_13  and  O_17
REMARK   10  A    between atoms: C_15  and  O_16
REMARK   11  A    between atoms: N_19  and  C_20
REMARK   12  A    between atoms: C_27  and  C_29
REMARK   13  A    between atoms: C_32  and  O_35
REMARK   14  A    between atoms: O_35  and  C_36
REMARK                            x       y       z     vdW  Elec       q    Type
REMARK                         _______ _______ _______ _____ _____    ______ ____
ROOT
ATOM      1  C   UNL     1       2.831  -0.805  -2.099  0.00  0.00    +0.204 C 
ENDROOT
BRANCH   1   2
ATOM      2  C   UNL     1       1.453  -0.404  -2.559  0.00  0.00    +0.065 A 
ATOM      3  C   UNL     1       1.069  -0.623  -3.874  0.00  0.00    +0.129 A 
ATOM      4  C   UNL     1      -0.199  -0.254  -4.296  0.00  0.00    +0.091 A 
ATOM      5  C   UNL     1      -1.084   0.333  -3.404  0.00  0.00    +0.124 A 
ATOM      6  C   UNL     1      -0.701   0.550  -2.089  0.00  0.00    +0.091 A 
ATOM      7  C   UNL     1       0.566   0.177  -1.665  0.00  0.00    +0.129 A 
BRANCH   7   8
ATOM      8  O   UNL     1       0.940   0.386  -0.376  0.00  0.00    -0.506 OA
ATOM      9  H   UNL     1       1.353   1.246  -0.220  0.00  0.00    +0.292 HD
ENDBRANCH   7   8
BRANCH   5  10
ATOM     10  O   UNL     1      -2.326   0.695  -3.819  0.00  0.00    -0.507 OA
ATOM     11  H   UNL     1      -2.993   0.001  -3.718  0.00  0.00    +0.292 HD
ENDBRANCH   5  10
BRANCH   3  12
ATOM     12  O   UNL     1       1.937  -1.197  -4.748  0.00  0.00    -0.506 OA
ATOM     13  H   UNL     1       1.933  -2.164  -4.728  0.00  0.00    +0.292 HD
ENDBRANCH   3  12
ENDBRANCH   1   2
BRANCH   1  15
ATOM     14  N   UNL     1       2.497  -1.087   0.335  0.00  0.00    -0.309 N 
ATOM     15  C   UNL     1       3.031  -0.368  -0.671  0.00  0.00    +0.239 C 
ATOM     16  O   UNL     1       3.674   0.632  -0.428  0.00  0.00    -0.273 OA
ATOM     17  H   UNL     1       1.983  -1.887   0.140  0.00  0.00    +0.149 HD
BRANCH  14  19
ATOM     18  C   UNL     1       2.103   0.737   1.916  0.00  0.00    +0.031 C 
ATOM     19  C   UNL     1       2.692  -0.662   1.723  0.00  0.00    +0.026 C 
ATOM     20  C   UNL     1       4.188  -0.634   2.043  0.00  0.00    +0.031 C 
ATOM     21  C   UNL     1       1.988  -1.645   2.661  0.00  0.00    +0.031 C 
ENDBRANCH  14  19
ENDBRANCH   1  15
BRANCH   1  22
ATOM     22  N   UNL     1       3.835  -0.164  -2.952  0.00  0.00    -0.250 N 
ATOM     23  C   UNL     1       4.703  -0.919  -3.655  0.00  0.00    +0.252 C 
ATOM     24  O   UNL     1       4.596  -2.130  -3.652  0.00  0.00    -0.270 OA
BRANCH  22  25
ATOM     25  C   UNL     1       3.894   1.231  -3.036  0.00  0.00    +0.056 A 
ATOM     26  C   UNL     1       2.990   1.919  -3.836  0.00  0.00    +0.025 A 
ATOM     27  C   UNL     1       3.051   3.296  -3.917  0.00  0.00    +0.002 A 
ATOM     28  C   UNL     1       4.010   3.991  -3.203  0.00  0.00    +0.002 A 
ATOM     29  C   UNL     1       4.911   3.311  -2.406  0.00  0.00    +0.022 A 
ATOM     30  C   UNL     1       4.853   1.933  -2.316  0.00  0.00    +0.062 A 
ATOM     31 CL   UNL     1       5.981   1.079  -1.309  0.00  0.00    -0.082 Cl
ENDBRANCH  22  25
BRANCH  23  32
ATOM     32  C   UNL     1       5.782  -0.275  -4.428  0.00  0.00    +0.037 A 
ATOM     33  C   UNL     1       6.967  -0.969  -4.689  0.00  0.00    +0.016 A 
ATOM     34  C   UNL     1       7.972  -0.365  -5.411  0.00  0.00    +0.046 A 
ATOM     35  C   UNL     1       7.809   0.933  -5.880  0.00  0.00    +0.120 A 
ATOM     36  C   UNL     1       6.633   1.627  -5.623  0.00  0.00    +0.046 A 
ATOM     37  C   UNL     1       5.621   1.028  -4.907  0.00  0.00    +0.016 A 
BRANCH  35  38
ATOM     38  O   UNL     1       8.802   1.525  -6.592  0.00  0.00    -0.495 OA
ATOM     39  C   UNL     1       8.569   2.861  -7.044  0.00  0.00    +0.277 C 
ENDBRANCH  35  38
ENDBRANCH  23  32
ENDBRANCH   1  22
TORSDOF 10
