REMARK  Name = ZINC11867317
REMARK  8 active torsions:
REMARK  status: ('A' for Active; 'I' for Inactive)
REMARK    1  A    between atoms: C_1  and  C_2
REMARK    2  A    between atoms: C_2  and  C_3
REMARK    3  A    between atoms: C_8  and  C_28
REMARK    4  A    between atoms: C_12  and  C_15
REMARK    5  A    between atoms: C_13  and  O_14
REMARK    6  A    between atoms: C_15  and  C_17
REMARK    7  A    between atoms: C_15  and  N_61
REMARK    8  A    between atoms: C_30  and  C_33
REMARK                            x       y       z     vdW  Elec       q    Type
REMARK                         _______ _______ _______ _____ _____    ______ ____
ROOT
ATOM      1  C   UNL     1       0.830   5.084   0.298  0.00  0.00    -0.005 A 
ATOM      2  C   UNL     1      -0.238   4.232   0.274  0.00  0.00    +0.022 A 
ATOM      3  C   UNL     1      -0.025   2.859   0.143  0.00  0.00    +0.065 A 
ATOM      4  C   UNL     1      -1.153   1.911   0.112  0.00  0.00    +0.202 A 
ATOM      5  O   UNL     1      -2.309   2.289   0.201  0.00  0.00    -0.286 OA
ATOM      6  C   UNL     1      -0.816   0.483  -0.036  0.00  0.00    +0.089 A 
ATOM      7  C   UNL     1       0.494   0.128  -0.125  0.00  0.00    +0.210 A 
ATOM      8  O   UNL     1       1.484   1.022  -0.092  0.00  0.00    -0.462 OA
ATOM      9  C   UNL     1       1.280   2.349   0.035  0.00  0.00    +0.144 A 
ATOM     10  C   UNL     1       2.354   3.228   0.062  0.00  0.00    +0.028 A 
ATOM     11  C   UNL     1       2.127   4.588   0.192  0.00  0.00    +0.125 A 
ENDROOT
BRANCH   6  12
ATOM     12  C   UNL     1      -1.880  -0.541  -0.082  0.00  0.00    +0.115 A 
ATOM     13  N   UNL     1      -1.776  -1.857  -0.211  0.00  0.00    -0.244 NA
ATOM     14  C   UNL     1      -2.841  -2.626  -0.229  0.00  0.00    +0.046 A 
ATOM     15  C   UNL     1      -4.077  -2.072  -0.126  0.00  0.00    +0.070 A 
ATOM     16  S   UNL     1      -3.654  -0.340   0.012  0.00  0.00    -0.075 S 
ATOM     17  C   UNL     1      -2.692  -4.119  -0.370  0.00  0.00    +0.066 C 
ENDBRANCH   6  12
BRANCH   1  19
ATOM     18  C   UNL     1       0.582   7.214  -0.947  0.00  0.00    +0.009 C 
ATOM     19  C   UNL     1       0.602   6.567   0.439  0.00  0.00    +0.035 C 
ENDBRANCH   1  19
BRANCH  11  20
ATOM     20  O   UNL     1       3.179   5.446   0.217  0.00  0.00    -0.506 OA
ATOM     21  H   UNL     1       3.478   5.676   1.108  0.00  0.00    +0.292 HD
ENDBRANCH  11  20
BRANCH  10  22
ATOM     22  C   UNL     1       3.763   2.705  -0.052  0.00  0.00    +0.000 C 
BRANCH  22  28
ATOM     23  C   UNL     1       5.998   2.886   0.860  0.00  0.00    -0.078 C 
ATOM     24  C   UNL     1       6.879   3.693   1.817  0.00  0.00    -0.019 C 
ATOM     25  C   UNL     1       6.356   3.528   3.246  0.00  0.00    -0.004 C 
ATOM     26  C   UNL     1       4.896   3.985   3.303  0.00  0.00    -0.019 C 
ATOM     27  C   UNL     1       4.072   3.170   2.304  0.00  0.00    -0.078 C 
ATOM     28  N   UNL     1       4.611   3.391   0.945  0.00  0.00    +0.387 N 
ATOM     29  H   UNL     1       4.610   4.398   0.746  0.00  0.00    -0.080 HD
ENDBRANCH  22  28
BRANCH  22  30
ATOM     30  C   UNL     1       4.297   2.997  -1.430  0.00  0.00    -0.056 A 
ATOM     31  C   UNL     1       4.857   4.230  -1.708  0.00  0.00    +0.002 A 
ATOM     32  C   UNL     1       5.351   4.495  -2.971  0.00  0.00    +0.000 A 
ATOM     33  C   UNL     1       5.277   3.532  -3.960  0.00  0.00    +0.000 A 
ATOM     34  C   UNL     1       4.713   2.301  -3.683  0.00  0.00    +0.000 A 
ATOM     35  C   UNL     1       4.222   2.033  -2.419  0.00  0.00    +0.002 A 
ENDBRANCH  22  30
ENDBRANCH  10  22
TORSDOF 6
