REMARK  Name = ZINC41224090
REMARK  7 active torsions:
REMARK  status: ('A' for Active; 'I' for Inactive)
REMARK    1  A    between atoms: C_1  and  C_2
REMARK    2  A    between atoms: C_2  and  O_3
REMARK    3  A    between atoms: O_3  and  C_4
REMARK    4  A    between atoms: C_9  and  C_10
REMARK    5  A    between atoms: N_11  and  N_12
REMARK    6  A    between atoms: C_13  and  C_15
REMARK    7  A    between atoms: C_18  and  O_21
REMARK                            x       y       z     vdW  Elec       q    Type
REMARK                         _______ _______ _______ _____ _____    ______ ____
ROOT
ATOM      1  C   UNL     1      -3.970  -1.528   0.032  0.00  0.00    +0.142 C 
ATOM      2  N   UNL     1      -3.825  -0.238   0.037  0.00  0.00    -0.187 NA
ENDROOT
BRANCH   1   8
ATOM      3  C   UNL     1      -1.498  -1.847   0.006  0.00  0.00    +0.129 A 
ATOM      4  C   UNL     1      -0.390  -2.679  -0.003  0.00  0.00    +0.047 A 
ATOM      5  C   UNL     1      -0.553  -4.051  -0.008  0.00  0.00    +0.019 A 
ATOM      6  C   UNL     1      -1.823  -4.606  -0.004  0.00  0.00    +0.019 A 
ATOM      7  C   UNL     1      -2.937  -3.792   0.004  0.00  0.00    +0.028 A 
ATOM      8  C   UNL     1      -2.785  -2.404   0.016  0.00  0.00    +0.037 A 
ATOM      9 BR   UNL     1      -2.029  -6.486  -0.012  0.00  0.00    -0.050 Br
BRANCH   3  10
ATOM     10  O   UNL     1      -1.339  -0.499   0.012  0.00  0.00    -0.492 OA
BRANCH  10  12
ATOM     11  C   UNL     1      -0.019   1.526   0.010  0.00  0.00    +0.048 C 
ATOM     12  C   UNL     1       0.002  -0.004   0.002  0.00  0.00    +0.226 C 
ENDBRANCH  10  12
ENDBRANCH   3  10
ENDBRANCH   1   8
BRANCH   2  13
ATOM     13  N   UNL     1      -4.952   0.594   0.052  0.00  0.00    -0.203 N 
ATOM     14  C   UNL     1      -4.801   1.933   0.058  0.00  0.00    +0.263 C 
ATOM     15  O   UNL     1      -3.686   2.419   0.050  0.00  0.00    -0.268 OA
ATOM     16  H   UNL     1      -5.841   0.206   0.059  0.00  0.00    +0.178 HD
BRANCH  14  17
ATOM     17  C   UNL     1      -5.987   2.809   0.074  0.00  0.00    +0.039 A 
ATOM     18  C   UNL     1      -7.269   2.253   0.089  0.00  0.00    +0.016 A 
ATOM     19  C   UNL     1      -8.374   3.074   0.105  0.00  0.00    +0.046 A 
ATOM     20  C   UNL     1      -8.216   4.455   0.105  0.00  0.00    +0.117 A 
ATOM     21  C   UNL     1      -6.943   5.013   0.090  0.00  0.00    +0.046 A 
ATOM     22  C   UNL     1      -5.833   4.198   0.080  0.00  0.00    +0.016 A 
BRANCH  20  23
ATOM     23  O   UNL     1      -9.308   5.261   0.120  0.00  0.00    -0.507 OA
ATOM     24  H   UNL     1      -9.614   5.493   1.008  0.00  0.00    +0.292 HD
ENDBRANCH  20  23
ENDBRANCH  14  17
ENDBRANCH   2  13
TORSDOF 6
