REMARK  Name = ZINC36146382
REMARK  13 active torsions:
REMARK  status: ('A' for Active; 'I' for Inactive)
REMARK    1  A    between atoms: C_1  and  C_2
REMARK    2  A    between atoms: C_2  and  C_3
REMARK    3  A    between atoms: C_2  and  O_4
REMARK    4  A    between atoms: O_4  and  C_5
REMARK    5  A    between atoms: C_5  and  C_6
REMARK    6  A    between atoms: C_6  and  C_8
REMARK    7  A    between atoms: C_6  and  O_33
REMARK    8  A    between atoms: C_8  and  N_9
REMARK    9  A    between atoms: N_9  and  C_10
REMARK   10  A    between atoms: N_9  and  C_18
REMARK   11  A    between atoms: C_10  and  C_11
REMARK   12  A    between atoms: C_18  and  C_19
REMARK   13  A    between atoms: C_22  and  C_25
REMARK                            x       y       z     vdW  Elec       q    Type
REMARK                         _______ _______ _______ _____ _____    ______ ____
ROOT
ATOM      1  N   UNL     1      -4.684  -4.045  -1.364  0.00  0.00    +0.387 N 
ATOM      2  H   UNL     1      -5.208  -4.179  -0.512  0.00  0.00    -0.081 HD
ENDROOT
BRANCH   1   3
ATOM      3  C   UNL     1      -3.277  -3.781  -1.036  0.00  0.00    -0.044 C 
BRANCH   3   4
ATOM      4  C   UNL     1      -3.191  -2.594  -0.075  0.00  0.00    +0.124 C 
BRANCH   4   5
ATOM      5  O   UNL     1      -3.809  -2.940   1.166  0.00  0.00    -0.391 OA
ATOM      6  H   UNL     1      -3.402  -3.697   1.610  0.00  0.00    +0.210 HD
ENDBRANCH   4   5
BRANCH   4   7
ATOM      7  C   UNL     1      -1.722  -2.240   0.167  0.00  0.00    +0.189 C 
BRANCH   7   8
ATOM      8  O   UNL     1      -1.643  -1.060   0.971  0.00  0.00    -0.375 OA
BRANCH   8  10
ATOM      9  C   UNL     1      -0.275   0.880   1.421  0.00  0.00    +0.037 C 
ATOM     10  C   UNL     1      -0.307  -0.641   1.258  0.00  0.00    +0.112 C 
ATOM     11  C   UNL     1       0.168  -1.304   2.552  0.00  0.00    +0.037 C 
ENDBRANCH   8  10
ENDBRANCH   7   8
ENDBRANCH   4   7
ENDBRANCH   3   4
ENDBRANCH   1   3
BRANCH   1  12
ATOM     12  C   UNL     1      -5.237  -2.904  -2.105  0.00  0.00    -0.043 C 
BRANCH  12  13
ATOM     13  C   UNL     1      -4.426  -2.677  -3.355  0.00  0.00    -0.063 A 
ATOM     14  C   UNL     1      -3.305  -1.868  -3.314  0.00  0.00    +0.002 A 
ATOM     15  C   UNL     1      -2.561  -1.659  -4.460  0.00  0.00    +0.002 A 
ATOM     16  C   UNL     1      -2.937  -2.258  -5.647  0.00  0.00    +0.020 A 
ATOM     17  C   UNL     1      -4.058  -3.067  -5.689  0.00  0.00    +0.041 A 
ATOM     18  C   UNL     1      -4.800  -3.281  -4.540  0.00  0.00    +0.021 A 
ATOM     19 CL   UNL     1      -4.531  -3.820  -7.180  0.00  0.00    -0.084 Cl
ENDBRANCH  12  13
ENDBRANCH   1  12
BRANCH   1  20
ATOM     20  C   UNL     1      -4.776  -5.257  -2.189  0.00  0.00    -0.030 C 
BRANCH  20  21
ATOM     21  C   UNL     1      -6.244  -5.661  -2.341  0.00  0.00    +0.194 C 
ATOM     22  C   UNL     1      -6.381  -6.934  -3.209  0.00  0.00    +0.104 C 
ATOM     23  C   UNL     1      -7.639  -6.654  -4.009  0.00  0.00    +0.091 C 
ATOM     24  N   UNL     1      -7.906  -5.395  -3.915  0.00  0.00    -0.089 NA
ATOM     25  O   UNL     1      -6.967  -4.691  -3.126  0.00  0.00    -0.392 OA
BRANCH  23  26
ATOM     26  C   UNL     1      -8.422  -7.651  -4.766  0.00  0.00    +0.001 A 
ATOM     27  C   UNL     1      -8.025  -8.989  -4.782  0.00  0.00    +0.011 A 
ATOM     28  C   UNL     1      -8.761  -9.916  -5.490  0.00  0.00    +0.022 A 
ATOM     29  C   UNL     1      -9.893  -9.522  -6.184  0.00  0.00    +0.059 A 
ATOM     30  C   UNL     1     -10.292  -8.195  -6.173  0.00  0.00    +0.060 A 
ATOM     31  C   UNL     1      -9.567  -7.260  -5.463  0.00  0.00    +0.031 A 
ATOM     32 CL   UNL     1     -11.712  -7.710  -7.046  0.00  0.00    -0.082 Cl
ATOM     33 CL   UNL     1     -10.813 -10.695  -7.074  0.00  0.00    -0.082 Cl
ENDBRANCH  23  26
ENDBRANCH  20  21
ENDBRANCH   1  20
TORSDOF 11
