REMARK  Name = ZINC09293554
REMARK  5 active torsions:
REMARK  status: ('A' for Active; 'I' for Inactive)
REMARK    1  A    between atoms: C_1  and  C_2
REMARK    2  A    between atoms: C_4  and  C_16
REMARK    3  A    between atoms: C_5  and  C_15
REMARK    4  A    between atoms: N_6  and  C_7
REMARK    5  A    between atoms: C_26  and  C_28
REMARK                            x       y       z     vdW  Elec       q    Type
REMARK                         _______ _______ _______ _____ _____    ______ ____
ROOT
ATOM      1  C   UNL     1       0.137  -3.385  -1.467  0.00  0.00    +0.026 C 
ATOM      2  C   UNL     1      -0.026  -3.256  -2.831  0.00  0.00    +0.081 C 
ATOM      3  C   UNL     1      -0.088  -1.922  -3.490  0.00  0.00    +0.152 C 
ATOM      4  N   UNL     1       0.575  -0.879  -3.065  0.00  0.00    -0.283 NA
ATOM      5  N   UNL     1      -0.935  -1.895  -4.619  0.00  0.00    -0.152 N 
ATOM      6  C   UNL     1      -1.183  -3.091  -5.258  0.00  0.00    +0.181 C 
ATOM      7  N   UNL     1      -0.800  -4.287  -4.888  0.00  0.00    -0.152 NA
ATOM      8  C   UNL     1      -0.141  -4.437  -3.719  0.00  0.00    +0.273 C 
ATOM      9  O   UNL     1       0.341  -5.512  -3.400  0.00  0.00    -0.268 OA
ATOM     10  S   UNL     1      -2.147  -2.574  -6.653  0.00  0.00    -0.038 S 
ATOM     11  C   UNL     1      -2.240  -0.837  -6.243  0.00  0.00    +0.103 C 
ATOM     12  N   UNL     1      -1.531  -0.772  -5.153  0.00  0.00    -0.169 NA
ATOM     13  H   UNL     1       0.472  -0.024  -3.511  0.00  0.00    +0.188 HD
ENDROOT
BRANCH   1  17
ATOM     14  C   UNL     1      -0.990   1.228   0.257  0.00  0.00    +0.064 C 
ATOM     15  C   UNL     1      -0.483  -0.185   0.130  0.00  0.00    +0.022 A 
ATOM     16  C   UNL     1      -0.613  -0.964  -0.957  0.00  0.00    +0.031 A 
ATOM     17  C   UNL     1       0.025  -2.247  -0.628  0.00  0.00    -0.003 A 
ATOM     18  C   UNL     1       0.494  -2.116   0.669  0.00  0.00    +0.028 A 
ATOM     19  N   UNL     1       0.186  -0.877   1.102  0.00  0.00    -0.316 N 
ATOM     20  C   UNL     1       1.226  -3.172   1.456  0.00  0.00    +0.064 C 
BRANCH  19  21
ATOM     21  C   UNL     1       0.504  -0.370   2.370  0.00  0.00    +0.066 A 
ATOM     22  C   UNL     1      -0.381  -0.537   3.427  0.00  0.00    +0.047 A 
ATOM     23  C   UNL     1      -0.064  -0.037   4.676  0.00  0.00    +0.043 A 
ATOM     24  C   UNL     1       1.133   0.630   4.873  0.00  0.00    +0.021 A 
ATOM     25  C   UNL     1       2.015   0.797   3.822  0.00  0.00    +0.023 A 
ATOM     26  C   UNL     1       1.707   0.294   2.572  0.00  0.00    +0.065 A 
ATOM     27 CL   UNL     1       2.819   0.498   1.255  0.00  0.00    -0.081 Cl
ATOM     28 CL   UNL     1      -1.169  -0.244   5.998  0.00  0.00    -0.083 Cl
ENDBRANCH  19  21
ENDBRANCH   1  17
BRANCH  11  29
ATOM     29  C   UNL     1      -2.957   0.271  -6.973  0.00  0.00    +0.046 C 
ATOM     30  C   UNL     1      -2.285   1.608  -6.656  0.00  0.00    +0.010 C 
ATOM     31  C   UNL     1      -3.012   2.732  -7.396  0.00  0.00    +0.001 C 
ATOM     32  C   UNL     1      -4.474   2.777  -6.947  0.00  0.00    +0.000 C 
ATOM     33  C   UNL     1      -5.146   1.439  -7.264  0.00  0.00    +0.001 C 
ATOM     34  C   UNL     1      -4.419   0.315  -6.523  0.00  0.00    +0.010 C 
ENDBRANCH  11  29
TORSDOF 3
