REMARK  Name = ZINC50389060
REMARK  6 active torsions:
REMARK  status: ('A' for Active; 'I' for Inactive)
REMARK    1  A    between atoms: C_1  and  C_2
REMARK    2  A    between atoms: C_2  and  C_4
REMARK    3  A    between atoms: C_2  and  N_9
REMARK    4  A    between atoms: C_4  and  C_5
REMARK    5  A    between atoms: N_6  and  O_7
REMARK    6  A    between atoms: C_10  and  C_12
REMARK                            x       y       z     vdW  Elec       q    Type
REMARK                         _______ _______ _______ _____ _____    ______ ____
ROOT
ATOM      1  N   UNL     1       0.711  -0.489   1.189  0.00  0.00    -0.308 N 
ATOM      2  C   UNL     1       0.051  -0.633   2.355  0.00  0.00    +0.244 C 
ATOM      3  O   UNL     1      -1.131  -0.361   2.423  0.00  0.00    -0.270 OA
ATOM      4  H   UNL     1       1.654  -0.707   1.135  0.00  0.00    +0.149 HD
ENDROOT
BRANCH   2   5
ATOM      5  C   UNL     1       0.766  -1.123   3.553  0.00  0.00    +0.037 A 
ATOM      6  C   UNL     1       2.126  -1.432   3.480  0.00  0.00    +0.014 A 
ATOM      7  C   UNL     1       2.787  -1.888   4.601  0.00  0.00    +0.015 A 
ATOM      8  C   UNL     1       2.105  -2.041   5.796  0.00  0.00    +0.013 A 
ATOM      9  C   UNL     1       0.757  -1.737   5.875  0.00  0.00    +0.015 A 
ATOM     10  C   UNL     1       0.086  -1.273   4.763  0.00  0.00    +0.014 A 
ATOM     11  I   UNL     1       3.119  -2.736   7.494  0.00  0.00    -0.044 I 
ENDBRANCH   2   5
BRANCH   1  13
ATOM     12  C   UNL     1      -0.019   1.526   0.010  0.00  0.00    +0.028 C 
ATOM     13  C   UNL     1       0.002  -0.004   0.002  0.00  0.00    +0.077 C 
BRANCH  13  14
ATOM     14  C   UNL     1       0.718  -0.497  -1.257  0.00  0.00    +0.096 C 
BRANCH  14  15
ATOM     15  C   UNL     1       0.632  -2.000  -1.327  0.00  0.00    +0.133 C 
ATOM     16  N   UNL     1       0.016  -2.656  -0.400  0.00  0.00    -0.077 NA
ATOM     17  N   UNL     1       1.208  -2.675  -2.381  0.00  0.00    -0.344 N 
ATOM     18  H   UNL     1       1.670  -2.182  -3.077  0.00  0.00    +0.144 HD
ATOM     19  H   UNL     1       1.153  -3.642  -2.426  0.00  0.00    +0.144 HD
BRANCH  16  20
ATOM     20  O   UNL     1      -0.065  -4.068  -0.467  0.00  0.00    -0.408 OA
ATOM     21  H   UNL     1      -0.544  -4.470   0.271  0.00  0.00    +0.328 HD
ENDBRANCH  16  20
ENDBRANCH  14  15
ENDBRANCH  13  14
ENDBRANCH   1  13
TORSDOF 5
