REMARK  Name = ZINC27497787
REMARK  8 active torsions:
REMARK  status: ('A' for Active; 'I' for Inactive)
REMARK    1  A    between atoms: C_1  and  C_2
REMARK    2  A    between atoms: C_2  and  C_4
REMARK    3  A    between atoms: C_2  and  N_21
REMARK    4  A    between atoms: N_6  and  C_7
REMARK    5  A    between atoms: C_7  and  C_8
REMARK    6  A    between atoms: C_8  and  C_10
REMARK    7  A    between atoms: C_8  and  N_15
REMARK    8  A    between atoms: C_22  and  C_24
REMARK                            x       y       z     vdW  Elec       q    Type
REMARK                         _______ _______ _______ _____ _____    ______ ____
ROOT
ATOM      1  C   UNL     1       3.444   2.180  -1.312  0.00  0.00    +0.233 C 
ATOM      2  O   UNL     1       3.271   3.329  -1.657  0.00  0.00    -0.274 OA
ATOM      3  N   UNL     1       4.694   1.685  -1.217  0.00  0.00    -0.315 N 
ATOM      4  H   UNL     1       4.851   0.642  -0.904  0.00  0.00    +0.149 HD
ENDROOT
BRANCH   1   6
ATOM      5  C   UNL     1       2.361   0.827   0.462  0.00  0.00    +0.038 C 
ATOM      6  C   UNL     1       2.260   1.304  -0.988  0.00  0.00    +0.156 C 
BRANCH   6   7
ATOM      7  N   UNL     1       1.024   2.069  -1.166  0.00  0.00    -0.300 N 
ATOM      8  C   UNL     1      -0.132   1.429  -1.433  0.00  0.00    +0.246 C 
ATOM      9  O   UNL     1      -0.148   0.217  -1.526  0.00  0.00    -0.270 OA
ATOM     10  H   UNL     1       1.039   3.166  -1.083  0.00  0.00    +0.150 HD
BRANCH   8  11
ATOM     11  C   UNL     1      -1.378   2.201  -1.619  0.00  0.00    +0.055 A 
ATOM     12  C   UNL     1      -1.364   3.593  -1.507  0.00  0.00    +0.014 A 
ATOM     13  C   UNL     1      -2.530   4.308  -1.688  0.00  0.00    +0.001 A 
ATOM     14  C   UNL     1      -3.714   3.649  -1.967  0.00  0.00    +0.001 A 
ATOM     15  C   UNL     1      -3.738   2.271  -2.073  0.00  0.00    +0.021 A 
ATOM     16  C   UNL     1      -2.577   1.542  -1.901  0.00  0.00    +0.053 A 
ATOM     17 CL   UNL     1      -2.608  -0.189  -2.034  0.00  0.00    -0.083 Cl
ENDBRANCH   8  11
ENDBRANCH   6   7
ENDBRANCH   1   6
BRANCH   3  18
ATOM     18  C   UNL     1       5.844   2.536  -1.532  0.00  0.00    +0.096 C 
BRANCH  18  19
ATOM     19  C   UNL     1       7.138   1.776  -1.232  0.00  0.00    +0.016 C 
BRANCH  19  20
ATOM     20  N   UNL     1       7.134   0.498  -1.955  0.00  0.00    +0.387 N 
ATOM     21  C   UNL     1       8.326  -0.295  -1.628  0.00  0.00    -0.078 C 
ATOM     22  C   UNL     1       8.218  -1.675  -2.282  0.00  0.00    -0.019 C 
ATOM     23  C   UNL     1       8.094  -1.507  -3.799  0.00  0.00    -0.004 C 
ATOM     24  C   UNL     1       6.873  -0.637  -4.110  0.00  0.00    -0.019 C 
ATOM     25  C   UNL     1       7.020   0.713  -3.403  0.00  0.00    -0.078 C 
ATOM     26  H   UNL     1       6.252  -0.073  -1.631  0.00  0.00    -0.081 HD
ENDBRANCH  19  20
BRANCH  19  27
ATOM     27  C   UNL     1       8.319   2.601  -1.675  0.00  0.00    +0.093 A 
ATOM     28  C   UNL     1       9.189   3.228  -0.864  0.00  0.00    +0.043 A 
ATOM     29  C   UNL     1      10.130   3.877  -1.696  0.00  0.00    +0.041 A 
ATOM     30  C   UNL     1       9.779   3.607  -2.966  0.00  0.00    +0.195 A 
ATOM     31  O   UNL     1       8.684   2.829  -2.947  0.00  0.00    -0.469 OA
ENDBRANCH  19  27
ENDBRANCH  18  19
ENDBRANCH   3  18
TORSDOF 7
