REMARK  Name = ZINC08880968
REMARK  9 active torsions:
REMARK  status: ('A' for Active; 'I' for Inactive)
REMARK    1  A    between atoms: C_1  and  C_2
REMARK    2  A    between atoms: C_2  and  N_64
REMARK    3  A    between atoms: C_8  and  N_13
REMARK    4  A    between atoms: C_9  and  C_10
REMARK    5  A    between atoms: C_14  and  C_16
REMARK    6  A    between atoms: C_19  and  S_22
REMARK    7  A    between atoms: S_22  and  N_25
REMARK    8  A    between atoms: C_27  and  C_34
REMARK    9  A    between atoms: C_30  and  C_33
REMARK                            x       y       z     vdW  Elec       q    Type
REMARK                         _______ _______ _______ _____ _____    ______ ____
ROOT
ATOM      1  N   UNL     1       3.006  -2.429  -6.202  0.00  0.00    -0.275 N 
ATOM      2  C   UNL     1       1.805  -1.833  -6.338  0.00  0.00    +0.249 C 
ATOM      3  O   UNL     1       1.074  -2.144  -7.259  0.00  0.00    -0.270 OA
ATOM      4  H   UNL     1       3.590  -2.182  -5.468  0.00  0.00    +0.156 HD
ENDROOT
BRANCH   1  10
ATOM      5  C   UNL     1       5.634  -7.109  -9.325  0.00  0.00    -0.074 C 
ATOM      6  C   UNL     1       6.004  -5.954  -8.390  0.00  0.00    +0.018 C 
ATOM      7  C   UNL     1       4.770  -5.078  -8.207  0.00  0.00    -0.027 A 
ATOM      8  C   UNL     1       3.738  -5.169  -9.077  0.00  0.00    -0.021 A 
ATOM      9  S   UNL     1       2.546  -4.005  -8.485  0.00  0.00    -0.079 S 
ATOM     10  C   UNL     1       3.408  -3.395  -7.111  0.00  0.00    +0.085 A 
ATOM     11  C   UNL     1       4.596  -4.114  -7.137  0.00  0.00    +0.068 A 
ATOM     12  C   UNL     1       3.656  -6.074 -10.266  0.00  0.00    -0.035 C 
ATOM     13  N   UNL     1       5.024  -6.567 -10.557  0.00  0.00    +0.383 N 
ATOM     14  H   UNL     1       5.596  -5.785 -10.897  0.00  0.00    -0.081 HD
BRANCH  11  15
ATOM     15  C   UNL     1       5.633  -3.908  -6.122  0.00  0.00    +0.244 C 
ATOM     16  O   UNL     1       5.625  -4.569  -5.100  0.00  0.00    -0.270 OA
ATOM     17  N   UNL     1       6.596  -2.986  -6.321  0.00  0.00    -0.325 N 
ATOM     18  H   UNL     1       6.603  -2.459  -7.135  0.00  0.00    +0.145 HD
ATOM     19  H   UNL     1       7.283  -2.849  -5.649  0.00  0.00    +0.145 HD
ENDBRANCH  11  15
BRANCH  13  21
ATOM     20  C   UNL     1       4.103  -7.126 -12.760  0.00  0.00    -0.017 C 
ATOM     21  C   UNL     1       4.974  -7.614 -11.600  0.00  0.00    -0.082 C 
ENDBRANCH  13  21
ENDBRANCH   1  10
BRANCH   2  22
ATOM     22  C   UNL     1       1.377  -0.803  -5.369  0.00  0.00    +0.037 A 
ATOM     23  C   UNL     1       0.134  -0.184  -5.508  0.00  0.00    +0.015 A 
ATOM     24  C   UNL     1      -0.260   0.777  -4.600  0.00  0.00    +0.029 A 
ATOM     25  C   UNL     1       0.576   1.129  -3.554  0.00  0.00    +0.106 A 
ATOM     26  C   UNL     1       1.812   0.523  -3.414  0.00  0.00    +0.029 A 
ATOM     27  C   UNL     1       2.215  -0.444  -4.312  0.00  0.00    +0.015 A 
BRANCH  25  28
ATOM     28  S   UNL     1       0.066   2.357  -2.399  0.00  0.00    +0.061 S 
ATOM     29  O   UNL     1      -0.896   3.165  -3.063  0.00  0.00    -0.153 OA
ATOM     30  O   UNL     1       1.251   2.897  -1.830  0.00  0.00    -0.153 OA
BRANCH  28  31
ATOM     31  N   UNL     1      -0.734   1.578  -1.176  0.00  0.00    -0.172 NA
ATOM     32  C   UNL     1      -0.013   1.086   0.008  0.00  0.00    +0.140 C 
ATOM     33  C   UNL     1      -0.741   1.585   1.261  0.00  0.00    +0.131 C 
ATOM     34  O   UNL     1      -2.125   1.238   1.170  0.00  0.00    -0.371 OA
ATOM     35  C   UNL     1      -2.811   1.844   0.072  0.00  0.00    +0.131 C 
ATOM     36  C   UNL     1      -2.188   1.357  -1.242  0.00  0.00    +0.140 C 
ATOM     37  C   UNL     1      -4.289   1.452   0.112  0.00  0.00    +0.039 C 
ATOM     38  C   UNL     1      -0.129   0.932   2.502  0.00  0.00    +0.039 C 
ENDBRANCH  28  31
ENDBRANCH  25  28
ENDBRANCH   2  22
TORSDOF 6
