REMARK  Name = ZINC24350391
REMARK  7 active torsions:
REMARK  status: ('A' for Active; 'I' for Inactive)
REMARK    1  A    between atoms: C_1  and  C_2
REMARK    2  A    between atoms: C_7  and  C_11
REMARK    3  A    between atoms: N_13  and  N_14
REMARK    4  A    between atoms: C_15  and  C_17
REMARK    5  A    between atoms: C_20  and  C_23
REMARK    6  A    between atoms: C_23  and  S_24
REMARK    7  A    between atoms: S_24  and  C_25
REMARK                            x       y       z     vdW  Elec       q    Type
REMARK                         _______ _______ _______ _____ _____    ______ ____
ROOT
ATOM      1  N   UNL     1      11.540   5.785   1.094  0.00  0.00    -0.230 N 
ATOM      2  C   UNL     1      10.870   5.651  -0.068  0.00  0.00    +0.260 C 
ATOM      3  O   UNL     1      11.454   5.783  -1.126  0.00  0.00    -0.269 OA
ATOM      4  H   UNL     1      11.010   5.666   2.050  0.00  0.00    +0.173 HD
ENDROOT
BRANCH   2   5
ATOM      5  C   UNL     1       9.424   5.342  -0.057  0.00  0.00    +0.038 A 
ATOM      6  C   UNL     1       8.727   5.202  -1.258  0.00  0.00    +0.013 A 
ATOM      7  C   UNL     1       7.378   4.913  -1.240  0.00  0.00    +0.005 A 
ATOM      8  C   UNL     1       6.716   4.763  -0.035  0.00  0.00    -0.037 A 
ATOM      9  C   UNL     1       7.399   4.906   1.160  0.00  0.00    +0.005 A 
ATOM     10  C   UNL     1       8.750   5.189   1.156  0.00  0.00    +0.013 A 
BRANCH   8  11
ATOM     11  C   UNL     1       5.242   4.449  -0.023  0.00  0.00    +0.112 C 
BRANCH  11  12
ATOM     12  S   UNL     1       5.008   2.654  -0.030  0.00  0.00    -0.083 S 
BRANCH  12  13
ATOM     13  C   UNL     1       3.248   2.575  -0.015  0.00  0.00    +0.168 A 
ATOM     14  N   UNL     1       2.514   1.422  -0.014  0.00  0.00    -0.333 N 
ATOM     15  H   UNL     1       3.022   0.446  -0.024  0.00  0.00    +0.168 HD
ATOM     16  C   UNL     1       1.178   1.787   0.000  0.00  0.00    +0.067 A 
ATOM     17  C   UNL     1      -0.013   1.076   0.008  0.00  0.00    +0.028 A 
ATOM     18  C   UNL     1      -1.216   1.751   0.017  0.00  0.00    +0.002 A 
ATOM     19  C   UNL     1      -1.243   3.138   0.030  0.00  0.00    +0.002 A 
ATOM     20  C   UNL     1      -0.071   3.860   0.023  0.00  0.00    +0.030 A 
ATOM     21  C   UNL     1       1.156   3.191   0.008  0.00  0.00    +0.090 A 
ATOM     22  N   UNL     1       2.448   3.612  -0.001  0.00  0.00    -0.222 NA
ENDBRANCH  12  13
ENDBRANCH  11  12
ENDBRANCH   8  11
ENDBRANCH   2   5
BRANCH   1  25
ATOM     23  C   UNL     1      13.579   6.213   2.244  0.00  0.00    +0.280 C 
ATOM     24  O   UNL     1      12.994   6.081   3.302  0.00  0.00    -0.267 OA
ATOM     25  N   UNL     1      12.910   6.078   1.083  0.00  0.00    -0.229 N 
ATOM     26  H   UNL     1      13.439   6.198   0.126  0.00  0.00    +0.173 HD
BRANCH  23  33
ATOM     27  C   UNL     1      20.629   7.731   0.665  0.00  0.00    +0.044 C 
ATOM     28  C   UNL     1      19.363   7.454   1.435  0.00  0.00    -0.046 A 
ATOM     29  C   UNL     1      19.379   7.448   2.840  0.00  0.00    +0.021 A 
ATOM     30  C   UNL     1      18.249   7.201   3.533  0.00  0.00    +0.093 A 
ATOM     31  N   UNL     1      17.073   6.954   2.883  0.00  0.00    -0.306 N 
ATOM     32  C   UNL     1      15.815   6.688   3.332  0.00  0.00    +0.125 A 
ATOM     33  C   UNL     1      15.023   6.521   2.233  0.00  0.00    +0.146 A 
ATOM     34  N   UNL     1      15.785   6.692   1.137  0.00  0.00    -0.223 NA
ATOM     35  C   UNL     1      17.026   6.954   1.511  0.00  0.00    +0.139 A 
ATOM     36  C   UNL     1      18.201   7.211   0.773  0.00  0.00    +0.050 A 
ENDBRANCH  23  33
ENDBRANCH   1  25
TORSDOF 6
