REMARK  Name = ZINC11416086
REMARK  8 active torsions:
REMARK  status: ('A' for Active; 'I' for Inactive)
REMARK    1  A    between atoms: C_1  and  C_2
REMARK    2  A    between atoms: C_2  and  C_4
REMARK    3  A    between atoms: C_2  and  N_58
REMARK    4  A    between atoms: C_7  and  S_16
REMARK    5  A    between atoms: N_8  and  C_9
REMARK    6  A    between atoms: S_16  and  C_17
REMARK    7  A    between atoms: C_17  and  C_18
REMARK    8  A    between atoms: C_21  and  C_23
REMARK                            x       y       z     vdW  Elec       q    Type
REMARK                         _______ _______ _______ _____ _____    ______ ____
ROOT
ATOM      1  C   UNL     1       6.570  10.858  -1.843  0.00  0.00    +0.125 A 
ATOM      2  N   UNL     1       6.444  10.432  -0.618  0.00  0.00    -0.135 NA
ATOM      3  N   UNL     1       6.056   9.207  -0.612  0.00  0.00    -0.122 NA
ATOM      4  C   UNL     1       5.913   8.778  -1.845  0.00  0.00    +0.197 A 
ATOM      5  N   UNL     1       6.241   9.818  -2.671  0.00  0.00    -0.275 N 
ENDROOT
BRANCH   5   6
ATOM      6  C   UNL     1       6.239   9.819  -4.074  0.00  0.00    +0.050 A 
ATOM      7  C   UNL     1       7.429   9.979  -4.771  0.00  0.00    +0.029 A 
ATOM      8  C   UNL     1       7.426   9.974  -6.152  0.00  0.00    +0.040 A 
ATOM      9  C   UNL     1       6.235   9.822  -6.842  0.00  0.00    +0.124 A 
ATOM     10  C   UNL     1       5.046   9.667  -6.149  0.00  0.00    +0.040 A 
ATOM     11  C   UNL     1       5.046   9.666  -4.767  0.00  0.00    +0.029 A 
ATOM     12  F   UNL     1       6.233   9.823  -8.193  0.00  0.00    -0.205 F 
ENDBRANCH   5   6
BRANCH   1  14
ATOM     13  C   UNL     1       5.866  13.229  -2.016  0.00  0.00    -0.005 C 
ATOM     14  C   UNL     1       7.003  12.237  -2.269  0.00  0.00    -0.002 C 
BRANCH  14  20
ATOM     15  C   UNL     1       8.655  13.969  -1.908  0.00  0.00    -0.078 C 
ATOM     16  C   UNL     1       9.793  14.417  -0.988  0.00  0.00    -0.019 C 
ATOM     17  C   UNL     1      10.938  13.403  -1.071  0.00  0.00    -0.004 C 
ATOM     18  C   UNL     1      10.412  12.018  -0.685  0.00  0.00    -0.019 C 
ATOM     19  C   UNL     1       9.255  11.640  -1.614  0.00  0.00    -0.078 C 
ATOM     20  N   UNL     1       8.177  12.641  -1.469  0.00  0.00    +0.386 N 
ATOM     21  H   UNL     1       7.904  12.695  -0.480  0.00  0.00    -0.081 HD
ENDBRANCH  14  20
ENDBRANCH   1  14
BRANCH   4  22
ATOM     22  S   UNL     1       5.402   7.167  -2.341  0.00  0.00    -0.076 S 
BRANCH  22  23
ATOM     23  C   UNL     1       5.169   6.397  -0.719  0.00  0.00    +0.175 C 
BRANCH  23  24
ATOM     24  C   UNL     1       4.718   4.971  -0.900  0.00  0.00    +0.228 A 
ATOM     25  N   UNL     1       5.491   3.926  -0.998  0.00  0.00    -0.111 NA
ATOM     26  N   UNL     1       4.771   2.869  -1.137  0.00  0.00    -0.107 NA
ATOM     27  C   UNL     1       3.502   3.208  -1.142  0.00  0.00    +0.250 A 
ATOM     28  O   UNL     1       3.446   4.546  -0.988  0.00  0.00    -0.419 OA
BRANCH  27  29
ATOM     29  C   UNL     1       2.351   2.292  -1.284  0.00  0.00    +0.057 A 
ATOM     30  C   UNL     1       2.560   0.921  -1.438  0.00  0.00    +0.015 A 
ATOM     31  C   UNL     1       1.481   0.072  -1.569  0.00  0.00    +0.001 A 
ATOM     32  C   UNL     1       0.193   0.577  -1.555  0.00  0.00    +0.001 A 
ATOM     33  C   UNL     1      -0.023   1.933  -1.398  0.00  0.00    +0.021 A 
ATOM     34  C   UNL     1       1.048   2.795  -1.265  0.00  0.00    +0.053 A 
ATOM     35 CL   UNL     1       0.776   4.499  -1.075  0.00  0.00    -0.083 Cl
ENDBRANCH  27  29
ENDBRANCH  23  24
ENDBRANCH  22  23
ENDBRANCH   4  22
TORSDOF 7
