REMARK  Name = ZINC16461197
REMARK  11 active torsions:
REMARK  status: ('A' for Active; 'I' for Inactive)
REMARK    1  A    between atoms: C_1  and  C_2
REMARK    2  A    between atoms: C_2  and  C_4
REMARK    3  A    between atoms: C_2  and  N_7
REMARK    4  A    between atoms: C_4  and  C_5
REMARK    5  A    between atoms: C_4  and  C_6
REMARK    6  A    between atoms: C_8  and  C_10
REMARK    7  A    between atoms: C_13  and  C_15
REMARK    8  A    between atoms: C_15  and  S_16
REMARK    9  A    between atoms: S_16  and  C_17
REMARK   10  A    between atoms: C_20  and  C_29
REMARK   11  A    between atoms: N_21  and  C_22
REMARK                            x       y       z     vdW  Elec       q    Type
REMARK                         _______ _______ _______ _____ _____    ______ ____
ROOT
ATOM      1  C   UNL     1       1.430  -4.450   7.445  0.00  0.00    +0.197 A 
ATOM      2  N   UNL     1       1.288  -3.591   8.430  0.00  0.00    -0.122 NA
ATOM      3  N   UNL     1       0.856  -4.190   9.481  0.00  0.00    -0.128 NA
ATOM      4  C   UNL     1       0.694  -5.469   9.235  0.00  0.00    +0.171 A 
ATOM      5  N   UNL     1       1.051  -5.676   7.920  0.00  0.00    -0.267 N 
ENDROOT
BRANCH   5   6
ATOM      6  C   UNL     1       1.032  -6.889   7.216  0.00  0.00    +0.086 A 
ATOM      7  C   UNL     1       2.151  -7.710   7.216  0.00  0.00    +0.029 A 
ATOM      8  C   UNL     1       2.130  -8.905   6.523  0.00  0.00    +0.002 A 
ATOM      9  C   UNL     1       0.996  -9.284   5.829  0.00  0.00    +0.003 A 
ATOM     10  C   UNL     1      -0.121  -8.470   5.826  0.00  0.00    +0.040 A 
ATOM     11  C   UNL     1      -0.109  -7.275   6.523  0.00  0.00    +0.147 A 
ATOM     12  F   UNL     1      -1.202  -6.481   6.525  0.00  0.00    -0.203 F 
ENDBRANCH   5   6
BRANCH   4  13
ATOM     13  C   UNL     1       0.214  -6.494  10.186  0.00  0.00    +0.038 A 
ATOM     14  C   UNL     1       0.097  -7.825   9.783  0.00  0.00    +0.013 A 
ATOM     15  C   UNL     1      -0.351  -8.776  10.675  0.00  0.00    +0.001 A 
ATOM     16  C   UNL     1      -0.686  -8.414  11.968  0.00  0.00    +0.001 A 
ATOM     17  C   UNL     1      -0.572  -7.097  12.376  0.00  0.00    +0.021 A 
ATOM     18  C   UNL     1      -0.119  -6.135  11.494  0.00  0.00    +0.052 A 
ATOM     19 CL   UNL     1       0.030  -4.484  12.009  0.00  0.00    -0.083 Cl
ENDBRANCH   4  13
BRANCH   1  20
ATOM     20  S   UNL     1       1.994  -4.089   5.816  0.00  0.00    -0.079 S 
BRANCH  20  21
ATOM     21  C   UNL     1       2.325  -2.305   5.851  0.00  0.00    +0.140 C 
BRANCH  21  25
ATOM     22  C   UNL     1       2.766  -1.088   2.367  0.00  0.00    +0.133 A 
ATOM     23  C   UNL     1       4.129  -1.210   2.397  0.00  0.00    +0.080 A 
ATOM     24  S   UNL     1       4.405  -1.792   3.949  0.00  0.00    -0.079 S 
ATOM     25  C   UNL     1       2.821  -1.860   4.500  0.00  0.00    +0.089 A 
ATOM     26  N   UNL     1       2.120  -1.431   3.485  0.00  0.00    -0.239 NA
BRANCH  22  28
ATOM     27  N   UNL     1       0.711  -0.489   1.189  0.00  0.00    -0.307 N 
ATOM     28  C   UNL     1       2.054  -0.600   1.174  0.00  0.00    +0.263 C 
ATOM     29  O   UNL     1       2.678  -0.296   0.175  0.00  0.00    -0.269 OA
ATOM     30  H   UNL     1       0.213  -0.731   1.986  0.00  0.00    +0.149 HD
BRANCH  27  32
ATOM     31  C   UNL     1      -0.019   1.526   0.010  0.00  0.00    +0.028 C 
ATOM     32  C   UNL     1       0.002  -0.004   0.002  0.00  0.00    +0.073 C 
BRANCH  32  33
ATOM     33  C   UNL     1      -1.433  -0.534   0.013  0.00  0.00    +0.003 C 
ATOM     34  C   UNL     1      -2.187   0.060   1.205  0.00  0.00    +0.009 C 
ATOM     35  C   UNL     1      -2.135  -0.131  -1.286  0.00  0.00    +0.009 C 
ENDBRANCH  32  33
ENDBRANCH  27  32
ENDBRANCH  22  28
ENDBRANCH  21  25
ENDBRANCH  20  21
ENDBRANCH   1  20
TORSDOF 8
