REMARK  Name = ZINC51580693
REMARK  4 active torsions:
REMARK  status: ('A' for Active; 'I' for Inactive)
REMARK    1  A    between atoms: C_1  and  C_2
REMARK    2  A    between atoms: C_5  and  C_20
REMARK    3  A    between atoms: C_6  and  O_8
REMARK    4  A    between atoms: O_8  and  C_9
REMARK                            x       y       z     vdW  Elec       q    Type
REMARK                         _______ _______ _______ _____ _____    ______ ____
ROOT
ATOM      1  C   UNL     1      -0.731   1.392   0.193  0.00  0.00    +0.044 C 
ATOM      2  C   UNL     1      -0.544  -0.102   0.123  0.00  0.00    -0.047 A 
ATOM      3  C   UNL     1      -0.744  -0.766  -1.076  0.00  0.00    +0.004 A 
ATOM      4  C   UNL     1      -0.577  -2.132  -1.150  0.00  0.00    +0.015 A 
ATOM      5  C   UNL     1      -0.203  -2.851  -0.013  0.00  0.00    +0.054 A 
ATOM      6  C   UNL     1      -0.001  -2.176   1.198  0.00  0.00    +0.132 A 
ATOM      7  C   UNL     1      -0.169  -0.800   1.254  0.00  0.00    +0.049 A 
ENDROOT
BRANCH   5   8
ATOM      8  C   UNL     1      -0.022  -4.315  -0.086  0.00  0.00    +0.098 C 
ATOM      9  N   UNL     1      -0.719  -5.113   0.722  0.00  0.00    -0.387 N 
ATOM     10  N   UNL     1       0.838  -4.838  -0.959  0.00  0.00    -0.344 N 
ATOM     11  H   UNL     1      -0.653  -6.076   0.627  0.00  0.00    +0.157 HD
ATOM     12  H   UNL     1       1.345  -4.256  -1.548  0.00  0.00    +0.144 HD
ATOM     13  H   UNL     1       0.956  -5.799  -1.007  0.00  0.00    +0.144 HD
ATOM     14  H   UNL     1      -1.293  -4.731   1.405  0.00  0.00    +0.157 HD
ENDBRANCH   5   8
BRANCH   6  15
ATOM     15  O   UNL     1       0.362  -2.864   2.309  0.00  0.00    -0.484 OA
BRANCH  15  16
ATOM     16  C   UNL     1       0.429  -2.130   3.533  0.00  0.00    +0.204 C 
ATOM     17  C   UNL     1      -0.039  -3.021   4.682  0.00  0.00    +0.050 C 
ATOM     18  C   UNL     1       0.244  -2.297   6.003  0.00  0.00    +0.009 C 
ATOM     19  C   UNL     1       1.756  -2.265   6.219  0.00  0.00    +0.035 C 
ATOM     20  C   UNL     1       2.454  -1.732   4.996  0.00  0.00    -0.041 A 
ATOM     21  C   UNL     1       1.847  -1.674   3.762  0.00  0.00    -0.004 A 
ATOM     22  C   UNL     1       2.550  -1.178   2.672  0.00  0.00    +0.007 A 
ATOM     23  C   UNL     1       3.850  -0.740   2.817  0.00  0.00    +0.000 A 
ATOM     24  C   UNL     1       4.459  -0.795   4.057  0.00  0.00    +0.000 A 
ATOM     25  C   UNL     1       3.762  -1.288   5.139  0.00  0.00    +0.004 A 
ENDBRANCH  15  16
ENDBRANCH   6  15
TORSDOF 3
