REMARK  Name = ZINC44779576
REMARK  4 active torsions:
REMARK  status: ('A' for Active; 'I' for Inactive)
REMARK    1  A    between atoms: C_3  and  N_9
REMARK    2  A    between atoms: C_10  and  C_12
REMARK    3  A    between atoms: C_12  and  C_18
REMARK    4  A    between atoms: C_18  and  N_20
REMARK                            x       y       z     vdW  Elec       q    Type
REMARK                         _______ _______ _______ _____ _____    ______ ____
ROOT
ATOM      1  N   UNL     1       3.359   2.252  -0.090  0.00  0.00    -0.284 N 
ATOM      2  C   UNL     1       3.494   3.589   0.014  0.00  0.00    +0.230 C 
ATOM      3  O   UNL     1       2.535   4.275   0.295  0.00  0.00    -0.274 OA
ATOM      4  H   UNL     1       4.137   1.697  -0.257  0.00  0.00    +0.155 HD
ENDROOT
BRANCH   1   7
ATOM      5  C   UNL     1      -0.131   1.705   0.933  0.00  0.00    +0.017 A 
ATOM      6  C   UNL     1       1.115   2.287   0.803  0.00  0.00    +0.025 A 
ATOM      7  C   UNL     1       2.096   1.664   0.044  0.00  0.00    +0.048 A 
ATOM      8  C   UNL     1       1.821   0.455  -0.585  0.00  0.00    +0.040 A 
ATOM      9  C   UNL     1       0.572  -0.122  -0.451  0.00  0.00    +0.032 A 
ATOM     10  C   UNL     1      -0.403   0.502   0.307  0.00  0.00    +0.019 A 
ATOM     11 BR   UNL     1      -2.110  -0.292   0.487  0.00  0.00    -0.050 Br
ATOM     12 BR   UNL     1       3.152  -0.398  -1.621  0.00  0.00    -0.048 Br
ENDBRANCH   1   7
BRANCH   2  13
ATOM     13  C   UNL     1       4.838   4.230  -0.219  0.00  0.00    +0.091 C 
ATOM     14  C   UNL     1       5.420   3.729  -1.543  0.00  0.00    +0.023 C 
ATOM     15  C   UNL     1       4.473   4.096  -2.687  0.00  0.00    +0.001 C 
ATOM     16  C   UNL     1       4.309   5.616  -2.746  0.00  0.00    +0.000 C 
ATOM     17  C   UNL     1       3.727   6.118  -1.423  0.00  0.00    +0.001 C 
ATOM     18  C   UNL     1       4.674   5.750  -0.278  0.00  0.00    +0.023 C 
BRANCH  13  19
ATOM     19  C   UNL     1       5.770   3.869   0.908  0.00  0.00    +0.061 C 
ATOM     20  S   UNL     1       6.392   5.017   1.831  0.00  0.00    -0.040 S 
BRANCH  19  21
ATOM     21  N   UNL     1       6.079   2.578   1.139  0.00  0.00    -0.355 N 
ATOM     22  H   UNL     1       5.777   1.889   0.526  0.00  0.00    +0.143 HD
ATOM     23  H   UNL     1       6.603   2.336   1.919  0.00  0.00    +0.143 HD
ENDBRANCH  19  21
ENDBRANCH  13  19
ENDBRANCH   2  13
TORSDOF 4
