REMARK  Name = ZINC20205645
REMARK  10 active torsions:
REMARK  status: ('A' for Active; 'I' for Inactive)
REMARK    1  A    between atoms: C_1  and  S_2
REMARK    2  A    between atoms: S_2  and  C_5
REMARK    3  A    between atoms: C_13  and  C_14
REMARK    4  A    between atoms: C_17  and  O_20
REMARK    5  A    between atoms: O_20  and  C_21
REMARK    6  A    between atoms: C_21  and  C_22
REMARK    7  A    between atoms: C_22  and  O_23
REMARK    8  A    between atoms: O_23  and  C_24
REMARK    9  A    between atoms: C_29  and  C_30
REMARK   10  A    between atoms: C_30  and  C_31
REMARK                            x       y       z     vdW  Elec       q    Type
REMARK                         _______ _______ _______ _____ _____    ______ ____
ROOT
ATOM      1  C   UNL     1      -2.979   1.653  -5.762  0.00  0.00    -0.024 A 
ATOM      2  C   UNL     1      -1.993   1.395  -6.725  0.00  0.00    +0.011 A 
ATOM      3  C   UNL     1      -2.156   1.851  -8.008  0.00  0.00    +0.046 A 
ATOM      4  C   UNL     1      -3.296   2.569  -8.354  0.00  0.00    +0.121 A 
ATOM      5  C   UNL     1      -4.277   2.828  -7.403  0.00  0.00    +0.046 A 
ATOM      6  C   UNL     1      -4.129   2.372  -6.119  0.00  0.00    +0.011 A 
ENDROOT
BRANCH   1  15
ATOM      7  C   UNL     1      -4.785   1.503  -0.011  0.00  0.00    +0.257 C 
ATOM      8  N   UNL     1      -5.656   2.215   0.634  0.00  0.00    -0.174 NA
ATOM      9  S   UNL     1      -5.795   3.617  -0.275  0.00  0.00    +0.049 S 
ATOM     10  C   UNL     1      -4.753   3.239  -1.519  0.00  0.00    +0.183 C 
ATOM     11  N   UNL     1      -4.450   3.912  -2.606  0.00  0.00    -0.152 NA
ATOM     12  C   UNL     1      -3.618   3.368  -3.513  0.00  0.00    +0.273 C 
ATOM     13  O   UNL     1      -3.216   4.020  -4.463  0.00  0.00    -0.268 OA
ATOM     14  C   UNL     1      -3.202   1.955  -3.330  0.00  0.00    +0.078 C 
ATOM     15  C   UNL     1      -2.811   1.169  -4.390  0.00  0.00    +0.024 C 
ATOM     16  C   UNL     1      -3.230   1.435  -1.932  0.00  0.00    +0.117 C 
ATOM     17  N   UNL     1      -2.395   0.538  -1.482  0.00  0.00    -0.386 N 
ATOM     18  N   UNL     1      -4.244   2.013  -1.143  0.00  0.00    -0.203 N 
ATOM     19  H   UNL     1      -1.774   0.106  -2.089  0.00  0.00    +0.157 HD
ATOM     20  H   UNL     1      -2.396   0.304  -0.541  0.00  0.00    +0.157 HD
BRANCH   7  22
ATOM     21  C   UNL     1      -2.822   0.203   1.568  0.00  0.00    +0.203 C 
ATOM     22  S   UNL     1      -4.311  -0.090   0.575  0.00  0.00    +0.026 S 
ATOM     23  O   UNL     1      -3.982  -0.825  -0.596  0.00  0.00    -0.167 OA
ATOM     24  O   UNL     1      -5.384  -0.502   1.412  0.00  0.00    -0.167 OA
ENDBRANCH   7  22
ENDBRANCH   1  15
BRANCH   4  25
ATOM     25  O   UNL     1      -3.451   3.018  -9.625  0.00  0.00    -0.489 OA
BRANCH  25  26
ATOM     26  C   UNL     1      -4.645   3.748  -9.914  0.00  0.00    +0.270 C 
BRANCH  26  27
ATOM     27  C   UNL     1      -4.643   4.169 -11.385  0.00  0.00    +0.270 C 
BRANCH  27  28
ATOM     28  O   UNL     1      -4.701   3.006 -12.213  0.00  0.00    -0.488 OA
BRANCH  28  29
ATOM     29  C   UNL     1      -4.707   3.206 -13.557  0.00  0.00    +0.124 A 
ATOM     30  C   UNL     1      -4.651   4.494 -14.069  0.00  0.00    +0.046 A 
ATOM     31  C   UNL     1      -4.657   4.695 -15.436  0.00  0.00    +0.004 A 
ATOM     32  C   UNL     1      -4.717   3.612 -16.294  0.00  0.00    +0.001 A 
ATOM     33  C   UNL     1      -4.773   2.327 -15.787  0.00  0.00    +0.007 A 
ATOM     34  C   UNL     1      -4.763   2.121 -14.421  0.00  0.00    -0.002 A 
BRANCH  34  35
ATOM     35  C   UNL     1      -4.817   0.720 -13.869  0.00  0.00    +0.065 C 
BRANCH  35  36
ATOM     36  C   UNL     1      -6.247   0.359 -13.555  0.00  0.00    -0.030 C 
ATOM     37  C   UNL     1      -6.779  -0.719 -14.074  0.00  0.00    +0.004 C 
ENDBRANCH  35  36
ENDBRANCH  34  35
ENDBRANCH  28  29
ENDBRANCH  27  28
ENDBRANCH  26  27
ENDBRANCH  25  26
ENDBRANCH   4  25
TORSDOF 9
