REMARK  Name = ZINC63699219
REMARK  12 active torsions:
REMARK  status: ('A' for Active; 'I' for Inactive)
REMARK    1  A    between atoms: C_1  and  C_2
REMARK    2  A    between atoms: C_2  and  O_3
REMARK    3  A    between atoms: O_3  and  C_4
REMARK    4  A    between atoms: C_7  and  C_27
REMARK    5  A    between atoms: C_9  and  C_10
REMARK    6  A    between atoms: C_10  and  N_11
REMARK    7  A    between atoms: N_28  and  N_29
REMARK    8  A    between atoms: C_30  and  C_32
REMARK    9  A    between atoms: C_35  and  C_38
REMARK   10  A    between atoms: C_38  and  C_39
REMARK   11  A    between atoms: C_38  and  C_40
REMARK   12  A    between atoms: C_38  and  C_41
REMARK                            x       y       z     vdW  Elec       q    Type
REMARK                         _______ _______ _______ _____ _____    ______ ____
ROOT
ATOM      1  C   UNL     1       0.777  -1.810  -1.336  0.00  0.00    +0.122 A 
ATOM      2  C   UNL     1       0.241  -2.666  -0.383  0.00  0.00    +0.046 A 
ATOM      3  C   UNL     1       0.346  -4.031  -0.543  0.00  0.00    +0.013 A 
ATOM      4  C   UNL     1       0.992  -4.552  -1.667  0.00  0.00    -0.005 A 
ATOM      5  C   UNL     1       1.529  -3.687  -2.624  0.00  0.00    +0.014 A 
ATOM      6  C   UNL     1       1.415  -2.323  -2.457  0.00  0.00    -0.022 A 
ENDROOT
BRANCH   4   7
ATOM      7  C   UNL     1       1.107  -6.011  -1.843  0.00  0.00    +0.138 C 
ATOM      8  N   UNL     1       0.608  -6.814  -0.954  0.00  0.00    -0.188 NA
BRANCH   8   9
ATOM      9  N   UNL     1       0.718  -8.200  -1.121  0.00  0.00    -0.205 N 
ATOM     10  C   UNL     1       0.199  -9.034  -0.197  0.00  0.00    +0.262 C 
ATOM     11  O   UNL     1      -0.362  -8.583   0.779  0.00  0.00    -0.271 OA
ATOM     12  H   UNL     1       1.166  -8.561  -1.902  0.00  0.00    +0.177 HD
BRANCH  10  13
ATOM     13  C   UNL     1       0.317 -10.525  -0.377  0.00  0.00    +0.240 C 
ATOM     14  C   UNL     1      -0.772 -11.043  -1.300  0.00  0.00    +0.036 C 
ATOM     15  C   UNL     1      -1.468 -11.886  -0.535  0.00  0.00    +0.067 C 
ATOM     16  N   UNL     1      -0.948 -11.945   0.711  0.00  0.00    -0.158 NA
ATOM     17  N   UNL     1       0.043 -11.226   0.889  0.00  0.00    -0.170 NA
BRANCH  15  18
ATOM     18  C   UNL     1      -2.671 -12.668  -0.997  0.00  0.00    +0.006 C 
ATOM     19  C   UNL     1      -2.958 -12.341  -2.464  0.00  0.00    +0.017 C 
ATOM     20  C   UNL     1      -2.391 -14.166  -0.854  0.00  0.00    +0.017 C 
ATOM     21  C   UNL     1      -3.883 -12.292  -0.144  0.00  0.00    +0.017 C 
ENDBRANCH  15  18
ENDBRANCH  10  13
ENDBRANCH   8   9
ENDBRANCH   4   7
BRANCH   1  22
ATOM     22  O   UNL     1       0.671  -0.465  -1.174  0.00  0.00    -0.492 OA
BRANCH  22  24
ATOM     23  C   UNL     1      -0.019   1.526   0.010  0.00  0.00    +0.048 C 
ATOM     24  C   UNL     1       0.002  -0.004   0.002  0.00  0.00    +0.225 C 
ENDBRANCH  22  24
ENDBRANCH   1  22
BRANCH   6  25
ATOM     25  C   UNL     1       1.990  -1.389  -3.490  0.00  0.00    -0.039 C 
BRANCH  25  26
ATOM     26  N   UNL     1       3.289  -0.884  -3.026  0.00  0.00    +0.383 N 
ATOM     27  C   UNL     1       3.905  -0.078  -4.084  0.00  0.00    -0.073 C 
ATOM     28  C   UNL     1       5.255   0.468  -3.644  0.00  0.00    -0.007 C 
ATOM     29  C   UNL     1       5.117   1.277  -2.351  0.00  0.00    +0.011 C 
ATOM     30  C   UNL     1       4.476   0.360  -1.302  0.00  0.00    +0.020 C 
ATOM     31  C   UNL     1       3.092  -0.062  -1.823  0.00  0.00    -0.069 C 
ATOM     32  C   UNL     1       5.319  -0.886  -1.155  0.00  0.00    +0.023 A 
ATOM     33  C   UNL     1       5.308  -1.513   0.052  0.00  0.00    +0.022 A 
ATOM     34  C   UNL     1       6.015  -2.706   0.239  0.00  0.00    +0.007 A 
ATOM     35  C   UNL     1       6.693  -3.243  -0.816  0.00  0.00    +0.070 A 
ATOM     36  C   UNL     1       6.681  -2.573  -2.047  0.00  0.00    +0.251 A 
ATOM     37  O   UNL     1       7.233  -3.075  -3.014  0.00  0.00    -0.268 OA
ATOM     38  N   UNL     1       6.062  -1.373  -2.175  0.00  0.00    -0.312 N 
ATOM     39  C   UNL     1       6.268  -0.643  -3.423  0.00  0.00    +0.126 C 
ATOM     40  H   UNL     1       3.891  -1.663  -2.805  0.00  0.00    -0.081 HD
ENDBRANCH  25  26
ENDBRANCH   6  25
TORSDOF 8
