REMARK  Name = ZINC37129755
REMARK  3 active torsions:
REMARK  status: ('A' for Active; 'I' for Inactive)
REMARK    1  A    between atoms: C_1  and  C_2
REMARK    2  A    between atoms: C_7  and  N_10
REMARK    3  A    between atoms: N_10  and  C_11
REMARK                            x       y       z     vdW  Elec       q    Type
REMARK                         _______ _______ _______ _____ _____    ______ ____
ROOT
ATOM      1  C   UNL     1       2.056  -3.774   0.017  0.00  0.00    +0.044 A 
ATOM      2  C   UNL     1       2.003  -4.577   1.147  0.00  0.00    +0.051 A 
ATOM      3  C   UNL     1       2.606  -5.826   1.133  0.00  0.00    +0.069 A 
ATOM      4  C   UNL     1       3.263  -6.270  -0.017  0.00  0.00    +0.068 A 
ATOM      5  C   UNL     1       3.312  -5.463  -1.143  0.00  0.00    +0.045 A 
ATOM      6  C   UNL     1       2.707  -4.221  -1.128  0.00  0.00    +0.041 A 
ATOM      7 BR   UNL     1       2.769  -3.124  -2.667  0.00  0.00    -0.048 Br
ATOM      8  N   UNL     1       3.760  -7.542   0.271  0.00  0.00    -0.306 N 
ATOM      9  H   UNL     1       4.264  -8.105  -0.337  0.00  0.00    +0.170 HD
ATOM     10  C   UNL     1       3.420  -7.854   1.535  0.00  0.00    +0.325 A 
ATOM     11  O   UNL     1       3.699  -8.895   2.099  0.00  0.00    -0.247 OA
ATOM     12  N   UNL     1       2.723  -6.839   2.081  0.00  0.00    -0.306 N 
ATOM     13  H   UNL     1       2.365  -6.818   2.982  0.00  0.00    +0.170 HD
ENDROOT
BRANCH   1  14
ATOM     14  N   UNL     1       1.448  -2.513   0.028  0.00  0.00    -0.340 N 
ATOM     15  H   UNL     1       1.482  -1.952  -0.763  0.00  0.00    +0.146 HD
BRANCH  14  21
ATOM     16  C   UNL     1      -0.019   1.526   0.010  0.00  0.00    +0.007 C 
ATOM     17  C   UNL     1       0.002  -0.004   0.002  0.00  0.00    -0.012 C 
ATOM     18  C   UNL     1      -1.433  -0.534   0.013  0.00  0.00    +0.003 C 
ATOM     19  C   UNL     1      -1.413  -2.063   0.004  0.00  0.00    +0.002 C 
ATOM     20  C   UNL     1      -0.673  -2.570   1.244  0.00  0.00    +0.022 C 
ATOM     21  C   UNL     1       0.763  -2.041   1.233  0.00  0.00    +0.071 C 
ATOM     22  C   UNL     1       0.742  -0.511   1.242  0.00  0.00    +0.025 C 
ENDBRANCH  14  21
ENDBRANCH   1  14
TORSDOF 2
