REMARK  Name = ZINC63433689
REMARK  5 active torsions:
REMARK  status: ('A' for Active; 'I' for Inactive)
REMARK    1  A    between atoms: C_4  and  N_7
REMARK    2  A    between atoms: N_14  and  C_28
REMARK    3  A    between atoms: C_15  and  S_17
REMARK    4  A    between atoms: S_17  and  C_18
REMARK    5  A    between atoms: C_18  and  C_19
REMARK                            x       y       z     vdW  Elec       q    Type
REMARK                         _______ _______ _______ _____ _____    ______ ____
ROOT
ATOM      1  N   UNL     1       3.755  -0.589  -0.102  0.00  0.00    -0.265 N 
ATOM      2  C   UNL     1       3.607  -2.038  -0.282  0.00  0.00    +0.221 C 
ATOM      3  C   UNL     1       4.364  -2.762   0.862  0.00  0.00    +0.182 C 
ATOM      4  C   UNL     1       4.858  -4.104   0.443  0.00  0.00    +0.243 C 
ATOM      5  O   UNL     1       5.102  -4.931   1.296  0.00  0.00    -0.273 OA
ATOM      6  N   UNL     1       5.043  -4.429  -0.848  0.00  0.00    -0.218 N 
ATOM      7  C   UNL     1       4.819  -3.481  -1.827  0.00  0.00    +0.165 C 
ATOM      8  N   UNL     1       4.173  -2.387  -1.581  0.00  0.00    -0.238 NA
ATOM      9  S   UNL     1       5.764  -1.573   1.023  0.00  0.00    -0.086 S 
ATOM     10  C   UNL     1       4.875  -0.114   0.487  0.00  0.00    +0.116 C 
ATOM     11  S   UNL     1       5.338   1.523   0.683  0.00  0.00    -0.028 S 
ENDROOT
BRANCH   1  15
ATOM     12  C   UNL     1       0.778   2.018  -1.403  0.00  0.00    +0.000 A 
ATOM     13  C   UNL     1       1.806   1.664  -2.256  0.00  0.00    +0.002 A 
ATOM     14  C   UNL     1       2.795   0.800  -1.828  0.00  0.00    +0.023 A 
ATOM     15  C   UNL     1       2.755   0.286  -0.539  0.00  0.00    +0.037 A 
ATOM     16  C   UNL     1       1.721   0.643   0.316  0.00  0.00    +0.023 A 
ATOM     17  C   UNL     1       0.735   1.508  -0.118  0.00  0.00    +0.002 A 
ENDBRANCH   1  15
BRANCH   6  18
ATOM     18  C   UNL     1       5.460  -5.720  -1.198  0.00  0.00    +0.043 A 
ATOM     19  C   UNL     1       6.813  -6.030  -1.227  0.00  0.00    +0.024 A 
ATOM     20  C   UNL     1       7.221  -7.304  -1.572  0.00  0.00    +0.002 A 
ATOM     21  C   UNL     1       6.283  -8.270  -1.889  0.00  0.00    +0.000 A 
ATOM     22  C   UNL     1       4.934  -7.964  -1.860  0.00  0.00    +0.002 A 
ATOM     23  C   UNL     1       4.520  -6.694  -1.510  0.00  0.00    +0.024 A 
ENDBRANCH   6  18
BRANCH   7  24
ATOM     24  S   UNL     1       5.441  -3.760  -3.452  0.00  0.00    -0.086 S 
BRANCH  24  25
ATOM     25  C   UNL     1       4.922  -2.289  -4.379  0.00  0.00    +0.124 C 
BRANCH  25  26
ATOM     26  C   UNL     1       5.404  -2.403  -5.826  0.00  0.00    +0.184 C 
ATOM     27  N   UNL     1       4.888  -3.636  -6.434  0.00  0.00    -0.363 N 
ATOM     28  C   UNL     1       5.914  -4.359  -6.780  0.00  0.00    +0.060 A 
ATOM     29  C   UNL     1       6.037  -5.675  -7.422  0.00  0.00    +0.027 A 
ATOM     30  C   UNL     1       7.261  -6.186  -7.662  0.00  0.00    +0.002 A 
ATOM     31  C   UNL     1       8.445  -5.509  -7.320  0.00  0.00    +0.002 A 
ATOM     32  C   UNL     1       8.445  -4.299  -6.727  0.00  0.00    +0.027 A 
ATOM     33  C   UNL     1       7.167  -3.643  -6.418  0.00  0.00    +0.060 A 
ATOM     34  N   UNL     1       6.868  -2.504  -5.863  0.00  0.00    -0.363 N 
ATOM     35  H   UNL     1       3.954  -3.869  -6.556  0.00  0.00    +0.162 HD
ATOM     36  H   UNL     1       7.498  -1.843  -5.535  0.00  0.00    +0.162 HD
ENDBRANCH  25  26
ENDBRANCH  24  25
ENDBRANCH   7  24
TORSDOF 5
