REMARK  Name = ZINC39431602
REMARK  12 active torsions:
REMARK  status: ('A' for Active; 'I' for Inactive)
REMARK    1  A    between atoms: C_1  and  N_2
REMARK    2  A    between atoms: N_2  and  C_3
REMARK    3  A    between atoms: N_2  and  C_4
REMARK    4  A    between atoms: C_4  and  C_6
REMARK    5  A    between atoms: C_4  and  C_27
REMARK    6  A    between atoms: C_6  and  N_7
REMARK    7  A    between atoms: C_8  and  C_10
REMARK    8  A    between atoms: C_10  and  S_11
REMARK    9  A    between atoms: S_11  and  C_12
REMARK   10  A    between atoms: C_12  and  C_13
REMARK   11  A    between atoms: C_32  and  O_33
REMARK   12  A    between atoms: O_33  and  C_34
REMARK                            x       y       z     vdW  Elec       q    Type
REMARK                         _______ _______ _______ _____ _____    ______ ____
ROOT
ATOM      1  N   UNL     1      -0.964  -2.611   0.830  0.00  0.00    -0.316 N 
ATOM      2  C   UNL     1      -1.053  -3.951   0.934  0.00  0.00    +0.223 C 
ATOM      3  O   UNL     1      -1.720  -4.578   0.138  0.00  0.00    -0.275 OA
ATOM      4  H   UNL     1      -0.430  -2.109   1.467  0.00  0.00    +0.149 HD
ENDROOT
BRANCH   1   5
ATOM      5  C   UNL     1      -1.671  -1.910  -0.245  0.00  0.00    +0.093 C 
BRANCH   5   6
ATOM      6  C   UNL     1      -1.510  -0.400  -0.062  0.00  0.00    -0.017 C 
BRANCH   6   7
ATOM      7  C   UNL     1      -0.062  -0.024  -0.246  0.00  0.00    -0.018 A 
ATOM      8  C   UNL     1       0.770   0.082   0.852  0.00  0.00    +0.005 A 
ATOM      9  C   UNL     1       2.098   0.427   0.683  0.00  0.00    +0.000 A 
ATOM     10  C   UNL     1       2.597   0.667  -0.584  0.00  0.00    +0.004 A 
ATOM     11  C   UNL     1       1.770   0.562  -1.685  0.00  0.00    +0.046 A 
ATOM     12  C   UNL     1       0.438   0.211  -1.519  0.00  0.00    +0.122 A 
BRANCH  12  13
ATOM     13  O   UNL     1      -0.377   0.101  -2.601  0.00  0.00    -0.495 OA
ATOM     14  C   UNL     1       0.206   0.357  -3.880  0.00  0.00    +0.277 C 
ENDBRANCH  12  13
ENDBRANCH   6   7
BRANCH   6  16
ATOM     15  C   UNL     1      -1.832   1.435   1.449  0.00  0.00    -0.096 C 
ATOM     16  N   UNL     1      -1.946  -0.020   1.288  0.00  0.00    +0.382 N 
ATOM     17  C   UNL     1      -3.345  -0.426   1.483  0.00  0.00    -0.096 C 
ATOM     18  H   UNL     1      -1.364  -0.481   1.972  0.00  0.00    -0.082 HD
ENDBRANCH   6  16
ENDBRANCH   5   6
ENDBRANCH   1   5
BRANCH   2  19
ATOM     19  C   UNL     1      -0.325  -4.672   2.039  0.00  0.00    +0.165 C 
BRANCH  19  20
ATOM     20  S   UNL     1      -0.642  -6.453   1.911  0.00  0.00    -0.144 S 
BRANCH  20  21
ATOM     21  C   UNL     1       0.292  -7.166   3.293  0.00  0.00    +0.143 C 
BRANCH  21  22
ATOM     22  C   UNL     1       0.113  -8.662   3.303  0.00  0.00    +0.133 C 
ATOM     23  N   UNL     1      -0.636  -9.204   2.373  0.00  0.00    -0.161 NA
ATOM     24  C   UNL     1      -0.849 -10.522   2.293  0.00  0.00    +0.271 C 
ATOM     25  O   UNL     1      -1.556 -10.992   1.419  0.00  0.00    -0.268 OA
ATOM     26  C   UNL     1      -0.193 -11.402   3.309  0.00  0.00    +0.071 C 
ATOM     27  C   UNL     1      -0.162 -12.746   3.357  0.00  0.00    -0.042 C 
ATOM     28  C   UNL     1      -0.405 -13.974   2.484  0.00  0.00    +0.033 C 
ATOM     29  C   UNL     1       0.665 -15.006   2.900  0.00  0.00    +0.006 C 
ATOM     30  C   UNL     1       1.429 -14.369   4.090  0.00  0.00    +0.019 C 
ATOM     31  C   UNL     1       0.403 -13.361   4.639  0.00  0.00    +0.079 C 
ATOM     32  S   UNL     1       1.228 -11.920   5.407  0.00  0.00    -0.097 S 
ATOM     33  C   UNL     1       0.608 -10.666   4.312  0.00  0.00    +0.111 C 
ATOM     34  N   UNL     1       0.724  -9.362   4.246  0.00  0.00    -0.227 NA
ENDBRANCH  21  22
ENDBRANCH  20  21
ENDBRANCH  19  20
ENDBRANCH   2  19
TORSDOF 9
