REMARK  Name = ZINC12317691
REMARK  7 active torsions:
REMARK  status: ('A' for Active; 'I' for Inactive)
REMARK    1  A    between atoms: C_1  and  C_2
REMARK    2  A    between atoms: C_6  and  C_8
REMARK    3  A    between atoms: C_8  and  N_9
REMARK    4  A    between atoms: N_9  and  C_10
REMARK    5  A    between atoms: C_11  and  C_13
REMARK    6  A    between atoms: C_13  and  C_14
REMARK    7  A    between atoms: C_21  and  N_55
REMARK                            x       y       z     vdW  Elec       q    Type
REMARK                         _______ _______ _______ _____ _____    ______ ____
ROOT
ATOM      1  C   UNL     1      -2.237   1.023   1.231  0.00  0.00    +0.028 C 
ATOM      2  C   UNL     1      -3.339   1.514   2.126  0.00  0.00    +0.200 C 
ATOM      3  O   UNL     1      -4.344   0.844   2.233  0.00  0.00    -0.278 OA
ATOM      4  N   UNL     1      -3.259   2.660   2.811  0.00  0.00    -0.318 N 
ATOM      5  C   UNL     1      -2.080   3.522   2.780  0.00  0.00    +0.085 C 
ATOM      6  C   UNL     1      -1.212   3.180   1.567  0.00  0.00    -0.058 C 
ATOM      7  H   UNL     1      -4.017   2.932   3.351  0.00  0.00    +0.149 HD
ATOM      8  N   UNL     1      -0.982   1.721   1.567  0.00  0.00    +0.391 N 
ATOM      9  H   UNL     1      -0.676   1.429   2.502  0.00  0.00    -0.080 HD
ENDROOT
BRANCH   8  10
ATOM     10  C   UNL     1       0.070   1.373   0.584  0.00  0.00    -0.059 C 
ATOM     11  C   UNL     1      -0.146   2.091  -0.764  0.00  0.00    +0.020 C 
ATOM     12  C   UNL     1       0.643   3.378  -0.658  0.00  0.00    -0.046 A 
ATOM     13  C   UNL     1       0.572   4.539  -1.410  0.00  0.00    +0.004 A 
ATOM     14  C   UNL     1       1.405   5.603  -1.127  0.00  0.00    +0.000 A 
ATOM     15  C   UNL     1       2.314   5.510  -0.089  0.00  0.00    +0.000 A 
ATOM     16  C   UNL     1       2.387   4.353   0.662  0.00  0.00    +0.004 A 
ATOM     17  C   UNL     1       1.552   3.285   0.379  0.00  0.00    -0.046 A 
ATOM     18  C   UNL     1       1.435   1.929   1.041  0.00  0.00    +0.020 C 
ENDBRANCH   8  10
BRANCH   1  19
ATOM     19  C   UNL     1      -2.043  -0.480   1.443  0.00  0.00    +0.090 C 
BRANCH  19  22
ATOM     20  N   UNL     1      -1.351  -1.993   3.274  0.00  0.00    -0.297 N 
ATOM     21  C   UNL     1      -1.530  -3.115   2.350  0.00  0.00    +0.132 C 
ATOM     22  C   UNL     1      -1.591  -0.733   2.858  0.00  0.00    +0.215 C 
ATOM     23  O   UNL     1      -1.443   0.196   3.623  0.00  0.00    -0.276 OA
BRANCH  20  24
ATOM     24  C   UNL     1      -0.912  -2.239   4.649  0.00  0.00    +0.181 C 
BRANCH  24  30
ATOM     25  C   UNL     1      -4.842  -1.305   7.615  0.00  0.00    +0.067 C 
ATOM     26  C   UNL     1      -3.810  -2.052   6.810  0.00  0.00    +0.056 A 
ATOM     27  C   UNL     1      -3.726  -3.389   6.676  0.00  0.00    +0.107 A 
ATOM     28  N   UNL     1      -2.656  -3.639   5.860  0.00  0.00    -0.347 N 
ATOM     29  H   UNL     1      -2.333  -4.538   5.563  0.00  0.00    +0.167 HD
ATOM     30  C   UNL     1      -2.116  -2.446   5.532  0.00  0.00    +0.125 A 
ATOM     31  N   UNL     1      -2.814  -1.500   6.100  0.00  0.00    -0.236 NA
ENDBRANCH  24  30
ENDBRANCH  20  24
ENDBRANCH  19  22
ENDBRANCH   1  19
TORSDOF 5
