REMARK  Name = ZINC22851966
REMARK  7 active torsions:
REMARK  status: ('A' for Active; 'I' for Inactive)
REMARK    1  A    between atoms: C_1  and  C_2
REMARK    2  A    between atoms: N_5  and  C_11
REMARK    3  A    between atoms: C_7  and  C_10
REMARK    4  A    between atoms: C_11  and  C_13
REMARK    5  A    between atoms: C_11  and  C_20
REMARK    6  A    between atoms: C_21  and  O_33
REMARK    7  A    between atoms: C_26  and  C_28
REMARK                            x       y       z     vdW  Elec       q    Type
REMARK                         _______ _______ _______ _____ _____    ______ ____
ROOT
ATOM      1  C   UNL     1      -0.079   6.003   0.036  0.00  0.00    +0.129 C 
ENDROOT
BRANCH   1   5
ATOM      2  C   UNL     1      -1.562   6.245   4.723  0.00  0.00    +0.039 C 
ATOM      3  C   UNL     1      -1.884   6.641   3.280  0.00  0.00    +0.130 C 
ATOM      4  C   UNL     1      -0.797   6.100   2.348  0.00  0.00    +0.116 C 
ATOM      5  N   UNL     1      -1.070   6.548   0.974  0.00  0.00    -0.286 NA
ATOM      6  C   UNL     1      -1.110   8.016   0.904  0.00  0.00    +0.116 C 
ATOM      7  C   UNL     1      -2.194   8.538   1.851  0.00  0.00    +0.130 C 
ATOM      8  O   UNL     1      -1.929   8.066   3.175  0.00  0.00    -0.371 OA
ATOM      9  C   UNL     1      -3.562   8.030   1.392  0.00  0.00    +0.039 C 
ENDBRANCH   1   5
BRANCH   1  10
ATOM     10  C   UNL     1      -0.398   6.473  -1.360  0.00  0.00    +0.076 A 
ATOM     11  C   UNL     1       0.421   6.987  -2.285  0.00  0.00    +0.228 A 
ATOM     12  N   UNL     1      -0.058   7.358  -3.518  0.00  0.00    -0.173 N 
ATOM     13  C   UNL     1      -1.397   7.189  -3.742  0.00  0.00    +0.200 A 
ATOM     14  S   UNL     1      -1.969   6.498  -2.209  0.00  0.00    -0.047 S 
ATOM     15  N   UNL     1      -1.695   7.590  -4.946  0.00  0.00    -0.197 NA
ATOM     16  C   UNL     1      -0.585   8.032  -5.554  0.00  0.00    +0.218 A 
ATOM     17  N   UNL     1       0.433   7.912  -4.729  0.00  0.00    -0.138 NA
BRANCH  16  18
ATOM     18  C   UNL     1      -0.515   8.568  -6.929  0.00  0.00    +0.173 A 
ATOM     19  C   UNL     1      -1.560   8.696  -7.789  0.00  0.00    +0.053 A 
ATOM     20  C   UNL     1      -1.042   9.248  -8.978  0.00  0.00    +0.042 A 
ATOM     21  C   UNL     1       0.280   9.427  -8.787  0.00  0.00    +0.196 A 
ATOM     22  O   UNL     1       0.594   9.020  -7.546  0.00  0.00    -0.460 OA
ENDBRANCH  16  18
BRANCH  11  23
ATOM     23  O   UNL     1       1.743   7.139  -2.003  0.00  0.00    -0.492 OA
ATOM     24  H   UNL     1       2.422   7.561  -2.759  0.00  0.00    +0.294 HD
ENDBRANCH  11  23
ENDBRANCH   1  10
BRANCH   1  25
ATOM     25  C   UNL     1      -0.121   4.498   0.081  0.00  0.00    -0.025 A 
ATOM     26  C   UNL     1       1.056   3.776   0.154  0.00  0.00    +0.007 A 
ATOM     27  C   UNL     1       1.019   2.395   0.196  0.00  0.00    +0.020 A 
ATOM     28  C   UNL     1      -0.196   1.735   0.163  0.00  0.00    +0.041 A 
ATOM     29  C   UNL     1      -1.373   2.457   0.084  0.00  0.00    +0.020 A 
ATOM     30  C   UNL     1      -1.335   3.838   0.049  0.00  0.00    +0.007 A 
ATOM     31 CL   UNL     1      -0.244   0.000   0.215  0.00  0.00    -0.084 Cl
ENDBRANCH   1  25
TORSDOF 5
