REMARK  Name = ZINC65549498
REMARK  5 active torsions:
REMARK  status: ('A' for Active; 'I' for Inactive)
REMARK    1  A    between atoms: C_6  and  C_10
REMARK    2  A    between atoms: C_13  and  N_16
REMARK    3  A    between atoms: C_22  and  O_27
REMARK    4  A    between atoms: O_27  and  C_28
REMARK    5  A    between atoms: C_32  and  N_34
REMARK                            x       y       z     vdW  Elec       q    Type
REMARK                         _______ _______ _______ _____ _____    ______ ____
ROOT
ATOM      1  N   UNL     1       4.969  -4.729   4.626  0.00  0.00    -0.202 N 
ATOM      2  C   UNL     1       6.149  -4.520   5.236  0.00  0.00    +0.258 C 
ATOM      3  O   UNL     1       6.982  -3.701   4.905  0.00  0.00    -0.269 OA
ATOM      4  C   UNL     1       6.263  -5.452   6.375  0.00  0.00    +0.050 A 
ATOM      5  C   UNL     1       7.233  -5.687   7.338  0.00  0.00    +0.017 A 
ATOM      6  C   UNL     1       7.027  -6.663   8.297  0.00  0.00    +0.047 A 
ATOM      7  C   UNL     1       5.855  -7.408   8.302  0.00  0.00    +0.129 A 
ATOM      8  C   UNL     1       4.873  -7.180   7.339  0.00  0.00    +0.060 A 
ATOM      9  C   UNL     1       5.071  -6.207   6.377  0.00  0.00    +0.053 A 
ATOM     10  C   UNL     1       4.272  -5.702   5.240  0.00  0.00    +0.258 C 
ATOM     11  O   UNL     1       3.172  -6.101   4.913  0.00  0.00    -0.269 OA
ENDROOT
BRANCH   1  15
ATOM     12  C   UNL     1       3.638  -2.627   1.281  0.00  0.00    -0.005 A 
ATOM     13  C   UNL     1       4.874  -2.338   1.831  0.00  0.00    +0.009 A 
ATOM     14  C   UNL     1       5.317  -3.033   2.940  0.00  0.00    +0.024 A 
ATOM     15  C   UNL     1       4.521  -4.022   3.502  0.00  0.00    +0.045 A 
ATOM     16  C   UNL     1       3.281  -4.309   2.947  0.00  0.00    +0.024 A 
ATOM     17  C   UNL     1       2.841  -3.608   1.842  0.00  0.00    +0.009 A 
BRANCH  12  23
ATOM     18  C   UNL     1       0.240   1.683   0.220  0.00  0.00    +0.002 A 
ATOM     19  C   UNL     1       1.449   2.400   0.190  0.00  0.00    +0.002 A 
ATOM     20  C   UNL     1       2.652   1.793   0.141  0.00  0.00    +0.027 A 
ATOM     21  C   UNL     1       2.724   0.326   0.118  0.00  0.00    +0.060 A 
ATOM     22  N   UNL     1       3.720  -0.511   0.073  0.00  0.00    -0.360 N 
ATOM     23  C   UNL     1       3.157  -1.867   0.072  0.00  0.00    +0.206 C 
ATOM     24  N   UNL     1       1.698  -1.709   0.123  0.00  0.00    -0.360 N 
ATOM     25  C   UNL     1       1.444  -0.433   0.150  0.00  0.00    +0.060 A 
ATOM     26  C   UNL     1       0.193   0.336   0.203  0.00  0.00    +0.027 A 
ATOM     27  H   UNL     1       4.662  -0.280   0.044  0.00  0.00    +0.162 HD
ATOM     28  H   UNL     1       1.044  -2.425   0.135  0.00  0.00    +0.162 HD
ENDBRANCH  12  23
ENDBRANCH   1  15
BRANCH   7  29
ATOM     29  O   UNL     1       5.665  -8.362   9.247  0.00  0.00    -0.456 OA
BRANCH  29  30
ATOM     30  C   UNL     1       5.512  -7.961  10.537  0.00  0.00    +0.131 A 
ATOM     31  C   UNL     1       5.449  -8.902  11.555  0.00  0.00    +0.046 A 
ATOM     32  C   UNL     1       5.293  -8.492  12.864  0.00  0.00    +0.006 A 
ATOM     33  C   UNL     1       5.200  -7.145  13.161  0.00  0.00    +0.033 A 
ATOM     34  C   UNL     1       5.263  -6.205  12.149  0.00  0.00    +0.130 A 
ATOM     35  C   UNL     1       5.425  -6.610  10.838  0.00  0.00    +0.079 A 
BRANCH  34  36
ATOM     36  N   UNL     1       5.163  -4.764  12.471  0.00  0.00    +0.057 N 
ATOM     37  O   UNL     1       5.026  -4.409  13.619  0.00  0.00    -0.126 OA
ATOM     38  O   UNL     1       5.218  -3.942  11.587  0.00  0.00    -0.126 OA
ENDBRANCH  34  36
ENDBRANCH  29  30
ENDBRANCH   7  29
TORSDOF 5
