REMARK  Name = ZINC15222395
REMARK  6 active torsions:
REMARK  status: ('A' for Active; 'I' for Inactive)
REMARK    1  A    between atoms: C_7  and  C_14
REMARK    2  A    between atoms: C_14  and  O_16
REMARK    3  A    between atoms: O_16  and  C_17
REMARK    4  A    between atoms: C_17  and  C_18
REMARK    5  A    between atoms: N_20  and  C_21
REMARK    6  A    between atoms: C_22  and  C_30
REMARK                            x       y       z     vdW  Elec       q    Type
REMARK                         _______ _______ _______ _____ _____    ______ ____
ROOT
ATOM      1  O   UNL     1       1.184   4.256  -1.151  0.00  0.00    -0.452 OA
ENDROOT
BRANCH   1   2
ATOM      2  C   UNL     1       1.191   3.575   0.011  0.00  0.00    +0.341 C 
ATOM      3  O   UNL     1       1.206   4.175   1.067  0.00  0.00    -0.245 OA
BRANCH   2  10
ATOM      4  C   UNL     1       4.775   1.246  -0.047  0.00  0.00    +0.001 A 
ATOM      5  C   UNL     1       4.714  -0.146  -0.057  0.00  0.00    +0.002 A 
ATOM      6  C   UNL     1       3.519  -0.797  -0.046  0.00  0.00    +0.028 A 
ATOM      7  C   UNL     1       2.321  -0.058  -0.025  0.00  0.00    +0.072 A 
ATOM      8  C   UNL     1       2.389   1.358  -0.016  0.00  0.00    +0.015 A 
ATOM      9  C   UNL     1       3.636   1.995  -0.026  0.00  0.00    +0.011 A 
ATOM     10  C   UNL     1       1.180   2.097   0.002  0.00  0.00    +0.073 A 
ATOM     11  C   UNL     1      -0.017   1.389   0.010  0.00  0.00    -0.012 A 
ATOM     12  C   UNL     1       0.002  -0.004   0.002  0.00  0.00    +0.046 A 
ATOM     13  N   UNL     1       1.137  -0.669  -0.014  0.00  0.00    -0.251 NA
ATOM     14  C   UNL     1      -1.422  -0.524   0.014  0.00  0.00    +0.056 C 
ATOM     15  C   UNL     1      -2.296   0.672  -0.415  0.00  0.00    +0.011 C 
ATOM     16  C   UNL     1      -1.447   1.883   0.020  0.00  0.00    +0.038 C 
ENDBRANCH   2  10
ENDBRANCH   1   2
BRANCH   1  17
ATOM     17  C   UNL     1       1.196   5.705  -1.066  0.00  0.00    +0.328 C 
BRANCH  17  18
ATOM     18  C   UNL     1       1.186   6.290  -2.455  0.00  0.00    +0.255 C 
ATOM     19  O   UNL     1       1.171   5.557  -3.421  0.00  0.00    -0.272 OA
ATOM     20  N   UNL     1       1.194   7.627  -2.623  0.00  0.00    -0.276 N 
ATOM     21  H   UNL     1       1.206   8.213  -1.850  0.00  0.00    +0.155 HD
BRANCH  20  22
ATOM     22  C   UNL     1       1.185   8.166  -3.902  0.00  0.00    +0.090 A 
ATOM     23  C   UNL     1       1.186   9.502  -4.274  0.00  0.00    +0.084 A 
ATOM     24  C   UNL     1       1.179   9.804  -5.695  0.00  0.00    -0.018 A 
ATOM     25  C   UNL     1       1.162   8.727  -6.512  0.00  0.00    -0.004 A 
ATOM     26  S   UNL     1       1.163   7.332  -5.421  0.00  0.00    -0.077 S 
ATOM     27  C   UNL     1       1.145   8.729  -8.009  0.00  0.00    +0.043 C 
ATOM     28  C   UNL     1       0.772  10.140  -8.486  0.00  0.00    +0.005 C 
ATOM     29  C   UNL     1       1.625  11.160  -7.726  0.00  0.00    +0.005 C 
ATOM     30  C   UNL     1       1.184  11.218  -6.262  0.00  0.00    +0.037 C 
BRANCH  23  31
ATOM     31  C   UNL     1       1.197  10.546  -3.294  0.00  0.00    +0.102 C 
ATOM     32  N   UNL     1       1.206  11.374  -2.516  0.00  0.00    -0.191 NA
ENDBRANCH  23  31
ENDBRANCH  20  22
ENDBRANCH  17  18
ENDBRANCH   1  17
TORSDOF 6
