REMARK  Name = ZINC07638246
REMARK  7 active torsions:
REMARK  status: ('A' for Active; 'I' for Inactive)
REMARK    1  A    between atoms: C_1  and  C_2
REMARK    2  A    between atoms: C_7  and  N_12
REMARK    3  A    between atoms: C_9  and  C_11
REMARK    4  A    between atoms: C_13  and  C_15
REMARK    5  A    between atoms: C_15  and  N_58
REMARK    6  A    between atoms: N_18  and  S_21
REMARK    7  A    between atoms: S_21  and  C_24
REMARK                            x       y       z     vdW  Elec       q    Type
REMARK                         _______ _______ _______ _____ _____    ______ ____
ROOT
ATOM      1  C   UNL     1       0.337   0.554  -5.082  0.00  0.00    -0.061 C 
ATOM      2  C   UNL     1       0.614  -0.521  -6.139  0.00  0.00    +0.091 C 
ATOM      3  N   UNL     1      -0.338  -0.344  -7.246  0.00  0.00    -0.180 NA
ATOM      4  C   UNL     1      -1.770  -0.247  -6.923  0.00  0.00    +0.091 C 
ATOM      5  C   UNL     1      -1.953   0.818  -5.836  0.00  0.00    -0.061 C 
ATOM      6  N   UNL     1      -1.086   0.476  -4.687  0.00  0.00    +0.387 N 
ATOM      7  H   UNL     1      -1.296  -0.482  -4.386  0.00  0.00    -0.081 HD
ENDROOT
BRANCH   3   8
ATOM      8  S   UNL     1       0.188  -0.257  -8.814  0.00  0.00    +0.061 S 
ATOM      9  O   UNL     1       1.445  -0.917  -8.857  0.00  0.00    -0.153 OA
ATOM     10  O   UNL     1      -0.907  -0.647  -9.632  0.00  0.00    -0.153 OA
BRANCH   8  11
ATOM     11  C   UNL     1       0.499   1.442  -9.165  0.00  0.00    +0.106 A 
ATOM     12  C   UNL     1      -0.508   2.237  -9.680  0.00  0.00    +0.030 A 
ATOM     13  C   UNL     1      -0.266   3.570  -9.950  0.00  0.00    +0.022 A 
ATOM     14  C   UNL     1       0.987   4.107  -9.716  0.00  0.00    +0.041 A 
ATOM     15  C   UNL     1       1.996   3.310  -9.205  0.00  0.00    +0.022 A 
ATOM     16  C   UNL     1       1.752   1.978  -8.930  0.00  0.00    +0.030 A 
ATOM     17 CL   UNL     1       1.294   5.780 -10.061  0.00  0.00    -0.084 Cl
ENDBRANCH   8  11
ENDBRANCH   3   8
BRANCH   6  18
ATOM     18  C   UNL     1      -1.349   1.401  -3.565  0.00  0.00    +0.019 C 
BRANCH  18  20
ATOM     19  N   UNL     1      -0.721   1.571  -1.179  0.00  0.00    -0.314 N 
ATOM     20  C   UNL     1      -0.620   0.902  -2.344  0.00  0.00    +0.197 C 
ATOM     21  O   UNL     1       0.057  -0.102  -2.411  0.00  0.00    -0.278 OA
ATOM     22  H   UNL     1      -1.263   2.374  -1.126  0.00  0.00    +0.149 HD
BRANCH  19  28
ATOM     23  C   UNL     1      -1.466   3.603   2.534  0.00  0.00    +0.008 C 
ATOM     24  C   UNL     1      -0.750   3.109   1.275  0.00  0.00    -0.009 C 
ATOM     25  C   UNL     1       0.686   3.639   1.264  0.00  0.00    +0.003 C 
ATOM     26  C   UNL     1       1.402   3.145   0.006  0.00  0.00    +0.002 C 
ATOM     27  C   UNL     1       1.423   1.615  -0.003  0.00  0.00    +0.022 C 
ATOM     28  C   UNL     1      -0.013   1.086   0.008  0.00  0.00    +0.076 C 
ATOM     29  C   UNL     1      -0.729   1.579   1.267  0.00  0.00    +0.009 C 
ATOM     30  C   UNL     1      -2.164   1.050   1.278  0.00  0.00    +0.009 C 
ENDBRANCH  19  28
ENDBRANCH  18  20
ENDBRANCH   6  18
TORSDOF 5
