REMARK  Name = ZINC20696513
REMARK  7 active torsions:
REMARK  status: ('A' for Active; 'I' for Inactive)
REMARK    1  A    between atoms: C_1  and  C_2
REMARK    2  A    between atoms: C_2  and  C_3
REMARK    3  A    between atoms: C_2  and  C_4
REMARK    4  A    between atoms: C_2  and  N_5
REMARK    5  A    between atoms: C_6  and  C_8
REMARK    6  A    between atoms: C_21  and  C_24
REMARK    7  A    between atoms: C_29  and  O_30
REMARK                            x       y       z     vdW  Elec       q    Type
REMARK                         _______ _______ _______ _____ _____    ______ ____
ROOT
ATOM      1  C   UNL     1      -5.201   3.285   2.000  0.00  0.00    +0.037 A 
ATOM      2  C   UNL     1      -4.919   3.234   3.369  0.00  0.00    +0.015 A 
ATOM      3  C   UNL     1      -3.781   2.606   3.813  0.00  0.00    +0.024 A 
ATOM      4  C   UNL     1      -2.899   2.016   2.910  0.00  0.00    +0.031 A 
ATOM      5  C   UNL     1      -3.189   2.056   1.538  0.00  0.00    -0.019 A 
ATOM      6  C   UNL     1      -4.323   2.688   1.091  0.00  0.00    +0.019 A 
ATOM      7  C   UNL     1      -2.234   1.397   0.620  0.00  0.00    +0.049 C 
ATOM      8  C   UNL     1      -2.088   1.820  -0.796  0.00  0.00    -0.023 C 
ATOM      9  C   UNL     1      -0.828   1.630  -1.167  0.00  0.00    -0.030 C 
ATOM     10  C   UNL     1      -0.013   1.086   0.008  0.00  0.00    +0.033 C 
ATOM     11  C   UNL     1      -0.807   1.618   1.208  0.00  0.00    +0.029 C 
ATOM     12  C   UNL     1      -0.768   0.773   2.478  0.00  0.00    +0.108 C 
ATOM     13  N   UNL     1      -1.735   1.418   3.392  0.00  0.00    -0.336 N 
ATOM     14  H   UNL     1      -1.543   1.431   4.475  0.00  0.00    +0.147 HD
ENDROOT
BRANCH  12  15
ATOM     15  C   UNL     1       0.614   0.802   3.078  0.00  0.00    +0.015 A 
ATOM     16  C   UNL     1       0.914   1.706   4.079  0.00  0.00    +0.024 A 
ATOM     17  C   UNL     1       2.183   1.732   4.630  0.00  0.00    +0.018 A 
ATOM     18  C   UNL     1       3.153   0.855   4.181  0.00  0.00    +0.019 A 
ATOM     19  C   UNL     1       2.857  -0.050   3.180  0.00  0.00    +0.047 A 
ATOM     20  C   UNL     1       1.584  -0.083   2.630  0.00  0.00    +0.122 A 
ATOM     21 BR   UNL     1       2.591   2.970   6.001  0.00  0.00    -0.050 Br
BRANCH  20  22
ATOM     22  O   UNL     1       1.289  -0.976   1.649  0.00  0.00    -0.506 OA
ATOM     23  H   UNL     1       2.059  -1.678   1.294  0.00  0.00    +0.292 HD
ENDBRANCH  20  22
ENDBRANCH  12  15
BRANCH   1  25
ATOM     24  N   UNL     1      -7.263   4.537   2.398  0.00  0.00    -0.307 N 
ATOM     25  C   UNL     1      -6.419   3.964   1.518  0.00  0.00    +0.244 C 
ATOM     26  O   UNL     1      -6.660   4.006   0.327  0.00  0.00    -0.270 OA
ATOM     27  H   UNL     1      -7.045   4.499   3.475  0.00  0.00    +0.150 HD
BRANCH  24  29
ATOM     28  C   UNL     1      -9.349   4.211   1.163  0.00  0.00    +0.031 C 
ATOM     29  C   UNL     1      -8.473   5.211   1.919  0.00  0.00    +0.026 C 
ATOM     30  C   UNL     1      -9.250   5.772   3.112  0.00  0.00    +0.031 C 
ATOM     31  C   UNL     1      -8.082   6.356   0.982  0.00  0.00    +0.031 C 
ENDBRANCH  24  29
ENDBRANCH   1  25
TORSDOF 4
