REMARK  Name = ZINC15947066
REMARK  11 active torsions:
REMARK  status: ('A' for Active; 'I' for Inactive)
REMARK    1  A    between atoms: C_1  and  C_2
REMARK    2  A    between atoms: C_2  and  O_3
REMARK    3  A    between atoms: O_3  and  C_4
REMARK    4  A    between atoms: C_6  and  C_18
REMARK    5  A    between atoms: C_9  and  O_10
REMARK    6  A    between atoms: O_10  and  C_11
REMARK    7  A    between atoms: C_11  and  C_12
REMARK    8  A    between atoms: N_27  and  C_30
REMARK    9  A    between atoms: C_30  and  C_31
REMARK   10  A    between atoms: C_30  and  C_32
REMARK   11  A    between atoms: C_33  and  O_35
REMARK                            x       y       z     vdW  Elec       q    Type
REMARK                         _______ _______ _______ _____ _____    ______ ____
ROOT
ATOM      1  C   UNL     1       0.514  -4.914  -0.023  0.00  0.00    +0.224 C 
ATOM      2  N   UNL     1       0.179  -6.179  -0.702  0.00  0.00    -0.313 N 
ATOM      3  C   UNL     1       0.275  -6.179  -2.075  0.00  0.00    +0.080 A 
ATOM      4  C   UNL     1       1.113  -5.288  -2.759  0.00  0.00    +0.067 A 
ATOM      5  C   UNL     1       1.097  -5.400  -4.203  0.00  0.00    -0.027 A 
ATOM      6  C   UNL     1       0.273  -6.360  -4.687  0.00  0.00    -0.021 A 
ATOM      7  S   UNL     1      -0.457  -7.092  -3.250  0.00  0.00    -0.080 S 
ATOM      8  C   UNL     1       0.055  -6.693  -6.128  0.00  0.00    -0.035 C 
ATOM      9  N   UNL     1       0.575  -5.581  -6.946  0.00  0.00    +0.384 N 
ATOM     10  C   UNL     1       1.942  -5.253  -6.520  0.00  0.00    -0.073 C 
ATOM     11  C   UNL     1       1.917  -4.545  -5.161  0.00  0.00    +0.018 C 
ATOM     12  C   UNL     1       1.921  -4.346  -1.942  0.00  0.00    +0.220 C 
ATOM     13  N   UNL     1       1.623  -4.231  -0.678  0.00  0.00    -0.223 NA
ATOM     14  H   UNL     1      -0.093  -6.968  -0.208  0.00  0.00    +0.149 HD
ATOM     15  H   UNL     1      -0.017  -4.772  -6.828  0.00  0.00    -0.081 HD
ENDROOT
BRANCH   1  18
ATOM     16  C   UNL     1      -1.643  -1.812  -0.050  0.00  0.00    +0.162 A 
ATOM     17  C   UNL     1      -0.532  -2.641  -0.036  0.00  0.00    +0.056 A 
ATOM     18  C   UNL     1      -0.695  -4.013  -0.038  0.00  0.00    -0.002 A 
ATOM     19  C   UNL     1      -1.964  -4.562  -0.053  0.00  0.00    +0.011 A 
ATOM     20  C   UNL     1      -3.075  -3.741  -0.067  0.00  0.00    +0.050 A 
ATOM     21  C   UNL     1      -2.920  -2.364  -0.059  0.00  0.00    +0.162 A 
BRANCH  16  22
ATOM     22  O   UNL     1      -1.484  -0.461  -0.048  0.00  0.00    -0.489 OA
BRANCH  22  24
ATOM     23  C   UNL     1      -0.167   1.565  -0.037  0.00  0.00    +0.048 C 
ATOM     24  C   UNL     1      -0.144   0.035  -0.038  0.00  0.00    +0.226 C 
ENDBRANCH  22  24
ENDBRANCH  16  22
BRANCH  21  25
ATOM     25  O   UNL     1      -4.012  -1.554  -0.066  0.00  0.00    -0.484 OA
BRANCH  25  26
ATOM     26  C   UNL     1      -5.292  -2.191  -0.076  0.00  0.00    +0.264 C 
BRANCH  26  27
ATOM     27  C   UNL     1      -6.375  -1.143  -0.083  0.00  0.00    -0.010 A 
ATOM     28  C   UNL     1      -6.876  -0.659   1.111  0.00  0.00    +0.007 A 
ATOM     29  C   UNL     1      -7.869   0.302   1.104  0.00  0.00    +0.000 A 
ATOM     30  C   UNL     1      -8.361   0.780  -0.096  0.00  0.00    +0.000 A 
ATOM     31  C   UNL     1      -7.859   0.296  -1.290  0.00  0.00    +0.000 A 
ATOM     32  C   UNL     1      -6.863  -0.662  -1.284  0.00  0.00    +0.007 A 
ENDBRANCH  26  27
ENDBRANCH  25  26
ENDBRANCH  21  25
ENDBRANCH   1  18
BRANCH   9  33
ATOM     33  C   UNL     1       0.585  -5.977  -8.360  0.00  0.00    -0.074 C 
ATOM     34  C   UNL     1      -0.813  -6.447  -8.768  0.00  0.00    -0.014 C 
ATOM     35  C   UNL     1       0.992  -4.780  -9.222  0.00  0.00    -0.014 C 
ENDBRANCH   9  33
BRANCH  12  36
ATOM     36  O   UNL     1       2.931  -3.632  -2.491  0.00  0.00    -0.492 OA
ATOM     37  H   UNL     1       3.387  -3.051  -1.867  0.00  0.00    +0.294 HD
ENDBRANCH  12  36
TORSDOF 8
