REMARK  Name = ZINC12308412
REMARK  5 active torsions:
REMARK  status: ('A' for Active; 'I' for Inactive)
REMARK    1  A    between atoms: C_1  and  C_2
REMARK    2  A    between atoms: C_7  and  N_8
REMARK    3  A    between atoms: C_14  and  C_16
REMARK    4  A    between atoms: C_16  and  C_17
REMARK    5  A    between atoms: C_24  and  N_60
REMARK                            x       y       z     vdW  Elec       q    Type
REMARK                         _______ _______ _______ _____ _____    ______ ____
ROOT
ATOM      1  N   UNL     1       3.569   1.290   0.265  0.00  0.00    -0.327 N 
ATOM      2  C   UNL     1       4.247   1.414  -1.032  0.00  0.00    +0.124 C 
ATOM      3  C   UNL     1       5.386   2.433  -0.914  0.00  0.00    +0.126 C 
ATOM      4  N   UNL     1       6.253   2.037   0.206  0.00  0.00    -0.299 N 
ATOM      5  C   UNL     1       5.626   1.760   1.507  0.00  0.00    +0.126 C 
ATOM      6  C   UNL     1       4.478   0.768   1.294  0.00  0.00    +0.124 C 
ATOM      7  C   UNL     1       7.587   1.930   0.044  0.00  0.00    +0.215 C 
ATOM      8  O   UNL     1       8.287   1.602   0.979  0.00  0.00    -0.276 OA
ENDROOT
BRANCH   1  15
ATOM      9  C   UNL     1       1.042   2.502   0.753  0.00  0.00    +0.045 C 
ATOM     10  C   UNL     1       1.171   1.046   0.387  0.00  0.00    -0.029 A 
ATOM     11  C   UNL     1       0.042   0.258   0.281  0.00  0.00    +0.006 A 
ATOM     12  C   UNL     1       0.158  -1.079  -0.055  0.00  0.00    +0.020 A 
ATOM     13  C   UNL     1       1.407  -1.631  -0.285  0.00  0.00    +0.043 A 
ATOM     14  C   UNL     1       2.540  -0.847  -0.180  0.00  0.00    +0.043 A 
ATOM     15  C   UNL     1       2.425   0.495   0.157  0.00  0.00    +0.034 A 
ATOM     16 CL   UNL     1       1.548  -3.309  -0.708  0.00  0.00    -0.083 Cl
ENDBRANCH   1  15
BRANCH   7  17
ATOM     17  C   UNL     1       8.208   2.218  -1.298  0.00  0.00    +0.090 C 
BRANCH  17  18
ATOM     18  C   UNL     1       9.732   2.162  -1.177  0.00  0.00    +0.028 C 
ATOM     19  C   UNL     1      10.197   3.234  -0.232  0.00  0.00    +0.200 C 
ATOM     20  O   UNL     1       9.696   4.335  -0.310  0.00  0.00    -0.278 OA
ATOM     21  N   UNL     1      11.140   3.024   0.693  0.00  0.00    -0.318 N 
ATOM     22  C   UNL     1      11.780   1.727   0.893  0.00  0.00    +0.085 C 
ATOM     23  C   UNL     1      11.566   0.841  -0.335  0.00  0.00    -0.058 C 
ATOM     24  H   UNL     1      11.412   3.766   1.255  0.00  0.00    +0.149 HD
ATOM     25  N   UNL     1      10.124   0.840  -0.653  0.00  0.00    +0.390 N 
ATOM     26  H   UNL     1       9.592   0.648   0.204  0.00  0.00    -0.080 HD
BRANCH  25  27
ATOM     27  C   UNL     1       9.824  -0.210  -1.653  0.00  0.00    -0.067 C 
ATOM     28  C   UNL     1      10.073  -1.600  -1.031  0.00  0.00    -0.015 C 
ATOM     29  C   UNL     1      10.652  -2.439  -2.197  0.00  0.00    -0.002 C 
ATOM     30  C   UNL     1      11.552  -1.420  -2.938  0.00  0.00    -0.002 C 
ATOM     31  C   UNL     1      10.764  -0.096  -2.865  0.00  0.00    -0.015 C 
ENDBRANCH  25  27
ENDBRANCH  17  18
ENDBRANCH   7  17
TORSDOF 4
