REMARK  Name = ZINC65094545
REMARK  9 active torsions:
REMARK  status: ('A' for Active; 'I' for Inactive)
REMARK    1  A    between atoms: C_1  and  C_2
REMARK    2  A    between atoms: C_3  and  C_22
REMARK    3  A    between atoms: C_4  and  C_9
REMARK    4  A    between atoms: C_11  and  N_19
REMARK    5  A    between atoms: C_14  and  O_15
REMARK    6  A    between atoms: O_15  and  C_16
REMARK    7  A    between atoms: C_22  and  O_24
REMARK    8  A    between atoms: O_24  and  C_25
REMARK    9  A    between atoms: C_25  and  C_26
REMARK                            x       y       z     vdW  Elec       q    Type
REMARK                         _______ _______ _______ _____ _____    ______ ____
ROOT
ATOM      1  C   UNL     1       0.101   1.513   0.171  0.00  0.00    +0.061 C 
ATOM      2  C   UNL     1       0.069   0.009   0.265  0.00  0.00    +0.019 C 
ATOM      3  C   UNL     1      -1.121  -0.631   0.277  0.00  0.00    +0.078 C 
ATOM      4  C   UNL     1      -1.107  -2.143   0.372  0.00  0.00    +0.145 C 
ATOM      5  N   UNL     1       0.211  -2.795   0.444  0.00  0.00    -0.315 N 
ATOM      6  C   UNL     1       1.313  -2.018   0.421  0.00  0.00    +0.135 C 
ATOM      7  S   UNL     1       2.852  -2.763   0.503  0.00  0.00    -0.019 S 
ATOM      8  N   UNL     1       1.242  -0.684   0.330  0.00  0.00    -0.300 N 
ATOM      9  H   UNL     1       0.285  -3.760   0.506  0.00  0.00    +0.149 HD
ATOM     10  H   UNL     1       2.072  -0.182   0.314  0.00  0.00    +0.154 HD
ENDROOT
BRANCH   4  11
ATOM     11  C   UNL     1      -1.832  -2.691  -0.830  0.00  0.00    +0.021 A 
ATOM     12  C   UNL     1      -2.027  -1.894  -1.942  0.00  0.00    +0.042 A 
ATOM     13  C   UNL     1      -2.691  -2.396  -3.046  0.00  0.00    +0.127 A 
ATOM     14  C   UNL     1      -3.163  -3.696  -3.040  0.00  0.00    +0.036 A 
ATOM     15  C   UNL     1      -2.970  -4.496  -1.931  0.00  0.00    +0.048 A 
ATOM     16  C   UNL     1      -2.299  -3.997  -0.824  0.00  0.00    +0.132 A 
BRANCH  13  17
ATOM     17  N   UNL     1      -2.899  -1.540  -4.235  0.00  0.00    +0.056 N 
ATOM     18  O   UNL     1      -2.488  -0.403  -4.242  0.00  0.00    -0.126 OA
ATOM     19  O   UNL     1      -3.480  -1.978  -5.201  0.00  0.00    -0.126 OA
ENDBRANCH  13  17
BRANCH  16  20
ATOM     20  O   UNL     1      -2.104  -4.784   0.267  0.00  0.00    -0.434 OA
BRANCH  20  21
ATOM     21  C   UNL     1      -2.508  -6.151   0.161  0.00  0.00    +0.541 C 
ATOM     22  F   UNL     1      -3.896  -6.215  -0.003  0.00  0.00    -0.166 F 
ATOM     23  F   UNL     1      -1.881  -6.739  -0.943  0.00  0.00    -0.166 F 
ENDBRANCH  20  21
ENDBRANCH  16  20
ENDBRANCH   4  11
BRANCH   3  24
ATOM     24  C   UNL     1      -2.337   0.086   0.204  0.00  0.00    +0.339 C 
ATOM     25  O   UNL     1      -2.328   1.303   0.216  0.00  0.00    -0.245 OA
BRANCH  24  26
ATOM     26  O   UNL     1      -3.509  -0.579   0.122  0.00  0.00    -0.457 OA
BRANCH  26  27
ATOM     27  C   UNL     1      -4.689   0.206  -0.060  0.00  0.00    +0.259 C 
BRANCH  27  28
ATOM     28  C   UNL     1      -5.901  -0.689  -0.008  0.00  0.00    +0.006 C 
ATOM     29  C   UNL     1      -6.945  -0.336   0.700  0.00  0.00    +0.007 C 
ENDBRANCH  27  28
ENDBRANCH  26  27
ENDBRANCH  24  26
ENDBRANCH   3  24
TORSDOF 8
