REMARK  Name = ZINC60242063
REMARK  7 active torsions:
REMARK  status: ('A' for Active; 'I' for Inactive)
REMARK    1  A    between atoms: C_1  and  C_2
REMARK    2  A    between atoms: C_5  and  C_8
REMARK    3  A    between atoms: C_8  and  C_10
REMARK    4  A    between atoms: C_8  and  N_15
REMARK    5  A    between atoms: C_16  and  C_18
REMARK    6  A    between atoms: C_18  and  N_19
REMARK    7  A    between atoms: C_27  and  C_29
REMARK                            x       y       z     vdW  Elec       q    Type
REMARK                         _______ _______ _______ _____ _____    ______ ____
ROOT
ATOM      1  N   UNL     1      -1.019  -5.980   0.728  0.00  0.00    -0.303 N 
ATOM      2  C   UNL     1       0.103  -6.726   0.705  0.00  0.00    +0.231 C 
ATOM      3  O   UNL     1       0.326  -7.457  -0.237  0.00  0.00    -0.274 OA
ATOM      4  H   UNL     1      -1.198  -5.396   1.481  0.00  0.00    +0.150 HD
ENDROOT
BRANCH   1   5
ATOM      5  C   UNL     1      -1.970  -6.053  -0.385  0.00  0.00    +0.140 C 
BRANCH   5  10
ATOM      6  C   UNL     1      -5.006  -1.143  -0.649  0.00  0.00    +0.044 C 
ATOM      7  C   UNL     1      -4.214  -2.423  -0.580  0.00  0.00    -0.050 A 
ATOM      8  C   UNL     1      -3.782  -3.032  -1.743  0.00  0.00    +0.004 A 
ATOM      9  C   UNL     1      -3.056  -4.207  -1.680  0.00  0.00    +0.006 A 
ATOM     10  C   UNL     1      -2.761  -4.772  -0.454  0.00  0.00    -0.022 A 
ATOM     11  C   UNL     1      -3.192  -4.162   0.710  0.00  0.00    +0.006 A 
ATOM     12  C   UNL     1      -3.914  -2.986   0.647  0.00  0.00    +0.004 A 
ENDBRANCH   5  10
BRANCH   5  13
ATOM     13  C   UNL     1      -2.908  -7.212  -0.170  0.00  0.00    +0.014 A 
ATOM     14  C   UNL     1      -3.389  -8.101  -1.073  0.00  0.00    +0.013 A 
ATOM     15  C   UNL     1      -4.248  -9.095  -0.644  0.00  0.00    +0.008 A 
ATOM     16  C   UNL     1      -4.584  -9.152   0.668  0.00  0.00    +0.045 A 
ATOM     17  S   UNL     1      -3.670  -7.775   1.344  0.00  0.00    -0.099 S 
ENDBRANCH   5  13
ENDBRANCH   1   5
BRANCH   2  18
ATOM     18  C   UNL     1       1.081  -6.652   1.849  0.00  0.00    +0.201 C 
BRANCH  18  19
ATOM     19  N   UNL     1       2.145  -7.638   1.647  0.00  0.00    -0.309 N 
ATOM     20  C   UNL     1       3.367  -7.380   1.024  0.00  0.00    +0.034 A 
ATOM     21  C   UNL     1       3.846  -6.188   0.475  0.00  0.00    +0.023 A 
ATOM     22  C   UNL     1       5.097  -6.142  -0.101  0.00  0.00    +0.002 A 
ATOM     23  C   UNL     1       5.888  -7.276  -0.140  0.00  0.00    +0.000 A 
ATOM     24  C   UNL     1       5.422  -8.459   0.402  0.00  0.00    +0.005 A 
ATOM     25  C   UNL     1       4.168  -8.510   0.981  0.00  0.00    -0.024 A 
ATOM     26  C   UNL     1       3.424  -9.652   1.636  0.00  0.00    +0.069 C 
ATOM     27  C   UNL     1       2.084  -9.039   2.074  0.00  0.00    +0.164 C 
BRANCH  27  28
ATOM     28  C   UNL     1       1.932  -9.122   3.571  0.00  0.00    +0.231 C 
ATOM     29  O   UNL     1       2.342  -8.223   4.274  0.00  0.00    -0.274 OA
ATOM     30  N   UNL     1       1.341 -10.197   4.129  0.00  0.00    -0.328 N 
ATOM     31  H   UNL     1       1.013 -10.917   3.567  0.00  0.00    +0.145 HD
ATOM     32  H   UNL     1       1.243 -10.251   5.093  0.00  0.00    +0.145 HD
ENDBRANCH  27  28
ENDBRANCH  18  19
ENDBRANCH   2  18
TORSDOF 6
