REMARK  Name = ZINC15236734
REMARK  8 active torsions:
REMARK  status: ('A' for Active; 'I' for Inactive)
REMARK    1  A    between atoms: C_1  and  C_2
REMARK    2  A    between atoms: C_2  and  C_22
REMARK    3  A    between atoms: N_5  and  C_9
REMARK    4  A    between atoms: C_9  and  C_10
REMARK    5  A    between atoms: C_10  and  C_12
REMARK    6  A    between atoms: C_10  and  O_21
REMARK    7  A    between atoms: C_12  and  O_13
REMARK    8  A    between atoms: O_13  and  C_14
REMARK                            x       y       z     vdW  Elec       q    Type
REMARK                         _______ _______ _______ _____ _____    ______ ____
ROOT
ATOM      1  C   UNL     1       2.935   0.806  -1.455  0.00  0.00    +0.047 C 
ATOM      2  C   UNL     1       2.466   1.033  -0.017  0.00  0.00    +0.135 C 
ATOM      3  C   UNL     1       3.515   1.784   0.779  0.00  0.00    +0.251 C 
ATOM      4  O   UNL     1       3.943   2.897   0.558  0.00  0.00    -0.272 OA
ATOM      5  N   UNL     1       3.873   0.958   1.781  0.00  0.00    -0.221 N 
ATOM      6  C   UNL     1       3.204  -0.200   1.730  0.00  0.00    +0.310 C 
ATOM      7  O   UNL     1       3.355  -1.104   2.528  0.00  0.00    -0.252 OA
ATOM      8  N   UNL     1       2.343  -0.250   0.697  0.00  0.00    -0.281 N 
ATOM      9  H   UNL     1       1.757  -0.988   0.467  0.00  0.00    +0.152 HD
ENDROOT
BRANCH   2  10
ATOM     10  C   UNL     1       1.155   1.776   0.001  0.00  0.00    -0.015 A 
ATOM     11  C   UNL     1       1.155   3.170   0.008  0.00  0.00    +0.007 A 
ATOM     12  C   UNL     1      -0.011   3.871   0.023  0.00  0.00    +0.009 A 
ATOM     13  C   UNL     1      -1.236   3.183   0.031  0.00  0.00    -0.018 A 
ATOM     14  C   UNL     1      -2.460   3.873   0.047  0.00  0.00    +0.008 A 
ATOM     15  C   UNL     1      -3.627   3.172   0.055  0.00  0.00    +0.001 A 
ATOM     16  C   UNL     1      -3.628   1.779   0.048  0.00  0.00    +0.001 A 
ATOM     17  C   UNL     1      -2.462   1.077   0.032  0.00  0.00    +0.008 A 
ATOM     18  C   UNL     1      -1.237   1.766   0.018  0.00  0.00    -0.018 A 
ATOM     19  C   UNL     1      -0.013   1.076   0.008  0.00  0.00    +0.014 A 
ENDBRANCH   2  10
BRANCH   5  20
ATOM     20  C   UNL     1       4.874   1.285   2.800  0.00  0.00    +0.152 C 
BRANCH  20  21
ATOM     21  C   UNL     1       6.256   0.837   2.320  0.00  0.00    +0.170 C 
BRANCH  21  22
ATOM     22  O   UNL     1       6.629   1.594   1.167  0.00  0.00    -0.387 OA
ATOM     23  H   UNL     1       6.675   2.548   1.321  0.00  0.00    +0.210 HD
ENDBRANCH  21  22
BRANCH  21  24
ATOM     24  C   UNL     1       7.281   1.065   3.433  0.00  0.00    +0.261 C 
BRANCH  24  25
ATOM     25  O   UNL     1       8.547   0.540   3.030  0.00  0.00    -0.489 OA
BRANCH  25  26
ATOM     26  C   UNL     1       9.575   0.662   3.911  0.00  0.00    +0.121 A 
ATOM     27  C   UNL     1       9.369   1.280   5.136  0.00  0.00    +0.047 A 
ATOM     28  C   UNL     1      10.414   1.398   6.032  0.00  0.00    +0.019 A 
ATOM     29  C   UNL     1      11.667   0.911   5.704  0.00  0.00    +0.018 A 
ATOM     30  C   UNL     1      11.875   0.300   4.481  0.00  0.00    +0.019 A 
ATOM     31  C   UNL     1      10.832   0.175   3.584  0.00  0.00    +0.047 A 
ATOM     32 BR   UNL     1      13.096   1.081   6.930  0.00  0.00    -0.050 Br
ENDBRANCH  25  26
ENDBRANCH  24  25
ENDBRANCH  21  24
ENDBRANCH  20  21
ENDBRANCH   5  20
TORSDOF 7
