REMARK  Name = ZINC39353587
REMARK  7 active torsions:
REMARK  status: ('A' for Active; 'I' for Inactive)
REMARK    1  A    between atoms: C_1  and  C_2
REMARK    2  A    between atoms: C_4  and  C_9
REMARK    3  A    between atoms: C_5  and  C_8
REMARK    4  A    between atoms: C_9  and  C_10
REMARK    5  A    between atoms: N_12  and  C_13
REMARK    6  A    between atoms: C_13  and  C_14
REMARK    7  A    between atoms: C_21  and  C_24
REMARK                            x       y       z     vdW  Elec       q    Type
REMARK                         _______ _______ _______ _____ _____    ______ ____
ROOT
ATOM      1  C   UNL     1      -2.545  -2.013  -6.211  0.00  0.00    +0.195 C 
ATOM      2  C   UNL     1      -3.636  -3.012  -6.663  0.00  0.00    +0.085 C 
ATOM      3  C   UNL     1      -3.241  -3.276  -8.104  0.00  0.00    -0.000 A 
ATOM      4  C   UNL     1      -3.921  -3.845  -9.159  0.00  0.00    +0.027 A 
ATOM      5  C   UNL     1      -3.314  -3.962 -10.400  0.00  0.00    +0.042 A 
ATOM      6  C   UNL     1      -2.023  -3.508 -10.582  0.00  0.00    +0.032 A 
ATOM      7  C   UNL     1      -1.327  -2.934  -9.518  0.00  0.00    +0.025 A 
ATOM      8  C   UNL     1      -1.940  -2.818  -8.258  0.00  0.00    +0.132 A 
ATOM      9  O   UNL     1      -1.449  -2.313  -7.092  0.00  0.00    -0.486 OA
ATOM     10 CL   UNL     1      -4.177  -4.679 -11.725  0.00  0.00    -0.084 Cl
ENDROOT
BRANCH   7  11
ATOM     11  C   UNL     1       0.055  -2.450  -9.716  0.00  0.00    -0.014 C 
ATOM     12  C   UNL     1       0.288  -1.259 -10.398  0.00  0.00    +0.014 C 
ATOM     13  C   UNL     1       1.632  -0.873 -10.473  0.00  0.00    -0.017 C 
ATOM     14  C   UNL     1       2.334  -0.180 -11.391  0.00  0.00    +0.025 C 
ATOM     15  C   UNL     1       3.712  -0.315 -11.123  0.00  0.00    +0.106 C 
ATOM     16  N   UNL     1       3.937  -0.981 -10.024  0.00  0.00    -0.279 NA
ATOM     17  C   UNL     1       2.647  -1.268  -9.414  0.00  0.00    +0.158 C 
ATOM     18  C   UNL     1       2.414  -2.707  -9.065  0.00  0.00    +0.005 C 
ATOM     19  C   UNL     1       1.190  -3.218  -9.187  0.00  0.00    +0.007 C 
ENDBRANCH   7  11
BRANCH   1  20
ATOM     20  C   UNL     1      -2.153  -2.263  -4.753  0.00  0.00    +0.149 C 
BRANCH  20  23
ATOM     21  C   UNL     1      -0.669  -1.291  -3.082  0.00  0.00    +0.217 C 
ATOM     22  O   UNL     1      -1.044  -2.137  -2.299  0.00  0.00    -0.275 OA
ATOM     23  N   UNL     1      -1.163  -1.266  -4.336  0.00  0.00    -0.312 N 
ATOM     24  H   UNL     1      -0.863  -0.589  -4.963  0.00  0.00    +0.149 HD
BRANCH  21  25
ATOM     25  C   UNL     1       0.349  -0.266  -2.654  0.00  0.00    +0.131 C 
BRANCH  25  28
ATOM     26  C   UNL     1      -0.019   1.526   0.010  0.00  0.00    +0.045 C 
ATOM     27  C   UNL     1       0.002  -0.004   0.002  0.00  0.00    +0.174 C 
ATOM     28  C   UNL     1       0.735  -0.512  -1.218  0.00  0.00    -0.010 C 
ATOM     29  C   UNL     1       1.772  -1.208  -0.801  0.00  0.00    +0.038 C 
ATOM     30  N   UNL     1       1.832  -1.235   0.581  0.00  0.00    -0.270 N 
ATOM     31  O   UNL     1       0.748  -0.498   1.124  0.00  0.00    -0.267 OA
ATOM     32  C   UNL     1       2.763  -1.888  -1.710  0.00  0.00    +0.065 C 
ATOM     33  H   UNL     1       2.513  -1.690   1.100  0.00  0.00    +0.194 HD
ENDBRANCH  25  28
ENDBRANCH  21  25
ENDBRANCH  20  23
ENDBRANCH   1  20
TORSDOF 5
