REMARK  Name = ZINC04064774
REMARK  12 active torsions:
REMARK  status: ('A' for Active; 'I' for Inactive)
REMARK    1  A    between atoms: C_1  and  C_2
REMARK    2  A    between atoms: C_5  and  C_8
REMARK    3  A    between atoms: C_8  and  C_10
REMARK    4  A    between atoms: C_12  and  C_29
REMARK    5  A    between atoms: C_14  and  C_25
REMARK    6  A    between atoms: C_14  and  C_27
REMARK    7  A    between atoms: C_31  and  O_39
REMARK    8  A    between atoms: C_32  and  O_37
REMARK    9  A    between atoms: C_33  and  O_35
REMARK   10  A    between atoms: O_35  and  C_36
REMARK   11  A    between atoms: O_37  and  C_38
REMARK   12  A    between atoms: O_39  and  C_40
REMARK                            x       y       z     vdW  Elec       q    Type
REMARK                         _______ _______ _______ _____ _____    ______ ____
ROOT
ATOM      1  C   UNL     1       1.493   1.890  -0.002  0.00  0.00    +0.138 C 
ATOM      2  C   UNL     1      -0.019   1.550   0.011  0.00  0.00    +0.082 C 
ATOM      3  C   UNL     1       0.002  -0.004   0.002  0.00  0.00    +0.172 C 
ATOM      4  C   UNL     1       1.191  -0.305  -0.926  0.00  0.00    +0.122 C 
ATOM      5  C   UNL     1       3.434   0.775  -1.254  0.00  0.00    +0.054 C 
ATOM      6  C   UNL     1       4.044  -0.427  -1.198  0.00  0.00    +0.022 C 
ATOM      7  C   UNL     1       3.320  -1.579  -0.624  0.00  0.00    -0.019 A 
ATOM      8  C   UNL     1       1.926  -1.545  -0.488  0.00  0.00    -0.019 A 
ATOM      9  C   UNL     1       1.254  -2.625   0.034  0.00  0.00    +0.006 A 
ATOM     10  C   UNL     1       1.957  -3.750   0.433  0.00  0.00    +0.000 A 
ATOM     11  C   UNL     1       3.334  -3.793   0.307  0.00  0.00    +0.001 A 
ATOM     12  C   UNL     1       4.020  -2.716  -0.217  0.00  0.00    +0.008 A 
ATOM     13  N   UNL     1       1.940   0.922  -1.054  0.00  0.00    -0.383 NA
ATOM     14  H   UNL     1       1.617   1.329  -1.940  0.00  0.00    +0.127 HD
ENDROOT
BRANCH   2  15
ATOM     15  C   UNL     1      -0.678   2.073   1.261  0.00  0.00    -0.032 A 
ATOM     16  C   UNL     1      -0.173   1.731   2.501  0.00  0.00    +0.053 A 
ATOM     17  C   UNL     1      -0.773   2.215   3.654  0.00  0.00    +0.165 A 
ATOM     18  C   UNL     1      -1.891   3.035   3.561  0.00  0.00    +0.204 A 
ATOM     19  C   UNL     1      -2.400   3.372   2.312  0.00  0.00    +0.165 A 
ATOM     20  C   UNL     1      -1.790   2.889   1.164  0.00  0.00    +0.053 A 
BRANCH  19  21
ATOM     21  O   UNL     1      -3.494   4.174   2.216  0.00  0.00    -0.491 OA
ATOM     22  C   UNL     1      -3.962   4.479   0.900  0.00  0.00    +0.277 C 
ENDBRANCH  19  21
BRANCH  18  23
ATOM     23  O   UNL     1      -2.487   3.507   4.690  0.00  0.00    -0.488 OA
ATOM     24  C   UNL     1      -3.526   2.706   5.258  0.00  0.00    +0.277 C 
ENDBRANCH  18  23
BRANCH  17  25
ATOM     25  O   UNL     1      -0.272   1.883   4.873  0.00  0.00    -0.491 OA
ATOM     26  C   UNL     1       0.879   1.036   4.893  0.00  0.00    +0.277 C 
ENDBRANCH  17  25
ENDBRANCH   2  15
BRANCH   1  27
ATOM     27  C   UNL     1       1.721   3.223  -0.667  0.00  0.00    +0.183 C 
ATOM     28  O   UNL     1       2.091   3.269  -1.821  0.00  0.00    -0.290 OA
BRANCH  27  33
ATOM     29  C   UNL     1       0.838   8.088   2.265  0.00  0.00    +0.044 C 
ATOM     30  C   UNL     1       1.069   6.812   1.496  0.00  0.00    -0.050 A 
ATOM     31  C   UNL     1       1.492   6.869   0.179  0.00  0.00    +0.004 A 
ATOM     32  C   UNL     1       1.706   5.707  -0.531  0.00  0.00    +0.012 A 
ATOM     33  C   UNL     1       1.495   4.468   0.083  0.00  0.00    +0.019 A 
ATOM     34  C   UNL     1       1.063   4.419   1.413  0.00  0.00    +0.012 A 
ATOM     35  C   UNL     1       0.858   5.590   2.111  0.00  0.00    +0.004 A 
ENDBRANCH  27  33
ENDBRANCH   1  27
BRANCH   3  36
ATOM     36  C   UNL     1      -1.249  -0.543  -0.555  0.00  0.00    +0.087 C 
ATOM     37  N   UNL     1      -2.215  -0.960  -0.986  0.00  0.00    -0.195 NA
ENDBRANCH   3  36
BRANCH   3  38
ATOM     38  C   UNL     1       0.243  -0.534   1.354  0.00  0.00    +0.087 C 
ATOM     39  N   UNL     1       0.429  -0.942   2.398  0.00  0.00    -0.195 NA
ENDBRANCH   3  38
TORSDOF 8
