REMARK  Name = ZINC12377875
REMARK  8 active torsions:
REMARK  status: ('A' for Active; 'I' for Inactive)
REMARK    1  A    between atoms: C_1  and  C_2
REMARK    2  A    between atoms: C_2  and  N_3
REMARK    3  A    between atoms: C_9  and  S_16
REMARK    4  A    between atoms: N_13  and  C_14
REMARK    5  A    between atoms: C_14  and  C_15
REMARK    6  A    between atoms: S_16  and  C_17
REMARK    7  A    between atoms: C_17  and  C_18
REMARK    8  A    between atoms: N_20  and  C_21
REMARK                            x       y       z     vdW  Elec       q    Type
REMARK                         _______ _______ _______ _____ _____    ______ ____
ROOT
ATOM      1  N   UNL     1       7.082  13.135  -2.427  0.00  0.00    -0.314 N 
ATOM      2  C   UNL     1       6.471  11.938  -2.113  0.00  0.00    +0.221 A 
ATOM      3  N   UNL     1       7.213  10.912  -1.738  0.00  0.00    -0.177 NA
ATOM      4  C   UNL     1       6.634   9.739  -1.429  0.00  0.00    +0.262 A 
ATOM      5  N   UNL     1       7.085   8.569  -1.033  0.00  0.00    -0.107 NA
ATOM      6  N   UNL     1       6.103   7.755  -0.862  0.00  0.00    -0.120 NA
ATOM      7  C   UNL     1       4.966   8.345  -1.143  0.00  0.00    +0.200 A 
ATOM      8  N   UNL     1       5.259   9.629  -1.511  0.00  0.00    -0.226 N 
ATOM      9  C   UNL     1       4.522  10.712  -1.903  0.00  0.00    +0.207 A 
ATOM     10  N   UNL     1       5.138  11.841  -2.195  0.00  0.00    -0.182 NA
ATOM     11  N   UNL     1       3.159  10.625  -1.991  0.00  0.00    -0.315 N 
ATOM     12  H   UNL     1       6.546  13.895  -2.704  0.00  0.00    +0.149 HD
ATOM     13  H   UNL     1       2.711   9.793  -1.774  0.00  0.00    +0.149 HD
ENDROOT
BRANCH   1  15
ATOM     14  C   UNL     1       8.955  14.675  -2.740  0.00  0.00    +0.024 C 
ATOM     15  C   UNL     1       8.539  13.258  -2.342  0.00  0.00    +0.101 C 
ENDBRANCH   1  15
BRANCH  11  16
ATOM     16  C   UNL     1       2.376  11.790  -2.412  0.00  0.00    +0.101 C 
ATOM     17  C   UNL     1       0.890  11.428  -2.425  0.00  0.00    +0.024 C 
ENDBRANCH  11  16
BRANCH   7  18
ATOM     18  S   UNL     1       3.362   7.621  -1.056  0.00  0.00    -0.076 S 
BRANCH  18  19
ATOM     19  C   UNL     1       3.677   5.920  -0.510  0.00  0.00    +0.173 C 
BRANCH  19  20
ATOM     20  C   UNL     1       2.370   5.180  -0.393  0.00  0.00    +0.228 C 
ATOM     21  O   UNL     1       1.328   5.744  -0.653  0.00  0.00    -0.275 OA
ATOM     22  N   UNL     1       2.358   3.890  -0.001  0.00  0.00    -0.282 N 
ATOM     23  H   UNL     1       3.182   3.461   0.277  0.00  0.00    +0.155 HD
BRANCH  22  24
ATOM     24  C   UNL     1       1.156   3.171   0.007  0.00  0.00    +0.071 A 
ATOM     25  C   UNL     1       0.749   2.485  -1.130  0.00  0.00    +0.065 A 
ATOM     26  C   UNL     1      -0.438   1.776  -1.120  0.00  0.00    +0.042 A 
ATOM     27  C   UNL     1      -1.223   1.755   0.019  0.00  0.00    +0.044 A 
ATOM     28  C   UNL     1      -0.818   2.433   1.155  0.00  0.00    +0.042 A 
ATOM     29  C   UNL     1       0.368   3.144   1.151  0.00  0.00    +0.065 A 
ATOM     30 CL   UNL     1       0.874   3.999   2.575  0.00  0.00    -0.082 Cl
ATOM     31 CL   UNL     1      -2.717   0.870   0.026  0.00  0.00    -0.083 Cl
ATOM     32 CL   UNL     1       1.729   2.517  -2.562  0.00  0.00    -0.082 Cl
ENDBRANCH  22  24
ENDBRANCH  19  20
ENDBRANCH  18  19
ENDBRANCH   7  18
TORSDOF 6
