REMARK  Name = ZINC13282082
REMARK  1 active torsions:
REMARK  status: ('A' for Active; 'I' for Inactive)
REMARK    1  A    between atoms: C_14  and  C_15
REMARK                            x       y       z     vdW  Elec       q    Type
REMARK                         _______ _______ _______ _____ _____    ______ ____
ROOT
ATOM      1  C   UNL     1       4.985   0.276  -0.045  0.00  0.00    +0.210 C 
ATOM      2  N   UNL     1       4.671   1.705  -0.217  0.00  0.00    -0.293 N 
ATOM      3  C   UNL     1       4.436   2.205  -1.470  0.00  0.00    +0.183 C 
ATOM      4  N   UNL     1       5.011   1.681  -2.539  0.00  0.00    -0.183 NA
ATOM      5  C   UNL     1       5.797   0.592  -2.379  0.00  0.00    +0.236 A 
ATOM      6  N   UNL     1       5.823  -0.115  -1.185  0.00  0.00    -0.285 N 
ATOM      7  C   UNL     1       6.712  -1.137  -1.330  0.00  0.00    +0.072 A 
ATOM      8  C   UNL     1       7.152  -2.138  -0.473  0.00  0.00    +0.028 A 
ATOM      9  C   UNL     1       8.087  -3.032  -0.971  0.00  0.00    +0.002 A 
ATOM     10  C   UNL     1       8.571  -2.943  -2.264  0.00  0.00    +0.002 A 
ATOM     11  C   UNL     1       8.150  -1.957  -3.138  0.00  0.00    +0.030 A 
ATOM     12  C   UNL     1       7.206  -1.042  -2.657  0.00  0.00    +0.091 A 
ATOM     13  N   UNL     1       6.604   0.019  -3.241  0.00  0.00    -0.210 NA
ATOM     14  N   UNL     1       3.588   3.269  -1.619  0.00  0.00    -0.331 N 
ATOM     15  H   UNL     1       4.630   2.291   0.555  0.00  0.00    +0.151 HD
ATOM     16  H   UNL     1       3.218   3.708  -0.837  0.00  0.00    +0.145 HD
ATOM     17  H   UNL     1       3.358   3.585  -2.507  0.00  0.00    +0.145 HD
ENDROOT
BRANCH   1  31
ATOM     18  C   UNL     1      -0.017   1.353  -0.047  0.00  0.00    +0.001 A 
ATOM     19  C   UNL     1       1.160   2.103  -0.054  0.00  0.00    +0.001 A 
ATOM     20  C   UNL     1       2.382   1.513  -0.051  0.00  0.00    +0.009 A 
ATOM     21  C   UNL     1       2.476   0.104  -0.040  0.00  0.00    -0.011 A 
ATOM     22  C   UNL     1       1.239  -0.684  -0.033  0.00  0.00    -0.017 A 
ATOM     23  C   UNL     1       0.002  -0.004  -0.036  0.00  0.00    +0.008 A 
ATOM     24  C   UNL     1       1.295  -2.076  -0.022  0.00  0.00    +0.017 A 
ATOM     25  C   UNL     1       2.534  -2.715  -0.019  0.00  0.00    -0.017 A 
ATOM     26  C   UNL     1       2.628  -4.123  -0.009  0.00  0.00    +0.008 A 
ATOM     27  C   UNL     1       3.850  -4.713  -0.007  0.00  0.00    +0.001 A 
ATOM     28  C   UNL     1       5.027  -3.963  -0.014  0.00  0.00    +0.001 A 
ATOM     29  C   UNL     1       5.008  -2.606  -0.023  0.00  0.00    +0.009 A 
ATOM     30  C   UNL     1       3.770  -1.927  -0.027  0.00  0.00    -0.011 A 
ATOM     31  C   UNL     1       3.715  -0.534  -0.037  0.00  0.00    +0.009 A 
ENDBRANCH   1  31
TORSDOF 1
