REMARK  Name = ZINC21071503
REMARK  15 active torsions:
REMARK  status: ('A' for Active; 'I' for Inactive)
REMARK    1  A    between atoms: C_1  and  C_2
REMARK    2  A    between atoms: C_2  and  N_3
REMARK    3  A    between atoms: N_3  and  C_4
REMARK    4  A    between atoms: N_3  and  C_6
REMARK    5  A    between atoms: C_4  and  C_5
REMARK    6  A    between atoms: C_6  and  C_8
REMARK    7  A    between atoms: C_6  and  C_28
REMARK    8  A    between atoms: C_8  and  N_9
REMARK    9  A    between atoms: C_10  and  C_12
REMARK   10  A    between atoms: C_12  and  C_13
REMARK   11  A    between atoms: C_13  and  N_14
REMARK   12  A    between atoms: C_15  and  C_21
REMARK   13  A    between atoms: C_25  and  C_27
REMARK   14  A    between atoms: C_32  and  O_34
REMARK   15  A    between atoms: O_34  and  C_35
REMARK                            x       y       z     vdW  Elec       q    Type
REMARK                         _______ _______ _______ _____ _____    ______ ____
ROOT
ATOM      1  N   UNL     1       2.381   5.583  -3.758  0.00  0.00    -0.316 N 
ATOM      2  C   UNL     1       2.941   4.892  -2.746  0.00  0.00    +0.215 C 
ATOM      3  O   UNL     1       4.041   5.197  -2.338  0.00  0.00    -0.276 OA
ATOM      4  H   UNL     1       1.383   5.306  -4.128  0.00  0.00    +0.149 HD
ENDROOT
BRANCH   1   5
ATOM      5  C   UNL     1       3.101   6.705  -4.366  0.00  0.00    +0.093 C 
BRANCH   5   6
ATOM      6  C   UNL     1       2.251   7.313  -5.483  0.00  0.00    -0.020 C 
BRANCH   6   7
ATOM      7  C   UNL     1       3.051   8.363  -6.209  0.00  0.00    -0.056 A 
ATOM      8  C   UNL     1       4.398   8.161  -6.449  0.00  0.00    +0.002 A 
ATOM      9  C   UNL     1       5.135   9.122  -7.116  0.00  0.00    +0.004 A 
ATOM     10  C   UNL     1       4.527  10.286  -7.545  0.00  0.00    +0.045 A 
ATOM     11  C   UNL     1       3.176  10.491  -7.306  0.00  0.00    +0.120 A 
ATOM     12  C   UNL     1       2.438   9.523  -6.641  0.00  0.00    +0.047 A 
BRANCH  11  13
ATOM     13  O   UNL     1       2.576  11.635  -7.727  0.00  0.00    -0.495 OA
ATOM     14  C   UNL     1       3.396  12.584  -8.411  0.00  0.00    +0.277 C 
ENDBRANCH  11  13
ENDBRANCH   6   7
BRANCH   6  15
ATOM     15  N   UNL     1       1.855   6.258  -6.426  0.00  0.00    +0.385 N 
ATOM     16  H   UNL     1       1.336   5.473  -5.857  0.00  0.00    -0.081 HD
BRANCH  15  18
ATOM     17  C   UNL     1      -0.393   7.171  -6.757  0.00  0.00    -0.017 C 
ATOM     18  C   UNL     1       0.921   6.777  -7.434  0.00  0.00    -0.081 C 
ENDBRANCH  15  18
BRANCH  15  19
ATOM     19  C   UNL     1       3.033   5.652  -7.062  0.00  0.00    -0.081 C 
ATOM     20  C   UNL     1       3.548   4.505  -6.191  0.00  0.00    -0.017 C 
ENDBRANCH  15  19
ENDBRANCH   6  15
ENDBRANCH   5   6
ENDBRANCH   1   5
BRANCH   2  21
ATOM     21  C   UNL     1       2.199   3.738  -2.121  0.00  0.00    +0.117 C 
BRANCH  21  22
ATOM     22  C   UNL     1       3.050   3.130  -1.004  0.00  0.00    +0.135 C 
BRANCH  22  23
ATOM     23  N   UNL     1       2.329   2.009  -0.397  0.00  0.00    -0.303 N 
ATOM     24  C   UNL     1       2.469   0.678  -0.737  0.00  0.00    +0.163 A 
ATOM     25  N   UNL     1       1.674  -0.029   0.017  0.00  0.00    -0.153 NA
ATOM     26  N   UNL     1       0.991   0.850   0.870  0.00  0.00    -0.254 N 
ATOM     27  H   UNL     1       0.263   0.457   1.595  0.00  0.00    +0.191 HD
ATOM     28  C   UNL     1       1.413   2.099   0.588  0.00  0.00    +0.176 A 
ATOM     29  S   UNL     1       0.886   3.540   1.349  0.00  0.00    -0.011 S 
BRANCH  24  30
ATOM     30  C   UNL     1       3.373   0.142  -1.779  0.00  0.00    +0.019 A 
ATOM     31  C   UNL     1       3.839   0.975  -2.797  0.00  0.00    +0.011 A 
ATOM     32  C   UNL     1       4.677   0.468  -3.769  0.00  0.00    +0.001 A 
ATOM     33  C   UNL     1       5.056  -0.862  -3.735  0.00  0.00    +0.003 A 
ATOM     34  C   UNL     1       4.598  -1.692  -2.728  0.00  0.00    -0.050 A 
ATOM     35  C   UNL     1       3.759  -1.198  -1.750  0.00  0.00    +0.015 A 
ATOM     36  C   UNL     1       5.016  -3.140  -2.698  0.00  0.00    +0.044 C 
ENDBRANCH  24  30
ENDBRANCH  22  23
ENDBRANCH  21  22
ENDBRANCH   2  21
TORSDOF 11
