REMARK  Name = ZINC36552465
REMARK  20 active torsions:
REMARK  status: ('A' for Active; 'I' for Inactive)
REMARK    1  A    between atoms: C_1  and  C_2
REMARK    2  A    between atoms: C_2  and  C_3
REMARK    3  A    between atoms: C_3  and  C_4
REMARK    4  A    between atoms: C_4  and  C_5
REMARK    5  A    between atoms: C_5  and  C_6
REMARK    6  A    between atoms: N_8  and  C_9
REMARK    7  A    between atoms: N_8  and  C_16
REMARK    8  A    between atoms: C_16  and  C_18
REMARK    9  A    between atoms: C_16  and  C_27
REMARK   10  A    between atoms: C_19  and  O_26
REMARK   11  A    between atoms: C_21  and  O_25
REMARK   12  A    between atoms: C_23  and  O_24
REMARK   13  A    between atoms: N_29  and  C_30
REMARK   14  A    between atoms: C_30  and  C_31
REMARK   15  A    between atoms: C_30  and  C_32
REMARK   16  A    between atoms: C_30  and  C_33
REMARK   17  A    between atoms: C_33  and  C_34
REMARK   18  A    between atoms: C_34  and  C_35
REMARK   19  A    between atoms: C_34  and  C_36
REMARK   20  A    between atoms: C_34  and  C_37
REMARK                            x       y       z     vdW  Elec       q    Type
REMARK                         _______ _______ _______ _____ _____    ______ ____
ROOT
ATOM      1  C   UNL     1       3.310  -7.409  -3.046  0.00  0.00    +0.204 C 
ENDROOT
BRANCH   1   2
ATOM      2  C   UNL     1       2.071  -7.855  -3.778  0.00  0.00    +0.065 A 
ATOM      3  C   UNL     1       1.819  -7.393  -5.061  0.00  0.00    +0.129 A 
ATOM      4  C   UNL     1       0.679  -7.804  -5.735  0.00  0.00    +0.091 A 
ATOM      5  C   UNL     1      -0.210  -8.677  -5.126  0.00  0.00    +0.124 A 
ATOM      6  C   UNL     1       0.042  -9.140  -3.843  0.00  0.00    +0.091 A 
ATOM      7  C   UNL     1       1.185  -8.732  -3.171  0.00  0.00    +0.129 A 
BRANCH   7   8
ATOM      8  O   UNL     1       1.434  -9.190  -1.916  0.00  0.00    -0.506 OA
ATOM      9  H   UNL     1       1.061  -8.638  -1.215  0.00  0.00    +0.292 HD
ENDBRANCH   7   8
BRANCH   5  10
ATOM     10  O   UNL     1      -1.328  -9.079  -5.786  0.00  0.00    -0.507 OA
ATOM     11  H   UNL     1      -1.207  -9.881  -6.312  0.00  0.00    +0.292 HD
ENDBRANCH   5  10
BRANCH   3  12
ATOM     12  O   UNL     1       2.690  -6.537  -5.658  0.00  0.00    -0.506 OA
ATOM     13  H   UNL     1       3.340  -6.971  -6.228  0.00  0.00    +0.292 HD
ENDBRANCH   3  12
ENDBRANCH   1   2
BRANCH   1  14
ATOM     14  C   UNL     1       4.514  -7.599  -3.933  0.00  0.00    +0.239 C 
ATOM     15  O   UNL     1       5.199  -6.646  -4.239  0.00  0.00    -0.273 OA
ATOM     16  N   UNL     1       4.829  -8.828  -4.387  0.00  0.00    -0.308 N 
ATOM     17  H   UNL     1       4.281  -9.591  -4.143  0.00  0.00    +0.149 HD
BRANCH  16  18
ATOM     18  C   UNL     1       5.998  -9.013  -5.250  0.00  0.00    +0.030 C 
ATOM     19  C   UNL     1       5.724  -8.392  -6.621  0.00  0.00    +0.031 C 
ATOM     20  C   UNL     1       7.213  -8.332  -4.615  0.00  0.00    +0.031 C 
BRANCH  18  21
ATOM     21  C   UNL     1       6.280 -10.508  -5.414  0.00  0.00    +0.031 C 
BRANCH  21  22
ATOM     22  C   UNL     1       6.159 -11.202  -4.056  0.00  0.00    -0.036 C 
ATOM     23  C   UNL     1       4.695 -11.562  -3.796  0.00  0.00    +0.010 C 
ATOM     24  C   UNL     1       7.005 -12.476  -4.057  0.00  0.00    +0.010 C 
ATOM     25  C   UNL     1       6.655 -10.261  -2.956  0.00  0.00    +0.010 C 
ENDBRANCH  21  22
ENDBRANCH  18  21
ENDBRANCH  16  18
ENDBRANCH   1  14
BRANCH   1  28
ATOM     26  C   UNL     1       4.211  -5.354  -2.096  0.00  0.00    +0.221 C 
ATOM     27  O   UNL     1       5.269  -5.924  -1.935  0.00  0.00    -0.275 OA
ATOM     28  N   UNL     1       3.184  -5.993  -2.691  0.00  0.00    -0.255 N 
BRANCH  28  29
ATOM     29  C   UNL     1       1.998  -5.305  -2.969  0.00  0.00    +0.039 A 
ATOM     30  C   UNL     1       2.010  -4.222  -3.839  0.00  0.00    +0.023 A 
ATOM     31  C   UNL     1       0.838  -3.544  -4.112  0.00  0.00    +0.003 A 
ATOM     32  C   UNL     1      -0.347  -3.942  -3.521  0.00  0.00    +0.020 A 
ATOM     33  C   UNL     1      -0.362  -5.021  -2.654  0.00  0.00    +0.043 A 
ATOM     34  C   UNL     1       0.807  -5.706  -2.381  0.00  0.00    +0.043 A 
ATOM     35 CL   UNL     1      -1.852  -5.517  -1.913  0.00  0.00    -0.083 Cl
ENDBRANCH  28  29
BRANCH  26  36
ATOM     36  C   UNL     1       4.044  -3.930  -1.631  0.00  0.00    +0.096 C 
BRANCH  36  37
ATOM     37  C   UNL     1       5.301  -3.489  -0.878  0.00  0.00    +0.009 C 
BRANCH  37  38
ATOM     38  C   UNL     1       5.131  -2.044  -0.406  0.00  0.00    +0.000 C 
BRANCH  38  40
ATOM     39  C   UNL     1       6.218  -0.157   0.820  0.00  0.00    +0.004 C 
ATOM     40  C   UNL     1       6.388  -1.602   0.348  0.00  0.00    -0.003 C 
ENDBRANCH  38  40
ENDBRANCH  37  38
ENDBRANCH  36  37
ENDBRANCH  26  36
ENDBRANCH   1  28
TORSDOF 14
