REMARK  Name = ZINC37537918
REMARK  6 active torsions:
REMARK  status: ('A' for Active; 'I' for Inactive)
REMARK    1  A    between atoms: C_1  and  C_2
REMARK    2  A    between atoms: C_2  and  N_3
REMARK    3  A    between atoms: N_3  and  C_4
REMARK    4  A    between atoms: N_3  and  S_10
REMARK    5  A    between atoms: S_10  and  C_13
REMARK    6  A    between atoms: C_17  and  N_19
REMARK                            x       y       z     vdW  Elec       q    Type
REMARK                         _______ _______ _______ _____ _____    ______ ____
ROOT
ATOM      1  S   UNL     1       0.073  -0.529  -2.638  0.00  0.00    +0.061 S 
ATOM      2  O   UNL     1       0.952  -1.268  -3.475  0.00  0.00    -0.153 OA
ATOM      3  O   UNL     1      -1.276  -0.917  -2.419  0.00  0.00    -0.153 OA
ENDROOT
BRANCH   1   4
ATOM      4  C   UNL     1       0.028   1.111  -3.279  0.00  0.00    +0.108 A 
ATOM      5  C   UNL     1      -1.058   1.926  -3.018  0.00  0.00    +0.028 A 
ATOM      6  C   UNL     1      -1.093   3.213  -3.522  0.00  0.00    +0.004 A 
ATOM      7  C   UNL     1      -0.042   3.686  -4.285  0.00  0.00    +0.033 A 
ATOM      8  C   UNL     1       1.044   2.872  -4.545  0.00  0.00    +0.128 A 
ATOM      9  C   UNL     1       1.082   1.586  -4.038  0.00  0.00    +0.061 A 
BRANCH   8  10
ATOM     10  N   UNL     1       2.169   3.377  -5.363  0.00  0.00    +0.056 N 
ATOM     11  O   UNL     1       2.138   4.503  -5.804  0.00  0.00    -0.126 OA
ATOM     12  O   UNL     1       3.119   2.665  -5.591  0.00  0.00    -0.126 OA
ENDBRANCH   8  10
ENDBRANCH   1   4
BRANCH   1  13
ATOM     13  N   UNL     1       0.792  -0.452  -1.147  0.00  0.00    -0.174 NA
BRANCH  13  14
ATOM     14  C   UNL     1       2.245  -0.598  -1.026  0.00  0.00    +0.076 C 
ATOM     15  C   UNL     1       2.566  -1.704  -0.017  0.00  0.00    +0.001 C 
ATOM     16  C   UNL     1       4.083  -1.796   0.164  0.00  0.00    -0.081 C 
ATOM     17  N   UNL     1       4.599  -0.514   0.659  0.00  0.00    +0.379 N 
ATOM     18  C   UNL     1       4.358   0.537  -0.335  0.00  0.00    -0.081 C 
ATOM     19  C   UNL     1       2.852   0.720  -0.536  0.00  0.00    +0.001 C 
ATOM     20  H   UNL     1       4.131  -0.275   1.521  0.00  0.00    -0.086 HD
ATOM     21  H   UNL     1       5.590  -0.595   0.829  0.00  0.00    -0.086 HD
ENDBRANCH  13  14
BRANCH  13  23
ATOM     22  C   UNL     1      -0.404  -1.592   0.656  0.00  0.00    +0.022 C 
ATOM     23  C   UNL     1      -0.025  -0.239   0.050  0.00  0.00    +0.106 C 
ENDBRANCH  13  23
ENDBRANCH   1  13
TORSDOF 5
