REMARK  Name = ZINC63204735
REMARK  7 active torsions:
REMARK  status: ('A' for Active; 'I' for Inactive)
REMARK    1  A    between atoms: C_1  and  C_2
REMARK    2  A    between atoms: C_2  and  C_3
REMARK    3  A    between atoms: C_10  and  C_12
REMARK    4  A    between atoms: C_12  and  C_13
REMARK    5  A    between atoms: C_13  and  C_14
REMARK    6  A    between atoms: C_17  and  C_29
REMARK    7  A    between atoms: C_22  and  C_24
REMARK                            x       y       z     vdW  Elec       q    Type
REMARK                         _______ _______ _______ _____ _____    ______ ____
ROOT
ATOM      1  C   UNL     1       7.482  -6.184  -1.247  0.00  0.00    -0.033 C 
ATOM      2  C   UNL     1       8.609  -5.440  -1.168  0.00  0.00    -0.000 A 
ATOM      3  C   UNL     1       8.842  -3.993  -1.091  0.00  0.00    +0.013 A 
ATOM      4  C   UNL     1      10.113  -3.536  -1.021  0.00  0.00    -0.050 A 
ATOM      5  C   UNL     1      11.211  -4.408  -1.019  0.00  0.00    +0.005 A 
ATOM      6  C   UNL     1      11.077  -5.749  -1.087  0.00  0.00    +0.026 A 
ATOM      7  C   UNL     1       9.785  -6.340  -1.165  0.00  0.00    +0.043 A 
ATOM      8  N   UNL     1       9.400  -7.590  -1.239  0.00  0.00    -0.373 N 
ATOM      9  C   UNL     1       7.934  -7.627  -1.292  0.00  0.00    +0.143 C 
ATOM     10  C   UNL     1      10.355  -2.051  -0.942  0.00  0.00    +0.044 C 
ATOM     11  H   UNL     1       9.986  -8.363  -1.252  0.00  0.00    +0.161 HD
ENDROOT
BRANCH   9  12
ATOM     12  C   UNL     1       7.387  -8.379  -0.106  0.00  0.00    +0.016 A 
ATOM     13  C   UNL     1       6.318  -9.210  -0.042  0.00  0.00    +0.013 A 
ATOM     14  C   UNL     1       5.998  -9.798   1.168  0.00  0.00    +0.008 A 
ATOM     15  C   UNL     1       6.762  -9.526   2.253  0.00  0.00    +0.045 A 
ATOM     16  S   UNL     1       7.983  -8.414   1.576  0.00  0.00    -0.099 S 
ENDBRANCH   9  12
BRANCH   1  17
ATOM     17  C   UNL     1       6.063  -5.678  -1.278  0.00  0.00    +0.043 C 
BRANCH  17  18
ATOM     18  C   UNL     1       6.065  -4.149  -1.213  0.00  0.00    +0.100 C 
BRANCH  18  25
ATOM     19  C   UNL     1       0.718  -0.497  -1.257  0.00  0.00    +0.153 C 
ATOM     20  N   UNL     1       0.743  -1.976  -1.318  0.00  0.00    -0.253 N 
ATOM     21  N   UNL     1       1.997  -2.544  -1.296  0.00  0.00    -0.163 NA
ATOM     22  C   UNL     1       3.091  -1.851  -1.226  0.00  0.00    +0.179 C 
ATOM     23  S   UNL     1       2.525  -0.157  -1.177  0.00  0.00    -0.065 S 
ATOM     24  N   UNL     1       4.402  -2.319  -1.198  0.00  0.00    -0.264 N 
ATOM     25  C   UNL     1       4.646  -3.643  -1.245  0.00  0.00    +0.219 C 
ATOM     26  O   UNL     1       3.724  -4.428  -1.312  0.00  0.00    -0.275 OA
ATOM     27  H   UNL     1      -0.067  -2.508  -1.371  0.00  0.00    +0.169 HD
ATOM     28  H   UNL     1       5.139  -1.691  -1.144  0.00  0.00    +0.157 HD
BRANCH  19  30
ATOM     29  C   UNL     1      -0.019   1.526   0.010  0.00  0.00    +0.006 C 
ATOM     30  C   UNL     1       0.002  -0.004   0.002  0.00  0.00    +0.032 C 
ENDBRANCH  19  30
ENDBRANCH  18  25
ENDBRANCH  17  18
ENDBRANCH   1  17
TORSDOF 5
