REMARK  Name = ZINC01382497
REMARK  8 active torsions:
REMARK  status: ('A' for Active; 'I' for Inactive)
REMARK    1  A    between atoms: C_1  and  C_2
REMARK    2  A    between atoms: C_2  and  C_3
REMARK    3  A    between atoms: C_10  and  C_15
REMARK    4  A    between atoms: C_15  and  C_17
REMARK    5  A    between atoms: C_15  and  N_28
REMARK    6  A    between atoms: N_21  and  C_22
REMARK    7  A    between atoms: C_22  and  C_23
REMARK    8  A    between atoms: C_32  and  C_35
REMARK                            x       y       z     vdW  Elec       q    Type
REMARK                         _______ _______ _______ _____ _____    ______ ____
ROOT
ATOM      1  C   UNL     1       0.003  -2.226   7.121  0.00  0.00    +0.039 C 
ENDROOT
BRANCH   1   9
ATOM      2  C   UNL     1       0.731  -0.503   1.223  0.00  0.00    -0.047 A 
ATOM      3  C   UNL     1       2.103  -0.708   1.169  0.00  0.00    +0.005 A 
ATOM      4  C   UNL     1       2.790  -1.164   2.273  0.00  0.00    +0.026 A 
ATOM      5  C   UNL     1       2.103  -1.422   3.455  0.00  0.00    +0.049 A 
ATOM      6  C   UNL     1       0.712  -1.213   3.506  0.00  0.00    -0.001 A 
ATOM      7  C   UNL     1       0.037  -0.745   2.374  0.00  0.00    +0.013 A 
ATOM      8  C   UNL     1      -0.002  -1.487   4.755  0.00  0.00    +0.017 A 
ATOM      9  C   UNL     1       0.707  -1.934   5.821  0.00  0.00    +0.011 A 
ATOM     10  C   UNL     1       2.101  -2.127   5.718  0.00  0.00    +0.251 A 
ATOM     11  O   UNL     1       2.718  -2.530   6.688  0.00  0.00    -0.268 OA
ATOM     12  N   UNL     1       2.765  -1.878   4.575  0.00  0.00    -0.322 N 
ATOM     13  H   UNL     1       3.724  -2.023   4.539  0.00  0.00    +0.169 HD
BRANCH   2  15
ATOM     14  C   UNL     1      -0.019   1.526   0.010  0.00  0.00    +0.009 C 
ATOM     15  C   UNL     1       0.002  -0.004   0.002  0.00  0.00    +0.032 C 
ENDBRANCH   2  15
ENDBRANCH   1   9
BRANCH   1  16
ATOM     16  N   UNL     1       0.292  -3.605   7.536  0.00  0.00    +0.389 N 
ATOM     17  C   UNL     1      -0.173  -4.534   6.499  0.00  0.00    -0.077 C 
ATOM     18  C   UNL     1       0.199  -5.967   6.889  0.00  0.00    -0.018 C 
ATOM     19  C   UNL     1      -0.465  -6.315   8.224  0.00  0.00    -0.001 C 
ATOM     20  C   UNL     1      -0.031  -5.295   9.280  0.00  0.00    -0.031 C 
ATOM     21  C   UNL     1      -0.394  -3.888   8.802  0.00  0.00    -0.074 C 
ATOM     22  C   UNL     1      -0.749  -5.589  10.599  0.00  0.00    +0.005 C 
ATOM     23  H   UNL     1       1.287  -3.715   7.662  0.00  0.00    -0.080 HD
ENDBRANCH   1  16
BRANCH   1  24
ATOM     24  C   UNL     1       0.488  -1.270   8.181  0.00  0.00    +0.143 A 
ATOM     25  N   UNL     1       1.643  -1.307   8.797  0.00  0.00    -0.115 NA
ATOM     26  N   UNL     1       1.682  -0.323   9.629  0.00  0.00    -0.023 NA
ATOM     27  N   UNL     1       0.580   0.339   9.559  0.00  0.00    -0.044 NA
ATOM     28  N   UNL     1      -0.180  -0.210   8.673  0.00  0.00    -0.223 N 
BRANCH  28  29
ATOM     29  C   UNL     1      -1.519   0.234   8.280  0.00  0.00    +0.221 C 
BRANCH  29  30
ATOM     30  C   UNL     1      -2.548  -0.439   9.151  0.00  0.00    +0.126 A 
ATOM     31  C   UNL     1      -3.025   0.035  10.316  0.00  0.00    +0.046 A 
ATOM     32  C   UNL     1      -3.963  -0.910  10.790  0.00  0.00    +0.041 A 
ATOM     33  C   UNL     1      -4.003  -1.906   9.887  0.00  0.00    +0.195 A 
ATOM     34  O   UNL     1      -3.148  -1.613   8.893  0.00  0.00    -0.466 OA
ENDBRANCH  29  30
ENDBRANCH  28  29
ENDBRANCH   1  24
TORSDOF 6
