REMARK  Name = ZINC01308531
REMARK  8 active torsions:
REMARK  status: ('A' for Active; 'I' for Inactive)
REMARK    1  A    between atoms: C_1  and  C_2
REMARK    2  A    between atoms: C_2  and  C_36
REMARK    3  A    between atoms: C_6  and  C_29
REMARK    4  A    between atoms: C_13  and  S_17
REMARK    5  A    between atoms: S_17  and  C_18
REMARK    6  A    between atoms: C_18  and  C_19
REMARK    7  A    between atoms: N_21  and  C_22
REMARK    8  A    between atoms: N_21  and  C_23
REMARK                            x       y       z     vdW  Elec       q    Type
REMARK                         _______ _______ _______ _____ _____    ______ ____
ROOT
ATOM      1  C   UNL     1      -2.557  17.304  -1.031  0.00  0.00    +0.041 C 
ATOM      2  C   UNL     1      -3.783  16.428  -1.298  0.00  0.00    +0.068 C 
ATOM      3  C   UNL     1      -3.530  15.014  -0.770  0.00  0.00    +0.070 C 
ATOM      4  C   UNL     1      -4.818  14.235  -0.770  0.00  0.00    -0.025 A 
ATOM      5  C   UNL     1      -6.029  14.846  -0.860  0.00  0.00    +0.011 A 
ATOM      6  C   UNL     1      -7.203  14.076  -0.843  0.00  0.00    +0.113 A 
ATOM      7  N   UNL     1      -7.136  12.752  -0.744  0.00  0.00    -0.236 NA
ATOM      8  C   UNL     1      -5.979  12.134  -0.661  0.00  0.00    +0.112 A 
ATOM      9  C   UNL     1      -4.753  12.823  -0.668  0.00  0.00    +0.037 A 
ATOM     10  C   UNL     1      -3.543  11.987  -0.566  0.00  0.00    +0.092 A 
ATOM     11  C   UNL     1      -3.759  10.606  -0.477  0.00  0.00    +0.072 A 
ATOM     12  S   UNL     1      -5.521  10.423  -0.525  0.00  0.00    -0.064 S 
ATOM     13  C   UNL     1      -2.693   9.722  -0.377  0.00  0.00    +0.115 A 
ATOM     14  N   UNL     1      -1.457  10.222  -0.363  0.00  0.00    -0.228 NA
ATOM     15  C   UNL     1      -1.271  11.526  -0.453  0.00  0.00    +0.223 A 
ATOM     16  N   UNL     1      -2.252  12.388  -0.548  0.00  0.00    -0.234 NA
ATOM     17  C   UNL     1      -6.148  16.343  -0.986  0.00  0.00    +0.198 C 
ATOM     18  O   UNL     1      -4.920  16.969  -0.616  0.00  0.00    -0.369 OA
ATOM     19  C   UNL     1      -4.060  16.375  -2.802  0.00  0.00    +0.041 C 
ENDROOT
BRANCH   6  20
ATOM     20  C   UNL     1      -8.517  14.740  -0.934  0.00  0.00    +0.153 A 
ATOM     21  C   UNL     1      -9.617  14.250  -1.568  0.00  0.00    +0.051 A 
ATOM     22  C   UNL     1     -10.639  15.205  -1.404  0.00  0.00    +0.042 A 
ATOM     23  C   UNL     1     -10.118  16.221  -0.686  0.00  0.00    +0.196 A 
ATOM     24  O   UNL     1      -8.839  15.934  -0.399  0.00  0.00    -0.461 OA
ENDBRANCH   6  20
BRANCH  13  25
ATOM     25  S   UNL     1      -2.967   7.985  -0.265  0.00  0.00    -0.095 S 
BRANCH  25  26
ATOM     26  C   UNL     1      -1.256   7.403  -0.164  0.00  0.00    +0.172 C 
BRANCH  26  27
ATOM     27  C   UNL     1      -1.242   5.900  -0.058  0.00  0.00    +0.230 C 
ATOM     28  O   UNL     1      -2.286   5.283  -0.052  0.00  0.00    -0.274 OA
ATOM     29  N   UNL     1      -0.069   5.242   0.029  0.00  0.00    -0.274 N 
ATOM     30  C   UNL     1       1.185   5.990   0.138  0.00  0.00    +0.138 C 
BRANCH  29  31
ATOM     31  C   UNL     1      -0.050   3.842   0.016  0.00  0.00    +0.036 A 
ATOM     32  C   UNL     1      -0.594   3.129   1.076  0.00  0.00    +0.023 A 
ATOM     33  C   UNL     1      -0.573   1.748   1.060  0.00  0.00    +0.002 A 
ATOM     34  C   UNL     1      -0.012   1.076  -0.010  0.00  0.00    +0.000 A 
ATOM     35  C   UNL     1       0.536   1.783  -1.065  0.00  0.00    +0.002 A 
ATOM     36  C   UNL     1       0.513   3.164  -1.057  0.00  0.00    +0.023 A 
ENDBRANCH  29  31
ENDBRANCH  26  27
ENDBRANCH  25  26
ENDBRANCH  13  25
TORSDOF 5
