REMARK  Name = ZINC04698561
REMARK  6 active torsions:
REMARK  status: ('A' for Active; 'I' for Inactive)
REMARK    1  A    between atoms: C_10  and  C_19
REMARK    2  A    between atoms: C_12  and  N_16
REMARK    3  A    between atoms: N_21  and  C_22
REMARK    4  A    between atoms: C_22  and  C_23
REMARK    5  A    between atoms: C_23  and  C_24
REMARK    6  A    between atoms: C_24  and  O_25
REMARK                            x       y       z     vdW  Elec       q    Type
REMARK                         _______ _______ _______ _____ _____    ______ ____
ROOT
ATOM      1  C   UNL     1      -0.016   1.310   0.009  0.00  0.00    +0.001 A 
ATOM      2  C   UNL     1       1.251   2.062   0.001  0.00  0.00    +0.004 A 
ATOM      3  C   UNL     1       2.396   1.416  -0.004  0.00  0.00    +0.047 A 
ATOM      4  C   UNL     1       2.416  -0.059  -0.003  0.00  0.00    +0.136 A 
ATOM      5  C   UNL     1       1.287  -0.731  -0.015  0.00  0.00    +0.017 A 
ATOM      6  C   UNL     1       0.002  -0.004   0.002  0.00  0.00    +0.011 A 
ATOM      7  C   UNL     1       1.282  -2.196  -0.075  0.00  0.00    +0.012 C 
ATOM      8  C   UNL     1       2.108  -2.974   0.545  0.00  0.00    +0.013 C 
ATOM      9  C   UNL     1       3.195  -2.526   1.423  0.00  0.00    +0.030 A 
ATOM     10  C   UNL     1       3.491  -3.289   2.652  0.00  0.00    +0.049 A 
ATOM     11  C   UNL     1       4.476  -2.918   3.440  0.00  0.00    +0.046 A 
ATOM     12  C   UNL     1       5.287  -1.738   3.095  0.00  0.00    +0.130 A 
ATOM     13  C   UNL     1       5.018  -1.053   2.006  0.00  0.00    +0.079 A 
ATOM     14  C   UNL     1       3.905  -1.462   1.127  0.00  0.00    +0.138 A 
ATOM     15  O   UNL     1       3.609  -0.705   0.041  0.00  0.00    -0.455 OA
ENDROOT
BRANCH  10  16
ATOM     16  C   UNL     1       2.679  -4.469   2.997  0.00  0.00    +0.245 C 
ATOM     17  O   UNL     1       1.770  -4.812   2.272  0.00  0.00    -0.270 OA
ATOM     18  N   UNL     1       2.947  -5.167   4.118  0.00  0.00    -0.311 N 
ATOM     19  H   UNL     1       3.675  -4.892   4.698  0.00  0.00    +0.149 HD
BRANCH  18  20
ATOM     20  C   UNL     1       2.140  -6.340   4.462  0.00  0.00    +0.107 C 
BRANCH  20  21
ATOM     21  C   UNL     1       2.649  -6.944   5.772  0.00  0.00    +0.046 C 
BRANCH  21  22
ATOM     22  C   UNL     1       1.806  -8.169   6.130  0.00  0.00    +0.157 C 
BRANCH  22  23
ATOM     23  O   UNL     1       2.282  -8.733   7.354  0.00  0.00    -0.395 OA
ATOM     24  H   UNL     1       1.793  -9.516   7.643  0.00  0.00    +0.209 HD
ENDBRANCH  22  23
ENDBRANCH  21  22
ENDBRANCH  20  21
ENDBRANCH  18  20
ENDBRANCH  10  16
BRANCH  12  25
ATOM     25  N   UNL     1       6.310  -1.359   3.900  0.00  0.00    +0.057 N 
ATOM     26  O   UNL     1       6.557  -1.990   4.901  0.00  0.00    -0.126 OA
ATOM     27  O   UNL     1       6.975  -0.391   3.616  0.00  0.00    -0.126 OA
ENDBRANCH  12  25
TORSDOF 6
