REMARK  Name = ZINC57845583
REMARK  6 active torsions:
REMARK  status: ('A' for Active; 'I' for Inactive)
REMARK    1  A    between atoms: C_1  and  C_2
REMARK    2  A    between atoms: C_2  and  C_4
REMARK    3  A    between atoms: C_2  and  N_6
REMARK    4  A    between atoms: C_4  and  N_5
REMARK    5  A    between atoms: C_9  and  C_13
REMARK    6  A    between atoms: C_9  and  C_14
REMARK                            x       y       z     vdW  Elec       q    Type
REMARK                         _______ _______ _______ _____ _____    ______ ____
ROOT
ATOM      1  N   UNL     1      -1.372  -0.511   0.012  0.00  0.00    -0.223 N 
ATOM      2  C   UNL     1      -1.882  -1.297   0.981  0.00  0.00    +0.251 C 
ATOM      3  O   UNL     1      -1.311  -1.702   1.971  0.00  0.00    -0.272 OA
ATOM      4  C   UNL     1      -3.317  -1.568   0.577  0.00  0.00    +0.135 C 
ATOM      5  N   UNL     1      -3.464  -0.834  -0.693  0.00  0.00    -0.281 N 
ATOM      6  C   UNL     1      -2.278  -0.247  -0.936  0.00  0.00    +0.310 C 
ATOM      7  O   UNL     1      -2.054   0.445  -1.910  0.00  0.00    -0.252 OA
ATOM      8  C   UNL     1      -4.285  -1.022   1.628  0.00  0.00    +0.047 C 
ATOM      9  H   UNL     1      -4.260  -0.783  -1.244  0.00  0.00    +0.152 HD
ENDROOT
BRANCH   4  10
ATOM     10  C   UNL     1      -3.539  -3.043   0.365  0.00  0.00    -0.015 A 
ATOM     11  C   UNL     1      -2.804  -3.964   1.089  0.00  0.00    +0.007 A 
ATOM     12  C   UNL     1      -3.008  -5.317   0.895  0.00  0.00    +0.015 A 
ATOM     13  C   UNL     1      -3.946  -5.751  -0.023  0.00  0.00    +0.018 A 
ATOM     14  C   UNL     1      -4.681  -4.830  -0.748  0.00  0.00    +0.015 A 
ATOM     15  C   UNL     1      -4.481  -3.476  -0.550  0.00  0.00    +0.007 A 
ATOM     16 BR   UNL     1      -4.225  -7.602  -0.289  0.00  0.00    -0.050 Br
ENDBRANCH   4  10
BRANCH   1  18
ATOM     17  C   UNL     1      -0.019   1.526   0.010  0.00  0.00    +0.026 C 
ATOM     18  C   UNL     1       0.002  -0.004   0.002  0.00  0.00    +0.065 C 
BRANCH  18  19
ATOM     19  C   UNL     1       0.718  -0.497  -1.257  0.00  0.00    -0.063 C 
BRANCH  19  20
ATOM     20  N   UNL     1       0.634  -1.962  -1.326  0.00  0.00    +0.379 N 
ATOM     21  H   UNL     1       1.106  -2.288  -2.156  0.00  0.00    -0.090 HD
ATOM     22  H   UNL     1       1.072  -2.363  -0.510  0.00  0.00    -0.090 HD
ATOM     23  H   UNL     1      -0.335  -2.242  -1.358  0.00  0.00    -0.090 HD
ENDBRANCH  19  20
ENDBRANCH  18  19
ENDBRANCH   1  18
TORSDOF 4
