REMARK  Name = ZINC35451938
REMARK  10 active torsions:
REMARK  status: ('A' for Active; 'I' for Inactive)
REMARK    1  A    between atoms: C_1  and  C_2
REMARK    2  A    between atoms: C_2  and  O_3
REMARK    3  A    between atoms: O_3  and  C_4
REMARK    4  A    between atoms: C_4  and  C_6
REMARK    5  A    between atoms: C_7  and  C_34
REMARK    6  A    between atoms: N_8  and  C_33
REMARK    7  A    between atoms: C_9  and  C_32
REMARK    8  A    between atoms: C_10  and  S_11
REMARK    9  A    between atoms: S_11  and  N_14
REMARK   10  A    between atoms: C_17  and  C_20
REMARK                            x       y       z     vdW  Elec       q    Type
REMARK                         _______ _______ _______ _____ _____    ______ ____
ROOT
ATOM      1  N   UNL     1      -1.056  -1.004  -4.887  0.00  0.00    -0.176 NA
ATOM      2  C   UNL     1      -1.390   0.137  -4.023  0.00  0.00    +0.110 C 
ATOM      3  C   UNL     1      -2.641   0.826  -4.577  0.00  0.00    +0.030 C 
ATOM      4  C   UNL     1      -2.407   1.196  -6.044  0.00  0.00    +0.078 C 
ATOM      5  C   UNL     1      -2.155  -0.075  -6.858  0.00  0.00    +0.030 C 
ATOM      6  C   UNL     1      -0.893  -0.773  -6.329  0.00  0.00    +0.110 C 
ENDROOT
BRANCH   4   7
ATOM      7  C   UNL     1      -3.623   1.905  -6.583  0.00  0.00    +0.219 C 
ATOM      8  O   UNL     1      -4.581   2.095  -5.865  0.00  0.00    -0.275 OA
ATOM      9  N   UNL     1      -3.644   2.327  -7.863  0.00  0.00    -0.297 N 
ATOM     10  C   UNL     1      -4.814   3.028  -8.418  0.00  0.00    +0.113 C 
ATOM     11  C   UNL     1      -4.382   4.447  -8.783  0.00  0.00    +0.054 C 
ATOM     12  C   UNL     1      -3.091   4.431  -9.560  0.00  0.00    -0.041 A 
ATOM     13  C   UNL     1      -2.784   5.551 -10.322  0.00  0.00    +0.004 A 
ATOM     14  C   UNL     1      -1.614   5.606 -11.050  0.00  0.00    +0.000 A 
ATOM     15  C   UNL     1      -0.736   4.538 -11.021  0.00  0.00    +0.000 A 
ATOM     16  C   UNL     1      -1.039   3.423 -10.267  0.00  0.00    +0.005 A 
ATOM     17  C   UNL     1      -2.220   3.365  -9.539  0.00  0.00    -0.027 A 
ATOM     18  C   UNL     1      -2.501   2.112  -8.757  0.00  0.00    +0.143 C 
ENDBRANCH   4   7
BRANCH   1  19
ATOM     19  S   UNL     1      -0.861  -2.518  -4.247  0.00  0.00    +0.063 S 
ATOM     20  O   UNL     1      -1.101  -3.439  -5.302  0.00  0.00    -0.153 OA
ATOM     21  O   UNL     1      -1.597  -2.543  -3.031  0.00  0.00    -0.153 OA
BRANCH  19  26
ATOM     22  C   UNL     1       1.452  -2.346  -2.522  0.00  0.00    +0.106 A 
ATOM     23  C   UNL     1       2.790  -2.650  -2.648  0.00  0.00    +0.031 A 
ATOM     24  N   UNL     1       2.998  -3.125  -3.890  0.00  0.00    -0.349 N 
ATOM     25  C   UNL     1       1.829  -3.144  -4.593  0.00  0.00    +0.043 A 
ATOM     26  C   UNL     1       0.838  -2.685  -3.811  0.00  0.00    +0.140 A 
ATOM     27  C   UNL     1       1.673  -3.612  -6.017  0.00  0.00    +0.065 C 
ATOM     28  C   UNL     1       4.296  -3.560  -4.413  0.00  0.00    +0.149 C 
ATOM     29  C   UNL     1       3.840  -2.479  -1.580  0.00  0.00    +0.064 C 
BRANCH  22  30
ATOM     30  C   UNL     1       0.776  -1.799  -1.335  0.00  0.00    +0.343 C 
ATOM     31  O   UNL     1       0.312  -2.550  -0.500  0.00  0.00    -0.245 OA
BRANCH  30  32
ATOM     32  O   UNL     1       0.671  -0.465  -1.174  0.00  0.00    -0.461 OA
BRANCH  32  34
ATOM     33  C   UNL     1      -0.019   1.526   0.010  0.00  0.00    +0.048 C 
ATOM     34  C   UNL     1       0.002  -0.004   0.002  0.00  0.00    +0.229 C 
ENDBRANCH  32  34
ENDBRANCH  30  32
ENDBRANCH  22  30
ENDBRANCH  19  26
ENDBRANCH   1  19
TORSDOF 6
