REMARK  Name = ZINC11468484
REMARK  9 active torsions:
REMARK  status: ('A' for Active; 'I' for Inactive)
REMARK    1  A    between atoms: C_1  and  C_2
REMARK    2  A    between atoms: C_2  and  C_3
REMARK    3  A    between atoms: C_3  and  C_4
REMARK    4  A    between atoms: C_8  and  S_10
REMARK    5  A    between atoms: S_10  and  C_11
REMARK    6  A    between atoms: C_11  and  C_13
REMARK    7  A    between atoms: C_11  and  C_14
REMARK    8  A    between atoms: N_16  and  C_17
REMARK    9  A    between atoms: C_18  and  C_27
REMARK                            x       y       z     vdW  Elec       q    Type
REMARK                         _______ _______ _______ _____ _____    ______ ____
ROOT
ATOM      1  C   UNL     1      -3.187  -5.814  -3.420  0.00  0.00    +0.231 C 
ATOM      2  O   UNL     1      -2.786  -6.954  -3.527  0.00  0.00    -0.274 OA
ATOM      3  N   UNL     1      -4.480  -5.528  -3.670  0.00  0.00    -0.278 N 
ATOM      4  H   UNL     1      -4.801  -4.617  -3.584  0.00  0.00    +0.155 HD
ENDROOT
BRANCH   3   5
ATOM      5  C   UNL     1      -5.352  -6.538  -4.052  0.00  0.00    +0.090 A 
ATOM      6  C   UNL     1      -6.698  -6.431  -4.352  0.00  0.00    +0.084 A 
ATOM      7  C   UNL     1      -7.401  -7.649  -4.729  0.00  0.00    -0.018 A 
ATOM      8  C   UNL     1      -6.621  -8.752  -4.729  0.00  0.00    -0.004 A 
ATOM      9  S   UNL     1      -5.015  -8.169  -4.262  0.00  0.00    -0.077 S 
ATOM     10  C   UNL     1      -7.025 -10.158  -5.046  0.00  0.00    +0.043 C 
ATOM     11  C   UNL     1      -7.819 -10.169  -6.360  0.00  0.00    +0.005 C 
ATOM     12  C   UNL     1      -9.296  -9.968  -6.038  0.00  0.00    +0.001 C 
ATOM     13  C   UNL     1      -9.453  -9.062  -4.819  0.00  0.00    +0.005 C 
ATOM     14  C   UNL     1      -8.875  -7.679  -5.104  0.00  0.00    +0.037 C 
BRANCH   6  15
ATOM     15  C   UNL     1      -7.375  -5.170  -4.294  0.00  0.00    +0.102 C 
ATOM     16  N   UNL     1      -7.912  -4.170  -4.248  0.00  0.00    -0.191 NA
ENDBRANCH   6  15
ENDBRANCH   3   5
BRANCH   1  17
ATOM     17  C   UNL     1      -2.239  -4.718  -3.005  0.00  0.00    +0.137 C 
ATOM     18  C   UNL     1      -1.788  -3.939  -4.242  0.00  0.00    +0.029 C 
BRANCH  17  19
ATOM     19  S   UNL     1      -0.793  -5.446  -2.187  0.00  0.00    -0.074 S 
BRANCH  19  24
ATOM     20  C   UNL     1       0.739  -2.004  -1.265  0.00  0.00    +0.152 A 
ATOM     21  N   UNL     1       1.673  -2.752  -0.741  0.00  0.00    -0.157 NA
ATOM     22  H   UNL     1       1.796  -4.880  -0.698  0.00  0.00    +0.191 HD
ATOM     23  N   UNL     1       1.306  -4.088  -0.969  0.00  0.00    -0.254 N 
ATOM     24  C   UNL     1       0.133  -4.051  -1.638  0.00  0.00    +0.185 A 
ATOM     25  N   UNL     1      -0.197  -2.787  -1.804  0.00  0.00    -0.206 NA
BRANCH  20  26
ATOM     26  C   UNL     1       0.718  -0.497  -1.257  0.00  0.00    +0.078 C 
BRANCH  26  28
ATOM     27  C   UNL     1      -0.019   1.526   0.010  0.00  0.00    +0.004 C 
ATOM     28  C   UNL     1       0.002  -0.004   0.002  0.00  0.00    +0.004 C 
ENDBRANCH  26  28
ENDBRANCH  20  26
ENDBRANCH  19  24
ENDBRANCH  17  19
ENDBRANCH   1  17
TORSDOF 7
