REMARK  Name = ZINC36610247
REMARK  18 active torsions:
REMARK  status: ('A' for Active; 'I' for Inactive)
REMARK    1  A    between atoms: C_1  and  C_2
REMARK    2  A    between atoms: C_2  and  C_3
REMARK    3  A    between atoms: C_2  and  C_4
REMARK    4  A    between atoms: C_2  and  C_5
REMARK    5  A    between atoms: C_5  and  C_6
REMARK    6  A    between atoms: C_6  and  C_7
REMARK    7  A    between atoms: C_6  and  C_8
REMARK    8  A    between atoms: C_6  and  N_9
REMARK    9  A    between atoms: C_10  and  C_12
REMARK   10  A    between atoms: C_12  and  C_14
REMARK   11  A    between atoms: C_12  and  N_23
REMARK   12  A    between atoms: C_17  and  O_22
REMARK   13  A    between atoms: C_18  and  O_20
REMARK   14  A    between atoms: O_20  and  C_21
REMARK   15  A    between atoms: N_23  and  C_24
REMARK   16  A    between atoms: C_30  and  C_32
REMARK   17  A    between atoms: C_33  and  O_39
REMARK   18  A    between atoms: C_37  and  O_38
REMARK                            x       y       z     vdW  Elec       q    Type
REMARK                         _______ _______ _______ _____ _____    ______ ____
ROOT
ATOM      1  C   UNL     1       5.286  -0.430  -4.204  0.00  0.00    +0.198 C 
ENDROOT
BRANCH   1   2
ATOM      2  C   UNL     1       5.190  -1.889  -4.570  0.00  0.00    -0.014 A 
ATOM      3  C   UNL     1       6.003  -2.813  -3.940  0.00  0.00    +0.010 A 
ATOM      4  C   UNL     1       5.918  -4.153  -4.271  0.00  0.00    +0.049 A 
ATOM      5  C   UNL     1       5.016  -4.572  -5.236  0.00  0.00    +0.158 A 
ATOM      6  C   UNL     1       4.198  -3.642  -5.870  0.00  0.00    +0.162 A 
ATOM      7  C   UNL     1       4.284  -2.301  -5.530  0.00  0.00    +0.055 A 
BRANCH   6   8
ATOM      8  O   UNL     1       3.311  -4.048  -6.818  0.00  0.00    -0.491 OA
ATOM      9  C   UNL     1       2.503  -3.039  -7.426  0.00  0.00    +0.277 C 
ENDBRANCH   6   8
BRANCH   5  10
ATOM     10  O   UNL     1       4.932  -5.889  -5.564  0.00  0.00    -0.503 OA
ATOM     11  H   UNL     1       4.293  -6.386  -5.035  0.00  0.00    +0.292 HD
ENDBRANCH   5  10
ENDBRANCH   1   2
BRANCH   1  13
ATOM     12  N   UNL     1       3.564  -0.577  -2.435  0.00  0.00    -0.308 N 
ATOM     13  C   UNL     1       4.820  -0.236  -2.785  0.00  0.00    +0.239 C 
ATOM     14  O   UNL     1       5.575   0.227  -1.956  0.00  0.00    -0.273 OA
ATOM     15  H   UNL     1       2.959  -0.947  -3.098  0.00  0.00    +0.149 HD
BRANCH  12  16
ATOM     16  C   UNL     1       3.110  -0.388  -1.055  0.00  0.00    +0.030 C 
ATOM     17  C   UNL     1       3.351   1.063  -0.633  0.00  0.00    +0.031 C 
ATOM     18  C   UNL     1       3.890  -1.324  -0.130  0.00  0.00    +0.031 C 
BRANCH  16  19
ATOM     19  C   UNL     1       1.617  -0.705  -0.961  0.00  0.00    +0.031 C 
BRANCH  19  21
ATOM     20  C   UNL     1       1.036  -0.982  -3.375  0.00  0.00    +0.010 C 
ATOM     21  C   UNL     1       0.886  -0.078  -2.150  0.00  0.00    -0.036 C 
ATOM     22  C   UNL     1       1.489   1.295  -2.452  0.00  0.00    +0.010 C 
ATOM     23  C   UNL     1      -0.598   0.080  -1.811  0.00  0.00    +0.010 C 
ENDBRANCH  19  21
ENDBRANCH  16  19
ENDBRANCH  12  16
ENDBRANCH   1  13
BRANCH   1  24
ATOM     24  N   UNL     1       6.677   0.013  -4.327  0.00  0.00    -0.251 N 
ATOM     25  C   UNL     1       6.993   1.306  -4.118  0.00  0.00    +0.259 C 
ATOM     26  O   UNL     1       6.140   2.088  -3.743  0.00  0.00    -0.269 OA
BRANCH  24  27
ATOM     27  C   UNL     1       7.677  -0.907  -4.660  0.00  0.00    +0.038 A 
ATOM     28  C   UNL     1       7.707  -1.475  -5.926  0.00  0.00    +0.023 A 
ATOM     29  C   UNL     1       8.695  -2.382  -6.252  0.00  0.00    +0.002 A 
ATOM     30  C   UNL     1       9.655  -2.726  -5.318  0.00  0.00    +0.000 A 
ATOM     31  C   UNL     1       9.629  -2.162  -4.055  0.00  0.00    +0.002 A 
ATOM     32  C   UNL     1       8.646  -1.250  -3.725  0.00  0.00    +0.023 A 
ENDBRANCH  24  27
BRANCH  25  33
ATOM     33  C   UNL     1       8.371   1.773  -4.344  0.00  0.00    +0.120 A 
ATOM     34  C   UNL     1       8.802   2.101  -5.638  0.00  0.00    +0.133 A 
ATOM     35  C   UNL     1      10.101   2.540  -5.840  0.00  0.00    +0.046 A 
ATOM     36  C   UNL     1      10.971   2.654  -4.771  0.00  0.00    +0.007 A 
ATOM     37  C   UNL     1      10.556   2.333  -3.492  0.00  0.00    +0.046 A 
ATOM     38  C   UNL     1       9.260   1.898  -3.267  0.00  0.00    +0.133 A 
BRANCH  38  39
ATOM     39  O   UNL     1       8.854   1.589  -2.010  0.00  0.00    -0.506 OA
ATOM     40  H   UNL     1       9.076   0.689  -1.735  0.00  0.00    +0.292 HD
ENDBRANCH  38  39
BRANCH  34  41
ATOM     41  O   UNL     1       7.951   1.989  -6.688  0.00  0.00    -0.506 OA
ATOM     42  H   UNL     1       7.441   2.791  -6.869  0.00  0.00    +0.292 HD
ENDBRANCH  34  41
ENDBRANCH  25  33
ENDBRANCH   1  24
TORSDOF 12
