REMARK  Name = ZINC02399445
REMARK  2 active torsions:
REMARK  status: ('A' for Active; 'I' for Inactive)
REMARK    1  A    between atoms: C_3  and  C_6
REMARK    2  A    between atoms: C_9  and  C_18
REMARK                            x       y       z     vdW  Elec       q    Type
REMARK                         _______ _______ _______ _____ _____    ______ ____
ROOT
ATOM      1  C   UNL     1       3.599   0.625  -0.029  0.00  0.00    +0.178 C 
ATOM      2  C   UNL     1       4.108  -0.121   1.210  0.00  0.00    +0.062 C 
ATOM      3  C   UNL     1       5.608  -0.401   1.066  0.00  0.00    +0.106 C 
ATOM      4  N   UNL     1       5.814  -1.278  -0.104  0.00  0.00    -0.307 N 
ATOM      5  C   UNL     1       5.089  -0.959  -1.245  0.00  0.00    +0.216 A 
ATOM      6  N   UNL     1       4.061  -0.075  -1.228  0.00  0.00    -0.221 N 
ATOM      7  N   UNL     1       3.577   0.003  -2.534  0.00  0.00    -0.132 NA
ATOM      8  C   UNL     1       4.311  -0.811  -3.260  0.00  0.00    +0.233 A 
ATOM      9  N   UNL     1       5.228  -1.398  -2.467  0.00  0.00    -0.180 NA
ATOM     10  N   UNL     1       4.159  -1.036  -4.629  0.00  0.00    -0.326 N 
ATOM     11  H   UNL     1       6.421  -2.033  -0.077  0.00  0.00    +0.149 HD
ATOM     12  H   UNL     1       3.466  -0.572  -5.123  0.00  0.00    +0.145 HD
ATOM     13  H   UNL     1       4.748  -1.657  -5.086  0.00  0.00    +0.145 HD
ENDROOT
BRANCH   3  14
ATOM     14  C   UNL     1       6.118  -1.083   2.309  0.00  0.00    -0.027 A 
ATOM     15  C   UNL     1       5.924  -2.441   2.482  0.00  0.00    +0.006 A 
ATOM     16  C   UNL     1       6.391  -3.066   3.622  0.00  0.00    +0.015 A 
ATOM     17  C   UNL     1       7.053  -2.334   4.590  0.00  0.00    +0.018 A 
ATOM     18  C   UNL     1       7.247  -0.975   4.418  0.00  0.00    +0.015 A 
ATOM     19  C   UNL     1       6.784  -0.351   3.275  0.00  0.00    +0.006 A 
ATOM     20 BR   UNL     1       7.693  -3.189   6.151  0.00  0.00    -0.050 Br
ENDBRANCH   3  14
BRANCH   1  23
ATOM     21  C   UNL     1      -0.016   1.341   0.009  0.00  0.00    +0.041 A 
ATOM     22  C   UNL     1       1.331   1.769  -0.001  0.00  0.00    +0.047 A 
ATOM     23  C   UNL     1       2.092   0.660  -0.014  0.00  0.00    +0.129 A 
ATOM     24  O   UNL     1       1.282  -0.411  -0.012  0.00  0.00    -0.466 OA
ATOM     25  C   UNL     1       0.002  -0.004   0.002  0.00  0.00    +0.195 A 
ENDBRANCH   1  23
TORSDOF 2
