REMARK  Name = ZINC44662946
REMARK  7 active torsions:
REMARK  status: ('A' for Active; 'I' for Inactive)
REMARK    1  A    between atoms: C_1  and  C_2
REMARK    2  A    between atoms: C_3  and  C_7
REMARK    3  A    between atoms: C_10  and  S_12
REMARK    4  A    between atoms: S_12  and  C_13
REMARK    5  A    between atoms: C_13  and  C_15
REMARK    6  A    between atoms: C_13  and  C_21
REMARK    7  A    between atoms: C_21  and  C_23
REMARK                            x       y       z     vdW  Elec       q    Type
REMARK                         _______ _______ _______ _____ _____    ______ ____
ROOT
ATOM      1  C   UNL     1      -6.962   1.707   0.090  0.00  0.00    +0.156 C 
ENDROOT
BRANCH   1   2
ATOM      2  C   UNL     1      -7.205   0.967  -1.200  0.00  0.00    -0.027 A 
ATOM      3  C   UNL     1      -7.132   1.638  -2.407  0.00  0.00    +0.005 A 
ATOM      4  C   UNL     1      -7.355   0.959  -3.590  0.00  0.00    +0.000 A 
ATOM      5  C   UNL     1      -7.650  -0.391  -3.567  0.00  0.00    +0.000 A 
ATOM      6  C   UNL     1      -7.722  -1.062  -2.361  0.00  0.00    +0.000 A 
ATOM      7  C   UNL     1      -7.495  -0.385  -1.178  0.00  0.00    +0.005 A 
ENDBRANCH   1   2
BRANCH   1   8
ATOM      8  C   UNL     1      -7.975   2.813   0.233  0.00  0.00    +0.179 C 
ATOM      9  O   UNL     1      -7.699   3.939  -0.128  0.00  0.00    -0.291 OA
BRANCH   8  10
ATOM     10  C   UNL     1      -9.244   2.540   0.786  0.00  0.00    +0.025 C 
ATOM     11  C   UNL     1     -10.281   3.434   0.980  0.00  0.00    +0.006 A 
ATOM     12  C   UNL     1     -10.422   4.817   0.716  0.00  0.00    +0.010 A 
ATOM     13  C   UNL     1     -11.577   5.454   1.016  0.00  0.00    +0.001 A 
ATOM     14  C   UNL     1     -12.674   4.793   1.591  0.00  0.00    +0.002 A 
ATOM     15  C   UNL     1     -12.643   3.475   1.883  0.00  0.00    +0.026 A 
ATOM     16  C   UNL     1     -11.422   2.706   1.588  0.00  0.00    +0.043 A 
ATOM     17  N   UNL     1     -11.122   1.451   1.762  0.00  0.00    -0.380 N 
ATOM     18  C   UNL     1      -9.757   1.207   1.285  0.00  0.00    +0.152 C 
ATOM     19  H   UNL     1     -11.711   0.781   2.144  0.00  0.00    +0.160 HD
ENDBRANCH   8  10
ENDBRANCH   1   8
BRANCH   1  20
ATOM     20  S   UNL     1      -5.291   2.414   0.075  0.00  0.00    -0.049 S 
BRANCH  20  24
ATOM     21  C   UNL     1      -2.489  -0.270   0.023  0.00  0.00    +0.249 A 
ATOM     22  N   UNL     1      -3.574  -1.010   0.031  0.00  0.00    -0.107 NA
ATOM     23  N   UNL     1      -4.611  -0.249   0.049  0.00  0.00    -0.101 NA
ATOM     24  C   UNL     1      -4.232   1.007   0.053  0.00  0.00    +0.279 A 
ATOM     25  O   UNL     1      -2.884   1.023   0.043  0.00  0.00    -0.411 OA
BRANCH  21  28
ATOM     26  C   UNL     1      -0.018   1.503   0.010  0.00  0.00    +0.086 C 
ATOM     27  C   UNL     1       0.002  -0.004   0.002  0.00  0.00    +0.103 C 
ATOM     28  C   UNL     1      -1.104  -0.756   0.003  0.00  0.00    +0.056 C 
ATOM     29  C   UNL     1      -0.657  -2.208  -0.019  0.00  0.00    +0.085 C 
ATOM     30  C   UNL     1       0.829  -2.073  -0.432  0.00  0.00    +0.233 C 
ATOM     31  O   UNL     1       1.139  -0.732  -0.013  0.00  0.00    -0.496 OA
ENDBRANCH  21  28
ENDBRANCH  20  24
ENDBRANCH   1  20
TORSDOF 6
