REMARK  Name = ZINC66966179
REMARK  8 active torsions:
REMARK  status: ('A' for Active; 'I' for Inactive)
REMARK    1  A    between atoms: C_1  and  C_2
REMARK    2  A    between atoms: C_4  and  N_21
REMARK    3  A    between atoms: C_7  and  N_8
REMARK    4  A    between atoms: N_8  and  C_9
REMARK    5  A    between atoms: C_9  and  C_11
REMARK    6  A    between atoms: C_9  and  C_18
REMARK    7  A    between atoms: N_21  and  C_22
REMARK    8  A    between atoms: N_21  and  C_23
REMARK                            x       y       z     vdW  Elec       q    Type
REMARK                         _______ _______ _______ _____ _____    ______ ____
ROOT
ATOM      1  N   UNL     1       0.025  -0.016   2.415  0.00  0.00    -0.329 N 
ATOM      2  H   UNL     1       0.012   0.954   2.422  0.00  0.00    +0.147 HD
ENDROOT
BRANCH   1   9
ATOM      3  C   UNL     1      -0.018   1.503   0.010  0.00  0.00    +0.046 C 
ATOM      4  C   UNL     1       0.002  -0.004   0.002  0.00  0.00    -0.028 A 
ATOM      5  C   UNL     1       0.006  -0.689  -1.198  0.00  0.00    +0.026 A 
ATOM      6  C   UNL     1       0.024  -2.071  -1.206  0.00  0.00    +0.013 A 
ATOM      7  C   UNL     1       0.039  -2.773  -0.014  0.00  0.00    +0.023 A 
ATOM      8  C   UNL     1       0.036  -2.095   1.188  0.00  0.00    +0.025 A 
ATOM      9  C   UNL     1       0.023  -0.706   1.200  0.00  0.00    +0.031 A 
BRANCH   6  10
ATOM     10  N   UNL     1       0.027  -2.761  -2.422  0.00  0.00    -0.398 NA
ATOM     11  C   UNL     1       1.237  -3.589  -2.512  0.00  0.00    +0.106 C 
ATOM     12  C   UNL     1      -1.162  -3.621  -2.500  0.00  0.00    +0.106 C 
ATOM     13  H   UNL     1       0.014  -2.100  -3.184  0.00  0.00    +0.126 HD
ENDBRANCH   6  10
ENDBRANCH   1   9
BRANCH   1  14
ATOM     14  C   UNL     1       0.047  -0.758   3.678  0.00  0.00    +0.187 C 
BRANCH  14  15
ATOM     15  C   UNL     1       0.646   0.106   4.758  0.00  0.00    -0.018 A 
ATOM     16  C   UNL     1       0.331   1.451   4.821  0.00  0.00    +0.009 A 
ATOM     17  C   UNL     1       0.879   2.244   5.811  0.00  0.00    +0.038 A 
ATOM     18  C   UNL     1       1.745   1.692   6.740  0.00  0.00    +0.123 A 
ATOM     19  C   UNL     1       2.060   0.345   6.676  0.00  0.00    +0.038 A 
ATOM     20  C   UNL     1       1.506  -0.447   5.688  0.00  0.00    +0.009 A 
ATOM     21  F   UNL     1       2.282   2.467   7.707  0.00  0.00    -0.205 F 
ENDBRANCH  14  15
BRANCH  14  22
ATOM     22  C   UNL     1      -1.360  -1.138   4.062  0.00  0.00    +0.235 C 
ATOM     23  O   UNL     1      -2.289  -0.821   3.351  0.00  0.00    -0.274 OA
ATOM     24  N   UNL     1      -1.585  -1.831   5.196  0.00  0.00    -0.328 N 
ATOM     25  H   UNL     1      -0.841  -2.085   5.765  0.00  0.00    +0.145 HD
ATOM     26  H   UNL     1      -2.490  -2.076   5.443  0.00  0.00    +0.145 HD
ENDBRANCH  14  22
ENDBRANCH   1  14
TORSDOF 5
