REMARK  Name = ZINC09510371
REMARK  8 active torsions:
REMARK  status: ('A' for Active; 'I' for Inactive)
REMARK    1  A    between atoms: C_1  and  C_2
REMARK    2  A    between atoms: N_5  and  C_7
REMARK    3  A    between atoms: C_18  and  C_23
REMARK    4  A    between atoms: C_28  and  O_29
REMARK    5  A    between atoms: C_30  and  C_32
REMARK    6  A    between atoms: C_35  and  N_38
REMARK    7  A    between atoms: N_38  and  C_39
REMARK    8  A    between atoms: N_38  and  C_40
REMARK                            x       y       z     vdW  Elec       q    Type
REMARK                         _______ _______ _______ _____ _____    ______ ____
ROOT
ATOM      1  C   UNL     1       6.022  -4.012  -0.885  0.00  0.00    +0.068 C 
ATOM      2  C   UNL     1       4.828  -4.921  -0.746  0.00  0.00    +0.068 A 
ATOM      3  C   UNL     1       3.546  -4.532  -0.383  0.00  0.00    +0.049 A 
ATOM      4  C   UNL     1       2.751  -5.644  -0.370  0.00  0.00    +0.230 A 
ATOM      5  N   UNL     1       3.523  -6.697  -0.717  0.00  0.00    -0.200 N 
ATOM      6  N   UNL     1       4.822  -6.218  -0.948  0.00  0.00    -0.168 NA
ATOM      7  O   UNL     1       1.436  -5.601  -0.053  0.00  0.00    -0.419 OA
ATOM      8  C   UNL     1       0.815  -4.391  -0.034  0.00  0.00    +0.231 A 
ATOM      9  C   UNL     1       1.519  -3.217  -0.031  0.00  0.00    +0.071 A 
ATOM     10  C   UNL     1       0.766  -2.029  -0.017  0.00  0.00    +0.167 A 
ATOM     11  N   UNL     1       1.106  -0.762  -0.018  0.00  0.00    -0.206 NA
ATOM     12  C   UNL     1       0.002  -0.004   0.002  0.00  0.00    +0.186 A 
ATOM     13  N   UNL     1      -1.069  -0.783   0.008  0.00  0.00    -0.143 NA
ATOM     14  N   UNL     1      -0.615  -2.094  -0.004  0.00  0.00    -0.201 N 
ATOM     15  C   UNL     1      -1.254  -3.291  -0.004  0.00  0.00    +0.229 A 
ATOM     16  N   UNL     1      -0.529  -4.382  -0.018  0.00  0.00    -0.201 NA
ATOM     17  C   UNL     1       3.022  -3.161  -0.044  0.00  0.00    +0.095 C 
ENDROOT
BRANCH   5  18
ATOM     18  C   UNL     1       3.102  -8.030  -0.826  0.00  0.00    +0.069 A 
ATOM     19  C   UNL     1       2.141  -8.529   0.043  0.00  0.00    +0.028 A 
ATOM     20  C   UNL     1       1.723  -9.841  -0.072  0.00  0.00    +0.002 A 
ATOM     21  C   UNL     1       2.271 -10.660  -1.042  0.00  0.00    +0.000 A 
ATOM     22  C   UNL     1       3.232 -10.167  -1.905  0.00  0.00    +0.002 A 
ATOM     23  C   UNL     1       3.649  -8.854  -1.800  0.00  0.00    +0.028 A 
ENDBRANCH   5  18
BRANCH  12  24
ATOM     24  C   UNL     1      -0.018   1.479   0.010  0.00  0.00    +0.062 A 
ATOM     25  C   UNL     1       1.177   2.195   0.003  0.00  0.00    +0.015 A 
ATOM     26  C   UNL     1       1.153   3.575   0.010  0.00  0.00    +0.001 A 
ATOM     27  C   UNL     1      -0.054   4.251   0.025  0.00  0.00    +0.004 A 
ATOM     28  C   UNL     1      -1.246   3.551   0.034  0.00  0.00    +0.046 A 
ATOM     29  C   UNL     1      -1.236   2.165   0.020  0.00  0.00    +0.128 A 
BRANCH  29  30
ATOM     30  O   UNL     1      -2.406   1.475   0.021  0.00  0.00    -0.506 OA
ATOM     31  H   UNL     1      -2.741   1.270   0.905  0.00  0.00    +0.292 HD
ENDBRANCH  29  30
ENDBRANCH  12  24
BRANCH  17  32
ATOM     32  C   UNL     1       3.525  -2.747   1.314  0.00  0.00    -0.035 A 
ATOM     33  C   UNL     1       3.226  -3.516   2.424  0.00  0.00    +0.006 A 
ATOM     34  C   UNL     1       3.690  -3.143   3.670  0.00  0.00    +0.023 A 
ATOM     35  C   UNL     1       4.449  -1.988   3.809  0.00  0.00    +0.029 A 
ATOM     36  C   UNL     1       4.744  -1.215   2.693  0.00  0.00    +0.023 A 
ATOM     37  C   UNL     1       4.281  -1.597   1.449  0.00  0.00    +0.006 A 
BRANCH  35  38
ATOM     38  N   UNL     1       4.916  -1.604   5.069  0.00  0.00    -0.336 N 
ATOM     39  C   UNL     1       5.716  -0.385   5.213  0.00  0.00    +0.129 C 
ATOM     40  C   UNL     1       4.605  -2.420   6.245  0.00  0.00    +0.129 C 
ENDBRANCH  35  38
ENDBRANCH  17  32
TORSDOF 5
