REMARK  Name = ZINC60015841
REMARK  13 active torsions:
REMARK  status: ('A' for Active; 'I' for Inactive)
REMARK    1  A    between atoms: C_1  and  C_2
REMARK    2  A    between atoms: C_2  and  N_3
REMARK    3  A    between atoms: C_4  and  C_27
REMARK    4  A    between atoms: C_7  and  S_8
REMARK    5  A    between atoms: S_8  and  C_9
REMARK    6  A    between atoms: C_9  and  C_10
REMARK    7  A    between atoms: N_12  and  C_13
REMARK    8  A    between atoms: C_13  and  C_15
REMARK    9  A    between atoms: C_13  and  C_16
REMARK   10  A    between atoms: C_16  and  N_17
REMARK   11  A    between atoms: C_19  and  C_26
REMARK   12  A    between atoms: C_22  and  C_25
REMARK   13  A    between atoms: C_32  and  C_33
REMARK                            x       y       z     vdW  Elec       q    Type
REMARK                         _______ _______ _______ _____ _____    ______ ____
ROOT
ATOM      1  C   UNL     1      -1.480  -0.818   4.703  0.00  0.00    +0.173 C 
ENDROOT
BRANCH   1   2
ATOM      2  C   UNL     1      -2.837  -0.526   5.290  0.00  0.00    +0.223 C 
ATOM      3  O   UNL     1      -3.673   0.051   4.627  0.00  0.00    -0.275 OA
ATOM      4  N   UNL     1      -3.122  -0.905   6.551  0.00  0.00    -0.314 N 
ATOM      5  H   UNL     1      -2.453  -1.366   7.082  0.00  0.00    +0.149 HD
BRANCH   4   6
ATOM      6  C   UNL     1      -4.441  -0.621   7.122  0.00  0.00    +0.053 C 
ATOM      7  C   UNL     1      -4.452   0.795   7.701  0.00  0.00    +0.026 C 
BRANCH   6   8
ATOM      8  C   UNL     1      -4.744  -1.629   8.232  0.00  0.00    -0.057 C 
BRANCH   8   9
ATOM      9  N   UNL     1      -4.616  -2.993   7.703  0.00  0.00    +0.381 N 
ATOM     10  C   UNL     1      -5.640  -3.216   6.675  0.00  0.00    -0.076 C 
ATOM     11  C   UNL     1      -5.460  -4.607   6.064  0.00  0.00    -0.031 C 
ATOM     12  C   UNL     1      -5.600  -5.664   7.163  0.00  0.00    +0.003 C 
ATOM     13  C   UNL     1      -4.577  -5.378   8.267  0.00  0.00    -0.031 C 
ATOM     14  C   UNL     1      -4.790  -3.958   8.796  0.00  0.00    -0.076 C 
ATOM     15  C   UNL     1      -4.760  -6.382   9.406  0.00  0.00    +0.005 C 
ATOM     16  C   UNL     1      -6.528  -4.837   4.994  0.00  0.00    +0.005 C 
ATOM     17  H   UNL     1      -3.701  -3.110   7.295  0.00  0.00    -0.082 HD
ENDBRANCH   8   9
ENDBRANCH   6   8
ENDBRANCH   4   6
ENDBRANCH   1   2
BRANCH   1  18
ATOM     18  S   UNL     1      -1.407  -0.188   3.004  0.00  0.00    -0.077 S 
BRANCH  18  23
ATOM     19  N   UNL     1       0.758  -0.334   1.240  0.00  0.00    -0.302 N 
ATOM     20  C   UNL     1       2.039  -0.834   1.281  0.00  0.00    +0.165 A 
ATOM     21  N   UNL     1       2.209  -1.362   2.471  0.00  0.00    -0.128 NA
ATOM     22  N   UNL     1       1.137  -1.228   3.167  0.00  0.00    -0.122 NA
ATOM     23  C   UNL     1       0.219  -0.601   2.465  0.00  0.00    +0.192 A 
BRANCH  20  24
ATOM     24  C   UNL     1       3.037  -0.786   0.191  0.00  0.00    +0.022 A 
ATOM     25  C   UNL     1       2.683  -1.178  -1.101  0.00  0.00    +0.012 A 
ATOM     26  C   UNL     1       3.619  -1.131  -2.114  0.00  0.00    +0.001 A 
ATOM     27  C   UNL     1       4.906  -0.696  -1.851  0.00  0.00    +0.000 A 
ATOM     28  C   UNL     1       5.263  -0.306  -0.573  0.00  0.00    +0.004 A 
ATOM     29  C   UNL     1       4.335  -0.343   0.448  0.00  0.00    -0.040 A 
ATOM     30  C   UNL     1       4.724   0.089   1.838  0.00  0.00    +0.044 C 
ENDBRANCH  20  24
BRANCH  19  32
ATOM     31  C   UNL     1       0.409   1.848   0.191  0.00  0.00    +0.027 C 
ATOM     32  C   UNL     1       0.111   0.349   0.117  0.00  0.00    +0.122 C 
ENDBRANCH  19  32
ENDBRANCH  18  23
ENDBRANCH   1  18
TORSDOF 8
