REMARK  Name = ZINC08927736
REMARK  10 active torsions:
REMARK  status: ('A' for Active; 'I' for Inactive)
REMARK    1  A    between atoms: C_1  and  C_2
REMARK    2  A    between atoms: C_2  and  O_3
REMARK    3  A    between atoms: O_3  and  C_4
REMARK    4  A    between atoms: C_4  and  C_6
REMARK    5  A    between atoms: C_10  and  N_11
REMARK    6  A    between atoms: C_12  and  C_14
REMARK    7  A    between atoms: N_19  and  S_20
REMARK    8  A    between atoms: S_20  and  C_23
REMARK    9  A    between atoms: C_26  and  O_29
REMARK   10  A    between atoms: O_29  and  C_30
REMARK                            x       y       z     vdW  Elec       q    Type
REMARK                         _______ _______ _______ _____ _____    ______ ____
ROOT
ATOM      1  N   UNL     1      -2.252   1.351  -4.498  0.00  0.00    -0.278 N 
ATOM      2  C   UNL     1      -2.723   0.283  -5.172  0.00  0.00    +0.236 C 
ATOM      3  O   UNL     1      -2.712  -0.814  -4.654  0.00  0.00    -0.274 OA
ATOM      4  H   UNL     1      -2.260   2.228  -4.912  0.00  0.00    +0.155 HD
ENDROOT
BRANCH   1   9
ATOM      5  C   UNL     1      -1.234   2.163  -2.367  0.00  0.00    +0.091 A 
ATOM      6  C   UNL     1      -0.779   1.737  -1.050  0.00  0.00    -0.021 A 
ATOM      7  C   UNL     1      -0.910   0.417  -0.802  0.00  0.00    -0.004 A 
ATOM      8  S   UNL     1      -1.638  -0.254  -2.272  0.00  0.00    -0.077 S 
ATOM      9  C   UNL     1      -1.756   1.195  -3.213  0.00  0.00    +0.086 A 
ATOM     10  C   UNL     1      -0.525  -0.325   0.440  0.00  0.00    +0.043 C 
ATOM     11  C   UNL     1      -1.083   0.414   1.664  0.00  0.00    +0.005 C 
ATOM     12  C   UNL     1      -0.048   1.435   2.127  0.00  0.00    +0.001 C 
ATOM     13  C   UNL     1       0.725   1.980   0.927  0.00  0.00    +0.005 C 
ATOM     14  C   UNL     1      -0.215   2.712  -0.025  0.00  0.00    +0.037 C 
BRANCH   5  15
ATOM     15  C   UNL     1      -1.142   3.564  -2.784  0.00  0.00    +0.342 C 
ATOM     16  O   UNL     1      -2.066   4.324  -2.567  0.00  0.00    -0.245 OA
BRANCH  15  17
ATOM     17  O   UNL     1      -0.033   4.010  -3.408  0.00  0.00    -0.461 OA
BRANCH  17  19
ATOM     18  C   UNL     1       1.317   5.729  -4.482  0.00  0.00    +0.048 C 
ATOM     19  C   UNL     1      -0.011   5.410  -3.793  0.00  0.00    +0.229 C 
ENDBRANCH  17  19
ENDBRANCH  15  17
ENDBRANCH   5  15
ENDBRANCH   1   9
BRANCH   2  20
ATOM     20  C   UNL     1      -3.262   0.452  -6.569  0.00  0.00    +0.166 C 
ATOM     21  C   UNL     1      -4.767   0.789  -6.514  0.00  0.00    +0.031 C 
ATOM     22  C   UNL     1      -5.343  -0.007  -7.717  0.00  0.00    +0.019 C 
ATOM     23  C   UNL     1      -4.462  -1.281  -7.701  0.00  0.00    +0.110 C 
ATOM     24  N   UNL     1      -3.120  -0.807  -7.315  0.00  0.00    -0.165 NA
BRANCH  24  25
ATOM     25  S   UNL     1      -1.691  -1.566  -7.665  0.00  0.00    +0.062 S 
ATOM     26  O   UNL     1      -0.719  -1.030  -6.778  0.00  0.00    -0.153 OA
ATOM     27  O   UNL     1      -1.976  -2.957  -7.734  0.00  0.00    -0.153 OA
BRANCH  25  28
ATOM     28  C   UNL     1      -1.220  -1.068  -9.289  0.00  0.00    +0.106 A 
ATOM     29  C   UNL     1      -1.705  -1.751 -10.388  0.00  0.00    +0.032 A 
ATOM     30  C   UNL     1      -1.342  -1.359 -11.662  0.00  0.00    +0.047 A 
ATOM     31  C   UNL     1      -0.481  -0.286 -11.837  0.00  0.00    +0.120 A 
ATOM     32  C   UNL     1       0.008   0.395 -10.732  0.00  0.00    +0.047 A 
ATOM     33  C   UNL     1      -0.362   0.003  -9.460  0.00  0.00    +0.032 A 
BRANCH  31  34
ATOM     34  O   UNL     1      -0.119   0.099 -13.089  0.00  0.00    -0.495 OA
ATOM     35  C   UNL     1      -0.662  -0.648 -14.180  0.00  0.00    +0.277 C 
ENDBRANCH  31  34
ENDBRANCH  25  28
ENDBRANCH  24  25
ENDBRANCH   2  20
TORSDOF 8
