REMARK  Name = ZINC64600178
REMARK  7 active torsions:
REMARK  status: ('A' for Active; 'I' for Inactive)
REMARK    1  A    between atoms: C_1  and  C_2
REMARK    2  A    between atoms: C_2  and  C_3
REMARK    3  A    between atoms: C_2  and  C_4
REMARK    4  A    between atoms: C_4  and  C_6
REMARK    5  A    between atoms: C_4  and  N_18
REMARK    6  A    between atoms: N_8  and  C_9
REMARK    7  A    between atoms: C_19  and  O_30
REMARK                            x       y       z     vdW  Elec       q    Type
REMARK                         _______ _______ _______ _____ _____    ______ ____
ROOT
ATOM      1  C   UNL     1      -1.577  -0.611   0.131  0.00  0.00    +0.169 C 
ENDROOT
BRANCH   1   2
ATOM      2  N   UNL     1      -2.459  -0.188   1.222  0.00  0.00    -0.245 N 
ATOM      3  C   UNL     1      -2.925   1.198   1.272  0.00  0.00    +0.300 C 
ATOM      4  N   UNL     1      -4.273   1.262   1.848  0.00  0.00    -0.303 N 
ATOM      5  C   UNL     1      -4.559   0.491   2.970  0.00  0.00    +0.042 A 
ATOM      6  C   UNL     1      -5.511   0.880   3.897  0.00  0.00    +0.024 A 
ATOM      7  C   UNL     1      -5.769   0.076   4.991  0.00  0.00    +0.002 A 
ATOM      8  C   UNL     1      -5.083  -1.115   5.166  0.00  0.00    +0.001 A 
ATOM      9  C   UNL     1      -4.129  -1.515   4.254  0.00  0.00    +0.015 A 
ATOM     10  C   UNL     1      -3.855  -0.712   3.149  0.00  0.00    +0.058 A 
ATOM     11  C   UNL     1      -2.832  -1.084   2.157  0.00  0.00    +0.252 C 
ATOM     12  O   UNL     1      -2.325  -2.189   2.185  0.00  0.00    -0.270 OA
ATOM     13  H   UNL     1      -4.952   1.831   1.453  0.00  0.00    +0.150 HD
BRANCH   3  14
ATOM     14  O   UNL     1      -2.032   1.968   2.080  0.00  0.00    -0.359 OA
ATOM     15  H   UNL     1      -2.278   2.899   2.160  0.00  0.00    +0.213 HD
ENDBRANCH   3  14
ENDBRANCH   1   2
BRANCH   1  16
ATOM     16  C   UNL     1      -2.306  -0.487  -1.182  0.00  0.00    +0.237 C 
ATOM     17  O   UNL     1      -3.367   0.098  -1.233  0.00  0.00    -0.274 OA
ATOM     18  N   UNL     1      -1.778  -1.027  -2.299  0.00  0.00    -0.277 N 
ATOM     19  H   UNL     1      -0.956  -1.539  -2.249  0.00  0.00    +0.152 HD
BRANCH  18  20
ATOM     20  C   UNL     1      -2.447  -0.839  -3.589  0.00  0.00    +0.269 C 
ATOM     21  N   UNL     1      -3.596  -1.747  -3.698  0.00  0.00    -0.348 N 
ATOM     22  C   UNL     1      -3.383  -2.525  -4.720  0.00  0.00    +0.061 A 
ATOM     23  C   UNL     1      -4.159  -3.618  -5.322  0.00  0.00    +0.027 A 
ATOM     24  C   UNL     1      -3.675  -4.258  -6.405  0.00  0.00    +0.002 A 
ATOM     25  C   UNL     1      -2.443  -3.926  -6.995  0.00  0.00    +0.002 A 
ATOM     26  C   UNL     1      -1.653  -2.941  -6.522  0.00  0.00    +0.027 A 
ATOM     27  C   UNL     1      -2.079  -2.172  -5.345  0.00  0.00    +0.061 A 
ATOM     28  N   UNL     1      -1.536  -1.191  -4.685  0.00  0.00    -0.348 N 
ATOM     29  H   UNL     1      -4.371  -1.765  -3.115  0.00  0.00    +0.163 HD
ATOM     30  H   UNL     1      -0.684  -0.769  -4.881  0.00  0.00    +0.163 HD
ENDBRANCH  18  20
ENDBRANCH   1  16
BRANCH   1  32
ATOM     31  C   UNL     1       0.385   0.186   1.458  0.00  0.00    +0.009 C 
ATOM     32  C   UNL     1      -0.331   0.277   0.109  0.00  0.00    +0.012 C 
ATOM     33  C   UNL     1       0.611  -0.193  -1.001  0.00  0.00    +0.009 C 
ENDBRANCH   1  32
TORSDOF 5
