REMARK  Name = ZINC12036200
REMARK  9 active torsions:
REMARK  status: ('A' for Active; 'I' for Inactive)
REMARK    1  A    between atoms: C_1  and  C_2
REMARK    2  A    between atoms: C_2  and  C_4
REMARK    3  A    between atoms: C_2  and  C_14
REMARK    4  A    between atoms: C_4  and  C_5
REMARK    5  A    between atoms: C_14  and  N_64
REMARK    6  A    between atoms: C_17  and  C_20
REMARK    7  A    between atoms: C_20  and  C_33
REMARK    8  A    between atoms: N_23  and  C_27
REMARK    9  A    between atoms: C_27  and  C_28
REMARK                            x       y       z     vdW  Elec       q    Type
REMARK                         _______ _______ _______ _____ _____    ______ ____
ROOT
ATOM      1  C   UNL     1       5.596   0.970   6.129  0.00  0.00    -0.078 C 
ATOM      2  C   UNL     1       5.183   1.069   7.599  0.00  0.00    -0.013 C 
ATOM      3  C   UNL     1       6.388   0.740   8.486  0.00  0.00    +0.018 C 
ATOM      4  C   UNL     1       6.901  -0.660   8.136  0.00  0.00    -0.013 C 
ATOM      5  C   UNL     1       7.264  -0.709   6.651  0.00  0.00    -0.078 C 
ATOM      6  N   UNL     1       6.058  -0.407   5.852  0.00  0.00    +0.380 N 
ATOM      7  H   UNL     1       5.314  -1.066   6.110  0.00  0.00    -0.082 HD
ENDROOT
BRANCH   3   8
ATOM      8  C   UNL     1       5.967   0.778   9.956  0.00  0.00    +0.112 C 
ATOM      9  C   UNL     1       5.454   2.155  10.329  0.00  0.00    +0.247 C 
ATOM     10  O   UNL     1       6.069   3.199  10.295  0.00  0.00    -0.273 OA
ATOM     11  N   UNL     1       4.172   1.977  10.703  0.00  0.00    -0.220 N 
ATOM     12  C   UNL     1       3.808   0.692  10.621  0.00  0.00    +0.310 C 
ATOM     13  O   UNL     1       2.699   0.284  10.906  0.00  0.00    -0.252 OA
ATOM     14  N   UNL     1       4.806  -0.098  10.186  0.00  0.00    -0.285 N 
ATOM     15  C   UNL     1       7.136   0.377  10.859  0.00  0.00    +0.042 C 
ATOM     16  H   UNL     1       4.768  -1.058  10.050  0.00  0.00    +0.151 HD
BRANCH  11  17
ATOM     17  C   UNL     1       3.287   3.056  11.148  0.00  0.00    +0.153 C 
BRANCH  17  18
ATOM     18  C   UNL     1       2.562   3.633   9.959  0.00  0.00    -0.023 A 
ATOM     19  C   UNL     1       1.344   3.115   9.560  0.00  0.00    +0.013 A 
ATOM     20  C   UNL     1       0.719   3.657   8.487  0.00  0.00    +0.045 A 
ATOM     21  S   UNL     1       1.861   4.940   8.002  0.00  0.00    -0.105 S 
ATOM     22  C   UNL     1       3.093   4.671   9.267  0.00  0.00    +0.050 A 
ENDBRANCH  17  18
ENDBRANCH  11  17
ENDBRANCH   3   8
BRANCH   6  23
ATOM     23  C   UNL     1       6.354  -0.560   4.412  0.00  0.00    -0.075 C 
BRANCH  23  25
ATOM     24  C   UNL     1       4.968  -2.634   4.284  0.00  0.00    +0.006 C 
ATOM     25  C   UNL     1       6.366  -2.051   4.071  0.00  0.00    -0.026 C 
BRANCH  25  26
ATOM     26  C   UNL     1       6.779  -2.237   2.610  0.00  0.00    +0.036 C 
BRANCH  26  27
ATOM     27  C   UNL     1       6.910  -3.707   2.307  0.00  0.00    -0.043 A 
ATOM     28  C   UNL     1       8.124  -4.344   2.491  0.00  0.00    +0.007 A 
ATOM     29  C   UNL     1       8.249  -5.692   2.215  0.00  0.00    +0.050 A 
ATOM     30  C   UNL     1       7.157  -6.410   1.754  0.00  0.00    +0.166 A 
ATOM     31  C   UNL     1       5.935  -5.769   1.569  0.00  0.00    +0.166 A 
ATOM     32  C   UNL     1       5.817  -4.417   1.847  0.00  0.00    +0.053 A 
ATOM     33  O   UNL     1       5.028  -6.681   1.113  0.00  0.00    -0.453 OA
ATOM     34  C   UNL     1       5.598  -7.970   1.409  0.00  0.00    +0.466 C 
ATOM     35  O   UNL     1       7.016  -7.724   1.414  0.00  0.00    -0.453 OA
ENDBRANCH  26  27
ENDBRANCH  25  26
ENDBRANCH  23  25
ENDBRANCH   6  23
TORSDOF 7
