REMARK  Name = ZINC05350442
REMARK  12 active torsions:
REMARK  status: ('A' for Active; 'I' for Inactive)
REMARK    1  A    between atoms: C_1  and  C_2
REMARK    2  A    between atoms: C_2  and  C_3
REMARK    3  A    between atoms: C_2  and  C_4
REMARK    4  A    between atoms: C_2  and  N_5
REMARK    5  A    between atoms: C_6  and  C_8
REMARK    6  A    between atoms: N_10  and  C_11
REMARK    7  A    between atoms: C_11  and  C_12
REMARK    8  A    between atoms: C_12  and  C_14
REMARK    9  A    between atoms: C_12  and  N_65
REMARK   10  A    between atoms: C_17  and  N_20
REMARK   11  A    between atoms: N_20  and  C_21
REMARK   12  A    between atoms: N_20  and  C_22
REMARK                            x       y       z     vdW  Elec       q    Type
REMARK                         _______ _______ _______ _____ _____    ______ ____
ROOT
ATOM      1  C   UNL     1      -0.785   1.953  -1.143  0.00  0.00    -0.020 C 
ENDROOT
BRANCH   1  11
ATOM      2  C   UNL     1       1.035   1.400   0.360  0.00  0.00    -0.073 C 
ATOM      3  C   UNL     1       1.412   0.413   1.465  0.00  0.00    +0.017 C 
ATOM      4  C   UNL     1       1.458  -0.988   0.910  0.00  0.00    -0.048 A 
ATOM      5  C   UNL     1       2.112  -1.968   1.641  0.00  0.00    +0.004 A 
ATOM      6  C   UNL     1       2.169  -3.265   1.173  0.00  0.00    +0.000 A 
ATOM      7  C   UNL     1       1.571  -3.589  -0.031  0.00  0.00    +0.000 A 
ATOM      8  C   UNL     1       0.922  -2.614  -0.760  0.00  0.00    +0.002 A 
ATOM      9  C   UNL     1       0.864  -1.309  -0.292  0.00  0.00    -0.061 A 
ATOM     10  C   UNL     1       0.148  -0.279  -1.126  0.00  0.00    -0.042 C 
ATOM     11  N   UNL     1      -0.186   0.893  -0.300  0.00  0.00    +0.388 N 
ATOM     12  H   UNL     1      -0.864   0.615   0.419  0.00  0.00    -0.080 HD
ENDBRANCH   1  11
BRANCH   1  13
ATOM     13  C   UNL     1      -2.273   1.728  -1.221  0.00  0.00    -0.059 A 
ATOM     14  C   UNL     1      -2.799   0.484  -0.922  0.00  0.00    +0.004 A 
ATOM     15  C   UNL     1      -4.162   0.276  -0.987  0.00  0.00    +0.023 A 
ATOM     16  C   UNL     1      -5.005   1.314  -1.364  0.00  0.00    +0.029 A 
ATOM     17  C   UNL     1      -4.473   2.560  -1.669  0.00  0.00    +0.023 A 
ATOM     18  C   UNL     1      -3.108   2.763  -1.596  0.00  0.00    +0.004 A 
BRANCH  16  19
ATOM     19  N   UNL     1      -6.384   1.105  -1.436  0.00  0.00    -0.336 N 
ATOM     20  C   UNL     1      -7.271   2.201  -1.834  0.00  0.00    +0.129 C 
ATOM     21  C   UNL     1      -6.944  -0.210  -1.115  0.00  0.00    +0.129 C 
ENDBRANCH  16  19
ENDBRANCH   1  13
BRANCH   1  22
ATOM     22  C   UNL     1      -0.188   1.908  -2.551  0.00  0.00    +0.094 C 
BRANCH  22  25
ATOM     23  C   UNL     1       2.015   2.053  -3.583  0.00  0.00    +0.299 C 
ATOM     24  O   UNL     1       1.514   1.708  -4.633  0.00  0.00    -0.265 OA
ATOM     25  N   UNL     1       1.250   2.183  -2.481  0.00  0.00    -0.309 N 
ATOM     26  H   UNL     1       1.650   2.459  -1.642  0.00  0.00    +0.149 HD
BRANCH  23  28
ATOM     27  N   UNL     1       4.247   2.203  -4.613  0.00  0.00    -0.303 N 
ATOM     28  C   UNL     1       3.481   2.333  -3.511  0.00  0.00    +0.299 C 
ATOM     29  O   UNL     1       3.983   2.678  -2.461  0.00  0.00    -0.265 OA
ATOM     30  H   UNL     1       3.846   1.927  -5.452  0.00  0.00    +0.150 HD
BRANCH  27  32
ATOM     31  C   UNL     1       6.334   1.536  -3.527  0.00  0.00    +0.031 C 
ATOM     32  C   UNL     1       5.684   2.477  -4.543  0.00  0.00    +0.027 C 
ATOM     33  C   UNL     1       6.313   2.256  -5.920  0.00  0.00    +0.031 C 
ATOM     34  C   UNL     1       5.905   3.928  -4.108  0.00  0.00    +0.031 C 
ENDBRANCH  27  32
ENDBRANCH  23  28
ENDBRANCH  22  25
ENDBRANCH   1  22
TORSDOF 7
