REMARK  Name = ZINC13147288
REMARK  5 active torsions:
REMARK  status: ('A' for Active; 'I' for Inactive)
REMARK    1  A    between atoms: C_1  and  C_2
REMARK    2  A    between atoms: C_6  and  C_16
REMARK    3  A    between atoms: N_8  and  C_9
REMARK    4  A    between atoms: C_19  and  C_22
REMARK    5  A    between atoms: C_22  and  O_23
REMARK                            x       y       z     vdW  Elec       q    Type
REMARK                         _______ _______ _______ _____ _____    ______ ____
ROOT
ATOM      1  C   UNL     1       0.219   0.467   0.438  0.00  0.00    +0.069 C 
ATOM      2  C   UNL     1       0.163  -0.979   0.020  0.00  0.00    +0.081 A 
ATOM      3  C   UNL     1       0.094  -1.306  -1.327  0.00  0.00    +0.159 A 
ATOM      4  C   UNL     1       0.045  -2.665  -1.693  0.00  0.00    +0.027 A 
ATOM      5  C   UNL     1      -0.021  -3.031  -3.109  0.00  0.00    +0.030 A 
ATOM      6  C   UNL     1       0.235  -2.040  -4.030  0.00  0.00    +0.097 A 
ATOM      7  C   UNL     1       0.556  -0.697  -3.507  0.00  0.00    +0.212 A 
ATOM      8  N   UNL     1       1.291   0.142  -4.205  0.00  0.00    -0.325 N 
ATOM      9  O   UNL     1       0.073  -0.351  -2.286  0.00  0.00    -0.437 OA
ATOM     10  C   UNL     1       0.063  -3.632  -0.681  0.00  0.00    +0.007 A 
ATOM     11  C   UNL     1       0.132  -3.211   0.631  0.00  0.00    +0.117 A 
ATOM     12  N   UNL     1       0.184  -1.927   0.935  0.00  0.00    -0.256 NA
ATOM     13  H   UNL     1       1.703  -0.148  -5.033  0.00  0.00    +0.169 HD
ENDROOT
BRANCH   8  14
ATOM     14  C   UNL     1       1.473   1.423  -3.762  0.00  0.00    +0.042 A 
ATOM     15  C   UNL     1       0.389   2.159  -3.278  0.00  0.00    +0.026 A 
ATOM     16  C   UNL     1       0.580   3.450  -2.833  0.00  0.00    +0.002 A 
ATOM     17  C   UNL     1       1.842   4.017  -2.865  0.00  0.00    +0.000 A 
ATOM     18  C   UNL     1       2.921   3.294  -3.343  0.00  0.00    +0.002 A 
ATOM     19  C   UNL     1       2.745   1.999  -3.785  0.00  0.00    +0.026 A 
ENDBRANCH   8  14
BRANCH   6  20
ATOM     20  C   UNL     1       0.191  -2.309  -5.479  0.00  0.00    +0.247 C 
ATOM     21  O   UNL     1       0.299  -1.392  -6.271  0.00  0.00    -0.270 OA
ATOM     22  N   UNL     1       0.030  -3.570  -5.926  0.00  0.00    -0.325 N 
ATOM     23  H   UNL     1      -0.129  -4.291  -5.297  0.00  0.00    +0.145 HD
ATOM     24  H   UNL     1       0.074  -3.757  -6.877  0.00  0.00    +0.145 HD
ENDBRANCH   6  20
BRANCH  10  25
ATOM     25  C   UNL     1       0.009  -5.100  -1.017  0.00  0.00    +0.193 C 
BRANCH  25  26
ATOM     26  O   UNL     1       0.042  -5.867   0.188  0.00  0.00    -0.390 OA
ATOM     27  H   UNL     1       0.010  -6.823   0.048  0.00  0.00    +0.210 HD
ENDBRANCH  25  26
ENDBRANCH  10  25
TORSDOF 4
