REMARK  Name = ZINC17736300
REMARK  12 active torsions:
REMARK  status: ('A' for Active; 'I' for Inactive)
REMARK    1  A    between atoms: C_1  and  C_2
REMARK    2  A    between atoms: C_2  and  C_4
REMARK    3  A    between atoms: C_2  and  S_20
REMARK    4  A    between atoms: N_6  and  C_7
REMARK    5  A    between atoms: C_10  and  S_13
REMARK    6  A    between atoms: S_13  and  N_16
REMARK    7  A    between atoms: N_16  and  C_17
REMARK    8  A    between atoms: C_17  and  C_18
REMARK    9  A    between atoms: C_17  and  C_19
REMARK   10  A    between atoms: S_20  and  C_21
REMARK   11  A    between atoms: C_29  and  N_31
REMARK   12  A    between atoms: N_31  and  C_32
REMARK                            x       y       z     vdW  Elec       q    Type
REMARK                         _______ _______ _______ _____ _____    ______ ____
ROOT
ATOM      1  C   UNL     1      -0.007   1.532   0.016  0.00  0.00    +0.029 C 
ATOM      2  C   UNL     1       0.003   0.002   0.004  0.00  0.00    +0.137 C 
ENDROOT
BRANCH   2   3
ATOM      3  C   UNL     1       0.730  -0.505   1.222  0.00  0.00    +0.230 C 
ATOM      4  O   UNL     1       1.909  -0.785   1.153  0.00  0.00    -0.274 OA
ATOM      5  N   UNL     1       0.071  -0.647   2.389  0.00  0.00    -0.285 N 
ATOM      6  H   UNL     1      -0.852  -0.361   2.463  0.00  0.00    +0.155 HD
BRANCH   5   7
ATOM      7  C   UNL     1       0.720  -1.209   3.495  0.00  0.00    +0.034 A 
ATOM      8  C   UNL     1       0.015  -2.013   4.381  0.00  0.00    +0.025 A 
ATOM      9  C   UNL     1       0.658  -2.566   5.471  0.00  0.00    +0.030 A 
ATOM     10  C   UNL     1       2.002  -2.319   5.681  0.00  0.00    +0.105 A 
ATOM     11  C   UNL     1       2.707  -1.518   4.801  0.00  0.00    +0.030 A 
ATOM     12  C   UNL     1       2.071  -0.968   3.706  0.00  0.00    +0.025 A 
BRANCH  10  13
ATOM     13  S   UNL     1       2.819  -3.026   7.073  0.00  0.00    +0.059 S 
ATOM     14  O   UNL     1       3.943  -2.201   7.346  0.00  0.00    -0.153 OA
ATOM     15  O   UNL     1       1.814  -3.289   8.043  0.00  0.00    -0.153 OA
BRANCH  13  16
ATOM     16  N   UNL     1       3.414  -4.496   6.597  0.00  0.00    -0.187 NA
ATOM     17  H   UNL     1       3.071  -5.311   6.996  0.00  0.00    +0.148 HD
BRANCH  16  18
ATOM     18  C   UNL     1       4.460  -4.566   5.574  0.00  0.00    +0.070 C 
ATOM     19  C   UNL     1       5.831  -4.639   6.250  0.00  0.00    +0.025 C 
ATOM     20  C   UNL     1       4.249  -5.813   4.713  0.00  0.00    +0.025 C 
ENDBRANCH  16  18
ENDBRANCH  13  16
ENDBRANCH  10  13
ENDBRANCH   5   7
ENDBRANCH   2   3
BRANCH   2  21
ATOM     21  S   UNL     1       0.847  -0.585  -1.491  0.00  0.00    -0.073 S 
BRANCH  21  22
ATOM     22  C   UNL     1      -0.192  -0.042  -2.807  0.00  0.00    +0.191 A 
ATOM     23  N   UNL     1      -1.287   0.633  -2.511  0.00  0.00    -0.222 NA
ATOM     24  C   UNL     1      -2.103   1.064  -3.485  0.00  0.00    +0.077 A 
ATOM     25  C   UNL     1      -3.273   1.783  -3.207  0.00  0.00    +0.028 A 
ATOM     26  C   UNL     1      -4.068   2.199  -4.234  0.00  0.00    +0.002 A 
ATOM     27  C   UNL     1      -3.736   1.919  -5.556  0.00  0.00    +0.001 A 
ATOM     28  C   UNL     1      -2.604   1.221  -5.861  0.00  0.00    +0.013 A 
ATOM     29  C   UNL     1      -1.767   0.781  -4.831  0.00  0.00    +0.040 A 
ATOM     30  C   UNL     1      -0.578   0.052  -5.089  0.00  0.00    +0.131 A 
ATOM     31  N   UNL     1       0.163  -0.325  -4.058  0.00  0.00    -0.206 NA
BRANCH  30  32
ATOM     32  N   UNL     1      -0.202  -0.252  -6.379  0.00  0.00    -0.326 N 
ATOM     33  H   UNL     1      -0.752   0.033  -7.125  0.00  0.00    +0.148 HD
BRANCH  32  34
ATOM     34  C   UNL     1       1.030  -1.006  -6.624  0.00  0.00    +0.072 C 
ATOM     35  C   UNL     1       1.938  -0.527  -7.758  0.00  0.00    +0.024 C 
ATOM     36  C   UNL     1       1.121  -1.809  -7.923  0.00  0.00    +0.024 C 
ENDBRANCH  32  34
ENDBRANCH  30  32
ENDBRANCH  21  22
ENDBRANCH   2  21
TORSDOF 9
