REMARK  Name = ZINC67625303
REMARK  6 active torsions:
REMARK  status: ('A' for Active; 'I' for Inactive)
REMARK    1  A    between atoms: C_1  and  C_2
REMARK    2  A    between atoms: C_2  and  C_4
REMARK    3  A    between atoms: C_2  and  N_21
REMARK    4  A    between atoms: C_4  and  N_5
REMARK    5  A    between atoms: C_11  and  N_14
REMARK    6  A    between atoms: N_14  and  C_15
REMARK                            x       y       z     vdW  Elec       q    Type
REMARK                         _______ _______ _______ _____ _____    ______ ____
ROOT
ATOM      1  N   UNL     1      -1.705  -1.754  -0.089  0.00  0.00    -0.301 N 
ATOM      2  C   UNL     1      -2.948  -2.267   0.011  0.00  0.00    +0.302 C 
ATOM      3  O   UNL     1      -3.896  -1.529   0.197  0.00  0.00    -0.253 OA
ATOM      4  N   UNL     1      -3.139  -3.597  -0.094  0.00  0.00    -0.284 N 
ATOM      5  C   UNL     1      -2.085  -4.599  -0.312  0.00  0.00    +0.111 C 
ATOM      6  C   UNL     1      -2.768  -5.983  -0.338  0.00  0.00    +0.043 C 
ATOM      7  C   UNL     1      -4.092  -5.732   0.431  0.00  0.00    +0.089 C 
ATOM      8  C   UNL     1      -4.438  -4.288  -0.005  0.00  0.00    +0.131 C 
ATOM      9  H   UNL     1      -0.948  -2.342  -0.237  0.00  0.00    +0.150 HD
ENDROOT
BRANCH   7  10
ATOM     10  N   UNL     1      -5.131  -6.674   0.009  0.00  0.00    -0.339 N 
ATOM     11  H   UNL     1      -5.090  -7.079  -0.872  0.00  0.00    +0.146 HD
BRANCH  10  12
ATOM     12  C   UNL     1      -6.181  -6.989   0.874  0.00  0.00    +0.027 A 
ATOM     13  C   UNL     1      -6.245  -6.406   2.133  0.00  0.00    +0.023 A 
ATOM     14  C   UNL     1      -7.285  -6.720   2.986  0.00  0.00    +0.002 A 
ATOM     15  C   UNL     1      -8.262  -7.614   2.588  0.00  0.00    +0.000 A 
ATOM     16  C   UNL     1      -8.201  -8.197   1.335  0.00  0.00    +0.002 A 
ATOM     17  C   UNL     1      -7.167  -7.883   0.475  0.00  0.00    +0.023 A 
ENDBRANCH  10  12
ENDBRANCH   7  10
BRANCH   1  18
ATOM     18  C   UNL     1      -1.498  -0.308   0.026  0.00  0.00    +0.090 C 
BRANCH  18  20
ATOM     19  C   UNL     1       0.214   1.511  -0.001  0.00  0.00    -0.012 C 
ATOM     20  C   UNL     1       0.001  -0.004  -0.008  0.00  0.00    -0.054 C 
BRANCH  20  21
ATOM     21  N   UNL     1       0.590  -0.576  -1.226  0.00  0.00    +0.385 N 
ATOM     22  C   UNL     1       2.026  -0.263  -1.273  0.00  0.00    -0.073 C 
ATOM     23  C   UNL     1       2.675  -1.112  -2.367  0.00  0.00    +0.017 C 
ATOM     24  C   UNL     1       1.901  -0.967  -3.652  0.00  0.00    -0.048 A 
ATOM     25  C   UNL     1       2.499  -1.365  -4.837  0.00  0.00    +0.004 A 
ATOM     26  C   UNL     1       1.819  -1.249  -6.033  0.00  0.00    +0.000 A 
ATOM     27  C   UNL     1       0.536  -0.735  -6.048  0.00  0.00    +0.000 A 
ATOM     28  C   UNL     1      -0.060  -0.337  -4.869  0.00  0.00    +0.002 A 
ATOM     29  C   UNL     1       0.622  -0.451  -3.666  0.00  0.00    -0.061 A 
ATOM     30  C   UNL     1      -0.063   0.003  -2.404  0.00  0.00    -0.042 C 
ATOM     31  H   UNL     1       0.460  -1.576  -1.226  0.00  0.00    -0.081 HD
ENDBRANCH  20  21
ENDBRANCH  18  20
ENDBRANCH   1  18
TORSDOF 5
