REMARK  Name = ZINC36866440
REMARK  9 active torsions:
REMARK  status: ('A' for Active; 'I' for Inactive)
REMARK    1  A    between atoms: C_1  and  C_2
REMARK    2  A    between atoms: N_11  and  C_15
REMARK    3  A    between atoms: C_15  and  C_16
REMARK    4  A    between atoms: C_16  and  C_18
REMARK    5  A    between atoms: C_16  and  O_29
REMARK    6  A    between atoms: C_18  and  O_19
REMARK    7  A    between atoms: O_19  and  C_20
REMARK    8  A    between atoms: C_23  and  C_26
REMARK    9  A    between atoms: C_26  and  C_28
REMARK                            x       y       z     vdW  Elec       q    Type
REMARK                         _______ _______ _______ _____ _____    ______ ____
ROOT
ATOM      1  C   UNL     1       0.748   1.426   4.396  0.00  0.00    +0.152 C 
ENDROOT
BRANCH   1  11
ATOM      2  C   UNL     1      -0.066   1.503   0.015  0.00  0.00    +0.010 C 
ATOM      3  C   UNL     1      -0.035  -0.026   0.009  0.00  0.00    +0.018 C 
ATOM      4  C   UNL     1       0.680  -0.516  -1.254  0.00  0.00    +0.006 C 
ATOM      5  C   UNL     1       0.729  -2.046  -1.249  0.00  0.00    +0.000 C 
ATOM      6  C   UNL     1       1.497  -2.530  -0.018  0.00  0.00    +0.003 C 
ATOM      7  C   UNL     1       0.786  -2.047   1.249  0.00  0.00    +0.035 C 
ATOM      8  C   UNL     1       0.711  -0.525   1.242  0.00  0.00    +0.115 C 
ATOM      9  C   UNL     1       0.043  -0.023   2.501  0.00  0.00    +0.247 C 
ATOM     10  O   UNL     1      -1.087  -0.254   2.874  0.00  0.00    -0.273 OA
ATOM     11  N   UNL     1       0.969   0.735   3.123  0.00  0.00    -0.222 N 
ATOM     12  C   UNL     1       2.116   0.777   2.434  0.00  0.00    +0.309 C 
ATOM     13  O   UNL     1       3.098   1.397   2.793  0.00  0.00    -0.252 OA
ATOM     14  N   UNL     1       2.059   0.057   1.297  0.00  0.00    -0.285 N 
ATOM     15  H   UNL     1       2.768  -0.056   0.645  0.00  0.00    +0.151 HD
ENDBRANCH   1  11
BRANCH   1  16
ATOM     16  C   UNL     1       1.142   0.505   5.552  0.00  0.00    +0.170 C 
BRANCH  16  17
ATOM     17  O   UNL     1       0.346  -0.681   5.510  0.00  0.00    -0.387 OA
ATOM     18  H   UNL     1      -0.604  -0.519   5.585  0.00  0.00    +0.210 HD
ENDBRANCH  16  17
BRANCH  16  19
ATOM     19  C   UNL     1       0.911   1.227   6.881  0.00  0.00    +0.261 C 
BRANCH  19  20
ATOM     20  O   UNL     1       1.387   0.413   7.955  0.00  0.00    -0.489 OA
BRANCH  20  21
ATOM     21  C   UNL     1       1.256   0.911   9.210  0.00  0.00    +0.121 A 
ATOM     22  C   UNL     1       0.674   2.159   9.403  0.00  0.00    +0.046 A 
ATOM     23  C   UNL     1       0.539   2.666  10.670  0.00  0.00    +0.015 A 
ATOM     24  C   UNL     1       0.989   1.926  11.770  0.00  0.00    +0.017 A 
ATOM     25  C   UNL     1       1.574   0.669  11.570  0.00  0.00    +0.015 A 
ATOM     26  C   UNL     1       1.700   0.169  10.299  0.00  0.00    +0.046 A 
BRANCH  24  27
ATOM     27  C   UNL     1       0.847   2.464  13.129  0.00  0.00    +0.160 C 
ATOM     28  O   UNL     1       0.432   3.592  13.294  0.00  0.00    -0.292 OA
ATOM     29  C   UNL     1       1.216   1.616  14.318  0.00  0.00    +0.091 C 
ENDBRANCH  24  27
ENDBRANCH  20  21
ENDBRANCH  19  20
ENDBRANCH  16  19
ENDBRANCH   1  16
TORSDOF 7
