REMARK  Name = ZINC39684492
REMARK  10 active torsions:
REMARK  status: ('A' for Active; 'I' for Inactive)
REMARK    1  A    between atoms: C_1  and  C_2
REMARK    2  A    between atoms: C_3  and  C_15
REMARK    3  A    between atoms: C_4  and  C_7
REMARK    4  A    between atoms: C_19  and  C_28
REMARK    5  A    between atoms: N_30  and  C_31
REMARK    6  A    between atoms: C_31  and  C_33
REMARK    7  A    between atoms: C_31  and  C_34
REMARK    8  A    between atoms: C_34  and  C_35
REMARK    9  A    between atoms: C_34  and  C_36
REMARK   10  A    between atoms: C_34  and  C_37
REMARK                            x       y       z     vdW  Elec       q    Type
REMARK                         _______ _______ _______ _____ _____    ______ ____
ROOT
ATOM      1  C   UNL     1      -2.578  -0.091   0.852  0.00  0.00    +0.252 C 
ATOM      2  O   UNL     1      -3.409   0.103  -0.015  0.00  0.00    -0.270 OA
ATOM      3  N   UNL     1      -2.889   0.130   2.145  0.00  0.00    -0.296 N 
ATOM      4  C   UNL     1      -2.053  -0.138   3.338  0.00  0.00    +0.121 C 
ATOM      5  C   UNL     1      -2.311   1.065   4.273  0.00  0.00    +0.100 C 
ATOM      6  C   UNL     1      -3.686   1.606   3.846  0.00  0.00    -0.004 C 
ATOM      7  C   UNL     1      -4.143   0.700   2.693  0.00  0.00    +0.115 C 
ATOM      8  C   UNL     1      -4.671   1.520   5.008  0.00  0.00    -0.010 C 
ATOM      9  C   UNL     1      -6.014   2.117   4.577  0.00  0.00    -0.082 C 
ATOM     10  N   UNL     1      -5.824   3.515   4.173  0.00  0.00    +0.379 N 
ATOM     11  C   UNL     1      -4.949   3.581   2.997  0.00  0.00    -0.082 C 
ATOM     12  C   UNL     1      -3.560   3.046   3.361  0.00  0.00    -0.010 C 
ATOM     13  H   UNL     1      -6.719   3.923   3.948  0.00  0.00    -0.086 HD
ATOM     14  H   UNL     1      -5.404   4.029   4.933  0.00  0.00    -0.086 HD
ENDROOT
BRANCH   1  17
ATOM     15  C   UNL     1      -0.208   1.692  -0.135  0.00  0.00    +0.090 C 
ATOM     16  C   UNL     1      -0.189   0.197   0.057  0.00  0.00    +0.147 A 
ATOM     17  C   UNL     1      -1.233  -0.567   0.489  0.00  0.00    +0.106 A 
ATOM     18  C   UNL     1      -0.755  -1.958   0.523  0.00  0.00    +0.128 A 
ATOM     19  N   UNL     1       0.492  -1.941   0.126  0.00  0.00    -0.077 NA
ATOM     20  O   UNL     1       0.853  -0.607  -0.172  0.00  0.00    -0.359 OA
BRANCH  18  21
ATOM     21  C   UNL     1      -1.538  -3.150   0.929  0.00  0.00    +0.041 A 
ATOM     22  C   UNL     1      -2.704  -3.489   0.243  0.00  0.00    +0.052 A 
ATOM     23  C   UNL     1      -3.428  -4.602   0.626  0.00  0.00    +0.021 A 
ATOM     24  C   UNL     1      -2.998  -5.379   1.687  0.00  0.00    +0.003 A 
ATOM     25  C   UNL     1      -1.843  -5.048   2.370  0.00  0.00    +0.021 A 
ATOM     26  C   UNL     1      -1.107  -3.941   1.994  0.00  0.00    +0.052 A 
ATOM     27 CL   UNL     1       0.348  -3.532   2.849  0.00  0.00    -0.083 Cl
ATOM     28 CL   UNL     1      -3.246  -2.514  -1.087  0.00  0.00    -0.083 Cl
ENDBRANCH  18  21
ENDBRANCH   1  17
BRANCH   5  29
ATOM     29  C   UNL     1      -1.249   2.117   4.081  0.00  0.00    +0.218 C 
ATOM     30  O   UNL     1      -0.771   2.302   2.982  0.00  0.00    -0.275 OA
ATOM     31  N   UNL     1      -0.831   2.852   5.130  0.00  0.00    -0.312 N 
ATOM     32  H   UNL     1      -1.213   2.704   6.009  0.00  0.00    +0.149 HD
BRANCH  31  33
ATOM     33  C   UNL     1       0.202   3.874   4.943  0.00  0.00    +0.075 C 
ATOM     34  C   UNL     1      -0.449   5.178   4.478  0.00  0.00    +0.028 C 
BRANCH  33  35
ATOM     35  C   UNL     1       0.930   4.112   6.268  0.00  0.00    -0.020 C 
ATOM     36  C   UNL     1       1.581   2.808   6.733  0.00  0.00    +0.012 C 
ATOM     37  C   UNL     1       2.008   5.180   6.073  0.00  0.00    +0.012 C 
ATOM     38  C   UNL     1      -0.072   4.586   7.322  0.00  0.00    +0.012 C 
ENDBRANCH  33  35
ENDBRANCH  31  33
ENDBRANCH   5  29
TORSDOF 5
