REMARK  Name = ZINC09514047
REMARK  8 active torsions:
REMARK  status: ('A' for Active; 'I' for Inactive)
REMARK    1  A    between atoms: C_4  and  C_7
REMARK    2  A    between atoms: C_8  and  S_9
REMARK    3  A    between atoms: S_9  and  N_12
REMARK    4  A    between atoms: C_18  and  C_20
REMARK    5  A    between atoms: C_20  and  S_21
REMARK    6  A    between atoms: S_21  and  C_22
REMARK    7  A    between atoms: N_26  and  C_27
REMARK    8  A    between atoms: C_27  and  C_28
REMARK                            x       y       z     vdW  Elec       q    Type
REMARK                         _______ _______ _______ _____ _____    ______ ____
ROOT
ATOM      1  N   UNL     1      -0.654   2.231   1.467  0.00  0.00    -0.174 NA
ATOM      2  C   UNL     1      -2.101   2.437   1.622  0.00  0.00    +0.128 C 
ATOM      3  C   UNL     1      -2.594   1.564   2.788  0.00  0.00    +0.125 C 
ATOM      4  N   UNL     1      -1.718   1.790   3.946  0.00  0.00    -0.298 N 
ATOM      5  C   UNL     1      -0.271   1.589   3.790  0.00  0.00    +0.125 C 
ATOM      6  C   UNL     1       0.221   2.458   2.625  0.00  0.00    +0.128 C 
ATOM      7  C   UNL     1      -2.233   2.175   5.131  0.00  0.00    +0.226 C 
ATOM      8  O   UNL     1      -1.500   2.359   6.079  0.00  0.00    -0.275 OA
ENDROOT
BRANCH   1   9
ATOM      9  S   UNL     1      -0.022   1.758   0.012  0.00  0.00    +0.054 S 
ATOM     10  O   UNL     1       1.334   2.182   0.001  0.00  0.00    -0.153 OA
ATOM     11  O   UNL     1      -0.953   2.157  -0.985  0.00  0.00    -0.153 OA
BRANCH   9  13
ATOM     12  C   UNL     1      -0.752  -0.672  -0.859  0.00  0.00    +0.028 C 
ATOM     13  C   UNL     1       0.002  -0.004   0.002  0.00  0.00    +0.153 C 
BRANCH  12  17
ATOM     14  C   UNL     1      -0.695  -4.919  -0.883  0.00  0.00    +0.000 A 
ATOM     15  C   UNL     1      -1.502  -4.237  -1.775  0.00  0.00    +0.001 A 
ATOM     16  C   UNL     1      -1.525  -2.857  -1.772  0.00  0.00    +0.008 A 
ATOM     17  C   UNL     1      -0.732  -2.150  -0.867  0.00  0.00    -0.024 A 
ATOM     18  C   UNL     1       0.084  -2.845   0.026  0.00  0.00    +0.008 A 
ATOM     19  C   UNL     1       0.094  -4.225   0.018  0.00  0.00    +0.001 A 
ENDBRANCH  12  17
ENDBRANCH   9  13
ENDBRANCH   1   9
BRANCH   7  20
ATOM     20  C   UNL     1      -3.720   2.378   5.276  0.00  0.00    +0.173 C 
BRANCH  20  21
ATOM     21  S   UNL     1      -4.096   2.889   6.971  0.00  0.00    -0.075 S 
BRANCH  21  22
ATOM     22  C   UNL     1      -5.847   3.050   6.861  0.00  0.00    +0.210 A 
ATOM     23  N   UNL     1      -6.585   2.839   5.793  0.00  0.00    -0.102 NA
ATOM     24  N   UNL     1      -7.826   3.042   6.056  0.00  0.00    -0.022 NA
ATOM     25  N   UNL     1      -7.970   3.399   7.286  0.00  0.00    -0.043 NA
ATOM     26  N   UNL     1      -6.685   3.418   7.858  0.00  0.00    -0.218 N 
BRANCH  26  27
ATOM     27  C   UNL     1      -6.330   3.763   9.237  0.00  0.00    +0.179 C 
BRANCH  27  28
ATOM     28  C   UNL     1      -6.057   5.265   9.332  0.00  0.00    +0.140 C 
ATOM     29  C   UNL     1      -5.768   5.667  10.801  0.00  0.00    +0.035 C 
ATOM     30  C   UNL     1      -4.923   6.954  10.592  0.00  0.00    +0.031 C 
ATOM     31  C   UNL     1      -4.146   6.632   9.297  0.00  0.00    +0.160 C 
ATOM     32  O   UNL     1      -4.863   5.602   8.607  0.00  0.00    -0.375 OA
ENDBRANCH  27  28
ENDBRANCH  26  27
ENDBRANCH  21  22
ENDBRANCH  20  21
ENDBRANCH   7  20
TORSDOF 8
