REMARK  Name = ZINC02921411
REMARK  5 active torsions:
REMARK  status: ('A' for Active; 'I' for Inactive)
REMARK    1  A    between atoms: C_5  and  C_7
REMARK    2  A    between atoms: C_8  and  C_21
REMARK    3  A    between atoms: C_10  and  C_13
REMARK    4  A    between atoms: C_16  and  O_20
REMARK    5  A    between atoms: C_17  and  O_19
REMARK                            x       y       z     vdW  Elec       q    Type
REMARK                         _______ _______ _______ _____ _____    ______ ____
ROOT
ATOM      1  C   UNL     1       2.451   3.886   0.036  0.00  0.00    +0.075 A 
ATOM      2  C   UNL     1       2.849   4.838   0.958  0.00  0.00    +0.097 A 
ATOM      3  N   UNL     1       4.017   5.352   0.538  0.00  0.00    -0.227 NA
ATOM      4  C   UNL     1       4.366   4.784  -0.594  0.00  0.00    +0.139 A 
ATOM      5  N   UNL     1       3.419   3.864  -0.943  0.00  0.00    -0.337 N 
ATOM      6  H   UNL     1       3.427   3.284  -1.757  0.00  0.00    +0.167 HD
ENDROOT
BRANCH   1  11
ATOM      7  C   UNL     1       0.173   0.915   0.313  0.00  0.00    +0.001 A 
ATOM      8  C   UNL     1      -1.067   1.514   0.182  0.00  0.00    +0.001 A 
ATOM      9  C   UNL     1      -1.168   2.883   0.012  0.00  0.00    +0.016 A 
ATOM     10  C   UNL     1      -0.028   3.661  -0.038  0.00  0.00    +0.027 A 
ATOM     11  C   UNL     1       1.228   3.062   0.088  0.00  0.00    +0.014 A 
ATOM     12  C   UNL     1       1.321   1.679   0.264  0.00  0.00    +0.011 A 
ATOM     13 BR   UNL     1      -0.167   5.531  -0.278  0.00  0.00    -0.050 Br
ENDBRANCH   1  11
BRANCH   2  14
ATOM     14  C   UNL     1       2.119   5.220   2.190  0.00  0.00    +0.003 A 
ATOM     15  C   UNL     1       2.032   6.561   2.564  0.00  0.00    +0.011 A 
ATOM     16  C   UNL     1       1.347   6.911   3.709  0.00  0.00    +0.016 A 
ATOM     17  C   UNL     1       0.756   5.934   4.491  0.00  0.00    +0.018 A 
ATOM     18  C   UNL     1       0.844   4.602   4.127  0.00  0.00    +0.016 A 
ATOM     19  C   UNL     1       1.522   4.240   2.982  0.00  0.00    +0.011 A 
ATOM     20 BR   UNL     1      -0.175   6.422   6.064  0.00  0.00    -0.050 Br
ENDBRANCH   2  14
BRANCH   4  21
ATOM     21  C   UNL     1       5.588   5.091  -1.366  0.00  0.00    +0.021 A 
ATOM     22  C   UNL     1       5.849   4.416  -2.560  0.00  0.00    +0.015 A 
ATOM     23  C   UNL     1       6.989   4.705  -3.279  0.00  0.00    +0.050 A 
ATOM     24  C   UNL     1       7.880   5.664  -2.819  0.00  0.00    +0.158 A 
ATOM     25  C   UNL     1       7.625   6.340  -1.629  0.00  0.00    +0.159 A 
ATOM     26  C   UNL     1       6.481   6.061  -0.905  0.00  0.00    +0.060 A 
BRANCH  25  27
ATOM     27  O   UNL     1       8.500   7.280  -1.180  0.00  0.00    -0.503 OA
ATOM     28  H   UNL     1       8.314   8.174  -1.498  0.00  0.00    +0.292 HD
ENDBRANCH  25  27
BRANCH  24  29
ATOM     29  O   UNL     1       9.003   5.944  -3.532  0.00  0.00    -0.503 OA
ATOM     30  H   UNL     1       8.888   6.648  -4.186  0.00  0.00    +0.292 HD
ENDBRANCH  24  29
ENDBRANCH   4  21
TORSDOF 5
