REMARK  Name = ZINC12054047
REMARK  7 active torsions:
REMARK  status: ('A' for Active; 'I' for Inactive)
REMARK    1  A    between atoms: C_1  and  N_2
REMARK    2  A    between atoms: N_2  and  C_3
REMARK    3  A    between atoms: C_3  and  C_4
REMARK    4  A    between atoms: C_15  and  C_17
REMARK    5  A    between atoms: C_17  and  C_18
REMARK    6  A    between atoms: C_18  and  N_61
REMARK    7  A    between atoms: C_27  and  C_30
REMARK                            x       y       z     vdW  Elec       q    Type
REMARK                         _______ _______ _______ _____ _____    ______ ____
ROOT
ATOM      1  C   UNL     1       0.053   1.654   2.426  0.00  0.00    -0.039 C 
ATOM      2  C   UNL     1      -0.223   2.696   3.492  0.00  0.00    -0.022 A 
ATOM      3  C   UNL     1       0.776   3.561   3.892  0.00  0.00    +0.005 A 
ATOM      4  C   UNL     1       0.517   4.495   4.879  0.00  0.00    +0.000 A 
ATOM      5  C   UNL     1      -0.735   4.560   5.463  0.00  0.00    +0.004 A 
ATOM      6  C   UNL     1      -1.736   3.699   5.057  0.00  0.00    +0.046 A 
ATOM      7  C   UNL     1      -1.480   2.768   4.060  0.00  0.00    +0.123 A 
ATOM      8  O   UNL     1      -2.473   1.950   3.617  0.00  0.00    -0.486 OA
ATOM      9  C   UNL     1      -2.943   2.217   2.290  0.00  0.00    +0.190 C 
ATOM     10  C   UNL     1      -2.082   1.511   1.264  0.00  0.00    -0.028 C 
ATOM     11  N   UNL     1      -0.701   2.038   1.209  0.00  0.00    +0.385 N 
ATOM     12  H   UNL     1      -0.741   3.063   1.157  0.00  0.00    -0.081 HD
ENDROOT
BRANCH   9  13
ATOM     13  C   UNL     1      -4.365   1.735   2.160  0.00  0.00    +0.026 A 
ATOM     14  C   UNL     1      -4.829   0.722   2.977  0.00  0.00    +0.010 A 
ATOM     15  C   UNL     1      -6.135   0.284   2.862  0.00  0.00    +0.001 A 
ATOM     16  C   UNL     1      -6.975   0.851   1.922  0.00  0.00    +0.003 A 
ATOM     17  C   UNL     1      -6.511   1.860   1.099  0.00  0.00    +0.039 A 
ATOM     18  C   UNL     1      -5.205   2.304   1.218  0.00  0.00    +0.130 A 
ATOM     19  F   UNL     1      -4.750   3.290   0.414  0.00  0.00    -0.205 F 
ENDBRANCH   9  13
BRANCH  11  20
ATOM     20  C   UNL     1      -0.019   1.526   0.010  0.00  0.00    -0.069 C 
BRANCH  20  21
ATOM     21  C   UNL     1       0.002  -0.004   0.002  0.00  0.00    +0.077 C 
BRANCH  21  24
ATOM     22  C   UNL     1       0.312  -2.777  -0.495  0.00  0.00    +0.132 C 
ATOM     23  N   UNL     1       0.847  -1.812  -1.460  0.00  0.00    -0.297 N 
ATOM     24  C   UNL     1       0.707  -0.490  -1.238  0.00  0.00    +0.214 C 
ATOM     25  O   UNL     1       1.150   0.308  -2.036  0.00  0.00    -0.276 OA
BRANCH  23  26
ATOM     26  C   UNL     1       1.532  -2.285  -2.665  0.00  0.00    +0.181 C 
BRANCH  26  27
ATOM     27  C   UNL     1       3.004  -2.434  -2.380  0.00  0.00    +0.126 A 
ATOM     28  N   UNL     1       3.613  -3.592  -2.006  0.00  0.00    -0.340 N 
ATOM     29  H   UNL     1       3.170  -4.479  -1.876  0.00  0.00    +0.167 HD
ATOM     30  C   UNL     1       4.955  -3.317  -1.842  0.00  0.00    +0.069 A 
ATOM     31  C   UNL     1       6.060  -4.075  -1.478  0.00  0.00    +0.066 A 
ATOM     32  C   UNL     1       7.303  -3.479  -1.404  0.00  0.00    +0.125 A 
ATOM     33  C   UNL     1       7.454  -2.128  -1.693  0.00  0.00    +0.040 A 
ATOM     34  C   UNL     1       6.377  -1.369  -2.052  0.00  0.00    +0.032 A 
ATOM     35  C   UNL     1       5.110  -1.951  -2.133  0.00  0.00    +0.089 A 
ATOM     36  N   UNL     1       3.880  -1.475  -2.459  0.00  0.00    -0.231 NA
ATOM     37  F   UNL     1       8.380  -4.214  -1.049  0.00  0.00    -0.205 F 
ENDBRANCH  26  27
ENDBRANCH  23  26
ENDBRANCH  21  24
ENDBRANCH  20  21
ENDBRANCH  11  20
TORSDOF 6
