REMARK  Name = ZINC59165566
REMARK  7 active torsions:
REMARK  status: ('A' for Active; 'I' for Inactive)
REMARK    1  A    between atoms: C_1  and  C_2
REMARK    2  A    between atoms: C_4  and  C_26
REMARK    3  A    between atoms: N_9  and  N_10
REMARK    4  A    between atoms: C_11  and  C_13
REMARK    5  A    between atoms: C_13  and  S_14
REMARK    6  A    between atoms: S_14  and  C_15
REMARK    7  A    between atoms: C_15  and  C_16
REMARK                            x       y       z     vdW  Elec       q    Type
REMARK                         _______ _______ _______ _____ _____    ______ ____
ROOT
ATOM      1  C   UNL     1       1.040   1.409   0.030  0.00  0.00    +0.044 C 
ATOM      2  C   UNL     1       0.754  -0.070   0.016  0.00  0.00    -0.049 A 
ATOM      3  C   UNL     1       0.673  -0.748  -1.189  0.00  0.00    +0.008 A 
ATOM      4  C   UNL     1       0.412  -2.103  -1.218  0.00  0.00    -0.028 A 
ATOM      5  C   UNL     1       0.227  -2.803  -0.031  0.00  0.00    +0.046 A 
ATOM      6  C   UNL     1       0.310  -2.114   1.186  0.00  0.00    +0.029 A 
ATOM      7  C   UNL     1       0.580  -0.750   1.205  0.00  0.00    +0.015 A 
ATOM      8  C   UNL     1       0.072  -3.116   2.251  0.00  0.00    +0.153 C 
ATOM      9  N   UNL     1       0.058  -2.916   3.547  0.00  0.00    -0.175 NA
ATOM     10  C   UNL     1      -0.145  -4.390   1.535  0.00  0.00    +0.269 C 
ATOM     11  O   UNL     1      -0.375  -5.469   2.047  0.00  0.00    -0.268 OA
ATOM     12  N   UNL     1      -0.043  -4.145   0.218  0.00  0.00    -0.279 N 
ATOM     13  C   UNL     1       0.326  -2.824  -2.538  0.00  0.00    +0.046 C 
ATOM     14  H   UNL     1      -0.145  -4.818  -0.473  0.00  0.00    +0.155 HD
ENDROOT
BRANCH   9  15
ATOM     15  N   UNL     1       0.148  -1.614   4.055  0.00  0.00    -0.206 N 
ATOM     16  C   UNL     1       0.253  -1.415   5.384  0.00  0.00    +0.242 C 
ATOM     17  O   UNL     1       0.270  -2.363   6.139  0.00  0.00    -0.273 OA
ATOM     18  H   UNL     1       0.135  -0.855   3.451  0.00  0.00    +0.177 HD
BRANCH  16  19
ATOM     19  C   UNL     1       0.351  -0.014   5.931  0.00  0.00    +0.166 C 
BRANCH  19  20
ATOM     20  S   UNL     1       0.480  -0.079   7.739  0.00  0.00    -0.147 S 
BRANCH  20  21
ATOM     21  C   UNL     1       0.588   1.663   8.234  0.00  0.00    +0.106 C 
BRANCH  21  22
ATOM     22  C   UNL     1       0.701   1.753   9.734  0.00  0.00    -0.019 A 
ATOM     23  C   UNL     1      -0.441   1.837  10.510  0.00  0.00    +0.006 A 
ATOM     24  C   UNL     1      -0.337   1.920  11.886  0.00  0.00    +0.000 A 
ATOM     25  C   UNL     1       0.908   1.918  12.487  0.00  0.00    +0.001 A 
ATOM     26  C   UNL     1       2.050   1.833  11.713  0.00  0.00    +0.020 A 
ATOM     27  C   UNL     1       1.946   1.745  10.336  0.00  0.00    +0.045 A 
ATOM     28 CL   UNL     1       3.380   1.633   9.363  0.00  0.00    -0.083 Cl
ENDBRANCH  21  22
ENDBRANCH  20  21
ENDBRANCH  19  20
ENDBRANCH  16  19
ENDBRANCH   9  15
TORSDOF 5
