REMARK  Name = ZINC67294396
REMARK  5 active torsions:
REMARK  status: ('A' for Active; 'I' for Inactive)
REMARK    1  A    between atoms: C_1  and  C_2
REMARK    2  A    between atoms: C_9  and  C_11
REMARK    3  A    between atoms: C_16  and  O_30
REMARK    4  A    between atoms: N_21  and  C_22
REMARK    5  A    between atoms: C_27  and  C_28
REMARK                            x       y       z     vdW  Elec       q    Type
REMARK                         _______ _______ _______ _____ _____    ______ ____
ROOT
ATOM      1  C   UNL     1       0.070  -6.433  -0.981  0.00  0.00    +0.098 A 
ATOM      2  C   UNL     1       0.400  -7.184  -2.101  0.00  0.00    +0.030 A 
ATOM      3  C   UNL     1       0.655  -8.568  -1.928  0.00  0.00    +0.018 A 
ATOM      4  C   UNL     1       1.185  -9.329  -2.981  0.00  0.00    +0.015 A 
ATOM      5  C   UNL     1       1.466 -10.649  -2.791  0.00  0.00    +0.046 A 
ATOM      6  C   UNL     1       1.223 -11.254  -1.559  0.00  0.00    +0.120 A 
ATOM      7  C   UNL     1       0.682 -10.523  -0.512  0.00  0.00    +0.092 A 
ATOM      8  C   UNL     1       0.383  -9.182  -0.690  0.00  0.00    +0.141 A 
ATOM      9  O   UNL     1      -0.187  -8.469   0.312  0.00  0.00    -0.438 OA
ATOM     10  C   UNL     1       0.048  -7.129   0.320  0.00  0.00    +0.212 A 
ATOM     11  N   UNL     1       0.244  -6.476   1.445  0.00  0.00    -0.325 N 
ATOM     12  H   UNL     1       0.525  -5.548   1.424  0.00  0.00    +0.169 HD
ENDROOT
BRANCH   1  21
ATOM     13  C   UNL     1      -2.041   1.120  -0.359  0.00  0.00    +0.045 C 
ATOM     14  C   UNL     1      -1.657  -0.336  -0.297  0.00  0.00    -0.032 A 
ATOM     15  C   UNL     1      -0.824  -0.884  -1.263  0.00  0.00    +0.008 A 
ATOM     16  C   UNL     1      -0.496  -2.225  -1.169  0.00  0.00    +0.044 A 
ATOM     17  C   UNL     1      -1.008  -2.974  -0.115  0.00  0.00    +0.125 A 
ATOM     18  N   UNL     1      -1.799  -2.415   0.787  0.00  0.00    -0.240 NA
ATOM     19  C   UNL     1      -2.125  -1.138   0.725  0.00  0.00    +0.116 A 
ATOM     20  N   UNL     1      -0.686  -4.325  -0.008  0.00  0.00    -0.266 N 
ATOM     21  C   UNL     1      -0.239  -4.998  -1.086  0.00  0.00    +0.254 C 
ATOM     22  O   UNL     1      -0.092  -4.421  -2.147  0.00  0.00    -0.270 OA
ATOM     23  H   UNL     1      -0.783  -4.781   0.843  0.00  0.00    +0.157 HD
ENDBRANCH   1  21
BRANCH  11  24
ATOM     24  C   UNL     1       0.052  -7.106   2.644  0.00  0.00    +0.045 A 
ATOM     25  C   UNL     1      -1.130  -7.812   2.884  0.00  0.00    +0.027 A 
ATOM     26  C   UNL     1      -1.317  -8.445   4.095  0.00  0.00    +0.022 A 
ATOM     27  C   UNL     1      -0.337  -8.382   5.072  0.00  0.00    +0.041 A 
ATOM     28  C   UNL     1       0.836  -7.683   4.840  0.00  0.00    +0.025 A 
ATOM     29  C   UNL     1       1.038  -7.051   3.631  0.00  0.00    -0.026 A 
ATOM     30  C   UNL     1       2.318  -6.296   3.379  0.00  0.00    +0.046 C 
ATOM     31 CL   UNL     1      -0.581  -9.181   6.593  0.00  0.00    -0.084 Cl
ENDBRANCH  11  24
BRANCH   6  32
ATOM     32  O   UNL     1       1.519 -12.566  -1.382  0.00  0.00    -0.507 OA
ATOM     33  H   UNL     1       2.417 -12.728  -1.063  0.00  0.00    +0.292 HD
ENDBRANCH   6  32
TORSDOF 3
