REMARK  Name = ZINC13148864
REMARK  10 active torsions:
REMARK  status: ('A' for Active; 'I' for Inactive)
REMARK    1  A    between atoms: C_1  and  C_2
REMARK    2  A    between atoms: C_2  and  O_3
REMARK    3  A    between atoms: O_3  and  C_4
REMARK    4  A    between atoms: C_4  and  C_6
REMARK    5  A    between atoms: C_8  and  C_31
REMARK    6  A    between atoms: C_10  and  N_11
REMARK    7  A    between atoms: C_12  and  C_14
REMARK    8  A    between atoms: C_14  and  N_15
REMARK    9  A    between atoms: C_31  and  C_32
REMARK   10  A    between atoms: C_31  and  C_33
REMARK                            x       y       z     vdW  Elec       q    Type
REMARK                         _______ _______ _______ _____ _____    ______ ____
ROOT
ATOM      1  C   UNL     1       6.188   3.959  -0.035  0.00  0.00    +0.214 C 
ENDROOT
BRANCH   1   2
ATOM      2  N   UNL     1       7.161   5.054  -0.038  0.00  0.00    -0.215 N 
ATOM      3  C   UNL     1       7.658   5.623  -1.156  0.00  0.00    +0.252 C 
ATOM      4  O   UNL     1       7.396   5.336  -2.305  0.00  0.00    -0.272 OA
ATOM      5  C   UNL     1       8.608   6.694  -0.675  0.00  0.00    +0.144 C 
ATOM      6  C   UNL     1       8.145   8.071  -1.140  0.00  0.00    +0.081 C 
ATOM      7  C   UNL     1       8.470   8.211  -2.634  0.00  0.00    +0.232 C 
ATOM      8  O   UNL     1       9.889   8.159  -2.794  0.00  0.00    -0.492 OA
ATOM      9  C   UNL     1      10.565   7.148  -2.191  0.00  0.00    +0.126 A 
ATOM     10  C   UNL     1      10.002   6.410  -1.162  0.00  0.00    +0.027 A 
ATOM     11  C   UNL     1      10.729   5.392  -0.568  0.00  0.00    +0.010 A 
ATOM     12  C   UNL     1      12.009   5.106  -0.999  0.00  0.00    +0.001 A 
ATOM     13  C   UNL     1      12.572   5.837  -2.029  0.00  0.00    +0.004 A 
ATOM     14  C   UNL     1      11.853   6.855  -2.624  0.00  0.00    +0.046 A 
ATOM     15  N   UNL     1       8.544   6.597   0.789  0.00  0.00    -0.281 N 
ATOM     16  C   UNL     1       7.671   5.610   1.067  0.00  0.00    +0.310 C 
ATOM     17  O   UNL     1       7.380   5.264   2.195  0.00  0.00    -0.252 OA
ATOM     18  H   UNL     1       9.034   7.138   1.429  0.00  0.00    +0.152 HD
ENDBRANCH   1   2
BRANCH   1  20
ATOM     19  N   UNL     1       3.728   3.700  -0.013  0.00  0.00    -0.278 N 
ATOM     20  C   UNL     1       4.792   4.527  -0.019  0.00  0.00    +0.236 C 
ATOM     21  O   UNL     1       4.627   5.729  -0.011  0.00  0.00    -0.274 OA
ATOM     22  H   UNL     1       3.860   2.740  -0.019  0.00  0.00    +0.155 HD
BRANCH  19  27
ATOM     23  C   UNL     1       1.232   3.540   0.009  0.00  0.00    +0.088 A 
ATOM     24  C   UNL     1       0.034   4.345   0.019  0.00  0.00    +0.028 A 
ATOM     25  C   UNL     1       0.191   5.680   0.030  0.00  0.00    -0.005 A 
ATOM     26  S   UNL     1       1.960   5.886   0.014  0.00  0.00    -0.077 S 
ATOM     27  C   UNL     1       2.444   4.223   0.001  0.00  0.00    +0.086 A 
BRANCH  25  28
ATOM     28  C   UNL     1      -0.874   6.746   0.044  0.00  0.00    +0.020 C 
ATOM     29  C   UNL     1      -0.713   7.611   1.296  0.00  0.00    +0.013 C 
ATOM     30  C   UNL     1      -0.735   7.623  -1.202  0.00  0.00    +0.013 C 
ENDBRANCH  25  28
BRANCH  23  31
ATOM     31  C   UNL     1       1.176   2.076   0.002  0.00  0.00    +0.342 C 
ATOM     32  O   UNL     1       2.205   1.428  -0.011  0.00  0.00    -0.245 OA
BRANCH  31  33
ATOM     33  O   UNL     1      -0.018   1.448   0.010  0.00  0.00    -0.461 OA
BRANCH  33  35
ATOM     34  C   UNL     1      -1.433  -0.534   0.013  0.00  0.00    +0.048 C 
ATOM     35  C   UNL     1       0.002  -0.004   0.002  0.00  0.00    +0.229 C 
ENDBRANCH  33  35
ENDBRANCH  31  33
ENDBRANCH  23  31
ENDBRANCH  19  27
ENDBRANCH   1  20
TORSDOF 7
