REMARK  Name = ZINC66763293
REMARK  5 active torsions:
REMARK  status: ('A' for Active; 'I' for Inactive)
REMARK    1  A    between atoms: C_1  and  N_2
REMARK    2  A    between atoms: N_2  and  C_3
REMARK    3  A    between atoms: N_2  and  C_20
REMARK    4  A    between atoms: C_3  and  C_4
REMARK    5  A    between atoms: C_10  and  C_14
REMARK                            x       y       z     vdW  Elec       q    Type
REMARK                         _______ _______ _______ _____ _____    ______ ____
ROOT
ATOM      1  C   UNL     1      -2.442   3.213  -0.695  0.00  0.00    +0.233 C 
ATOM      2  O   UNL     1      -1.519   3.962  -0.453  0.00  0.00    -0.274 OA
ATOM      3  N   UNL     1      -3.712   3.648  -0.576  0.00  0.00    -0.300 N 
ATOM      4  C   UNL     1      -4.812   2.709  -0.872  0.00  0.00    +0.108 C 
ATOM      5  C   UNL     1      -5.940   3.374  -1.682  0.00  0.00    +0.020 C 
ATOM      6  C   UNL     1      -5.356   4.282  -2.736  0.00  0.00    +0.010 C 
ATOM      7  C   UNL     1      -5.226   5.694  -2.171  0.00  0.00    +0.021 C 
ATOM      8  C   UNL     1      -3.990   5.932  -1.411  0.00  0.00    +0.027 C 
ATOM      9  C   UNL     1      -3.941   5.013  -0.159  0.00  0.00    +0.108 C 
ENDROOT
BRANCH   7  10
ATOM     10  C   UNL     1      -5.277   6.673  -3.316  0.00  0.00    -0.044 A 
ATOM     11  C   UNL     1      -4.332   6.608  -4.323  0.00  0.00    +0.004 A 
ATOM     12  C   UNL     1      -4.378   7.506  -5.373  0.00  0.00    +0.000 A 
ATOM     13  C   UNL     1      -5.369   8.469  -5.416  0.00  0.00    +0.000 A 
ATOM     14  C   UNL     1      -6.314   8.534  -4.409  0.00  0.00    +0.000 A 
ATOM     15  C   UNL     1      -6.270   7.633  -3.361  0.00  0.00    +0.004 A 
ENDBRANCH   7  10
BRANCH   1  16
ATOM     16  C   UNL     1      -2.168   1.795  -1.128  0.00  0.00    +0.202 C 
BRANCH  16  18
ATOM     17  C   UNL     1      -0.013   1.086   0.008  0.00  0.00    +0.131 C 
ATOM     18  N   UNL     1      -0.721   1.571  -1.179  0.00  0.00    -0.308 N 
BRANCH  18  19
ATOM     19  C   UNL     1      -0.024   1.818  -2.349  0.00  0.00    +0.152 A 
ATOM     20  C   UNL     1       1.364   1.608  -2.416  0.00  0.00    +0.147 A 
ATOM     21  C   UNL     1       2.017   1.876  -3.631  0.00  0.00    +0.163 A 
ATOM     22  N   UNL     1       3.342   1.590  -3.419  0.00  0.00    -0.329 N 
ATOM     23  C   UNL     1       3.468   1.170  -2.128  0.00  0.00    +0.198 A 
ATOM     24  N   UNL     1       2.307   1.181  -1.542  0.00  0.00    -0.231 NA
ATOM     25  H   UNL     1       4.058   1.672  -4.068  0.00  0.00    +0.168 HD
ATOM     26  N   UNL     1       1.305   2.313  -4.664  0.00  0.00    -0.216 NA
ATOM     27  C   UNL     1       0.006   2.495  -4.555  0.00  0.00    +0.225 A 
ATOM     28  N   UNL     1      -0.652   2.253  -3.436  0.00  0.00    -0.218 NA
ENDBRANCH  18  19
ENDBRANCH  16  18
ENDBRANCH   1  16
TORSDOF 4
