REMARK  Name = ZINC35544387
REMARK  8 active torsions:
REMARK  status: ('A' for Active; 'I' for Inactive)
REMARK    1  A    between atoms: C_1  and  O_2
REMARK    2  A    between atoms: O_2  and  C_3
REMARK    3  A    between atoms: C_8  and  C_9
REMARK    4  A    between atoms: C_9  and  C_10
REMARK    5  A    between atoms: C_10  and  N_11
REMARK    6  A    between atoms: C_12  and  C_14
REMARK    7  A    between atoms: N_27  and  C_30
REMARK    8  A    between atoms: C_30  and  C_31
REMARK                            x       y       z     vdW  Elec       q    Type
REMARK                         _______ _______ _______ _____ _____    ______ ____
ROOT
ATOM      1  C   UNL     1       3.676  -4.871   2.543  0.00  0.00    +0.098 C 
ATOM      2  C   UNL     1       4.683  -4.159   1.664  0.00  0.00    +0.051 C 
ATOM      3  C   UNL     1       5.298  -2.977   2.354  0.00  0.00    -0.026 A 
ATOM      4  C   UNL     1       5.731  -1.895   1.610  0.00  0.00    +0.005 A 
ATOM      5  C   UNL     1       6.302  -0.804   2.236  0.00  0.00    +0.000 A 
ATOM      6  C   UNL     1       6.443  -0.789   3.612  0.00  0.00    +0.002 A 
ATOM      7  C   UNL     1       6.012  -1.865   4.362  0.00  0.00    +0.023 A 
ATOM      8  C   UNL     1       5.435  -2.964   3.734  0.00  0.00    +0.033 A 
ATOM      9  N   UNL     1       4.993  -4.041   4.492  0.00  0.00    -0.329 N 
ATOM     10  C   UNL     1       4.126  -5.080   3.963  0.00  0.00    +0.069 C 
ATOM     11  C   UNL     1       4.802  -6.436   4.164  0.00  0.00    -0.055 C 
ATOM     12  N   UNL     1       5.133  -6.599   5.587  0.00  0.00    +0.385 N 
ATOM     13  C   UNL     1       6.089  -5.572   6.014  0.00  0.00    -0.059 C 
ATOM     14  C   UNL     1       5.446  -4.189   5.890  0.00  0.00    +0.087 C 
ATOM     15  H   UNL     1       4.290  -6.518   6.136  0.00  0.00    -0.081 HD
ENDROOT
BRANCH   1  17
ATOM     16  N   UNL     1       1.768  -3.786   1.403  0.00  0.00    -0.315 N 
ATOM     17  C   UNL     1       2.402  -4.066   2.559  0.00  0.00    +0.218 C 
ATOM     18  O   UNL     1       1.948  -3.670   3.611  0.00  0.00    -0.275 OA
ATOM     19  H   UNL     1       2.131  -4.102   0.561  0.00  0.00    +0.149 HD
BRANCH  16  20
ATOM     20  C   UNL     1       0.530  -3.003   1.419  0.00  0.00    +0.109 C 
BRANCH  20  21
ATOM     21  C   UNL     1       0.018  -2.829  -0.013  0.00  0.00    +0.057 C 
BRANCH  21  27
ATOM     22  C   UNL     1      -1.200  -0.637   0.010  0.00  0.00    +0.123 A 
ATOM     23  C   UNL     1      -2.375   0.101   0.019  0.00  0.00    +0.046 A 
ATOM     24  C   UNL     1      -3.596  -0.545   0.027  0.00  0.00    +0.004 A 
ATOM     25  C   UNL     1      -3.648  -1.927   0.026  0.00  0.00    +0.000 A 
ATOM     26  C   UNL     1      -2.479  -2.665   0.017  0.00  0.00    +0.007 A 
ATOM     27  C   UNL     1      -1.255  -2.023   0.003  0.00  0.00    -0.004 A 
BRANCH  22  29
ATOM     28  C   UNL     1      -0.017   1.425   0.010  0.00  0.00    +0.277 C 
ATOM     29  O   UNL     1       0.002  -0.004   0.002  0.00  0.00    -0.495 OA
ENDBRANCH  22  29
ENDBRANCH  21  27
ENDBRANCH  20  21
ENDBRANCH  16  20
ENDBRANCH   1  17
BRANCH  12  30
ATOM     30  C   UNL     1       5.722  -7.928   5.799  0.00  0.00    -0.043 C 
BRANCH  30  31
ATOM     31  C   UNL     1       5.949  -8.147   7.273  0.00  0.00    -0.064 A 
ATOM     32  C   UNL     1       7.148  -7.772   7.850  0.00  0.00    +0.004 A 
ATOM     33  C   UNL     1       7.358  -7.972   9.201  0.00  0.00    +0.038 A 
ATOM     34  C   UNL     1       6.366  -8.548   9.977  0.00  0.00    +0.123 A 
ATOM     35  C   UNL     1       5.166  -8.924   9.398  0.00  0.00    +0.038 A 
ATOM     36  C   UNL     1       4.957  -8.718   8.047  0.00  0.00    +0.004 A 
ATOM     37  F   UNL     1       6.570  -8.745  11.298  0.00  0.00    -0.205 F 
ENDBRANCH  30  31
ENDBRANCH  12  30
TORSDOF 7
