REMARK  Name = ZINC43291048
REMARK  8 active torsions:
REMARK  status: ('A' for Active; 'I' for Inactive)
REMARK    1  A    between atoms: C_1  and  C_2
REMARK    2  A    between atoms: C_2  and  C_3
REMARK    3  A    between atoms: C_3  and  C_5
REMARK    4  A    between atoms: C_3  and  N_20
REMARK    5  A    between atoms: C_5  and  C_7
REMARK    6  A    between atoms: C_5  and  S_13
REMARK    7  A    between atoms: S_13  and  C_14
REMARK    8  A    between atoms: C_17  and  C_19
REMARK                            x       y       z     vdW  Elec       q    Type
REMARK                         _______ _______ _______ _____ _____    ______ ____
ROOT
ATOM      1  C   UNL     1       0.714  -1.836  -1.361  0.00  0.00    +0.076 C 
ENDROOT
BRANCH   1   2
ATOM      2  C   UNL     1      -0.733  -2.257  -1.332  0.00  0.00    +0.003 A 
ATOM      3  C   UNL     1      -1.376  -3.038  -0.430  0.00  0.00    +0.027 A 
ATOM      4  C   UNL     1      -2.724  -3.294  -0.606  0.00  0.00    +0.025 A 
ATOM      5  C   UNL     1      -3.361  -2.756  -1.675  0.00  0.00    +0.060 A 
ATOM      6  S   UNL     1      -2.045  -1.850  -2.472  0.00  0.00    -0.099 S 
ATOM      7 BR   UNL     1      -3.663  -4.378   0.626  0.00  0.00    -0.050 Br
ENDBRANCH   1   2
BRANCH   1   8
ATOM      8  C   UNL     1       0.803  -0.310  -1.294  0.00  0.00    -0.057 C 
BRANCH   8   9
ATOM      9  N   UNL     1       0.058   0.172  -0.124  0.00  0.00    +0.381 N 
ATOM     10  H   UNL     1      -0.900  -0.138  -0.184  0.00  0.00    -0.090 HD
ATOM     11  H   UNL     1       0.478  -0.194   0.717  0.00  0.00    -0.090 HD
ATOM     12  H   UNL     1       0.084   1.181  -0.101  0.00  0.00    -0.090 HD
ENDBRANCH   8   9
BRANCH   8  14
ATOM     13  C   UNL     1       0.402   1.809  -2.556  0.00  0.00    +0.002 C 
ATOM     14  C   UNL     1       0.202   0.292  -2.566  0.00  0.00    -0.018 C 
ENDBRANCH   8  14
ENDBRANCH   1   8
BRANCH   1  15
ATOM     15  S   UNL     1       1.482  -2.420  -2.898  0.00  0.00    -0.090 S 
BRANCH  15  16
ATOM     16  C   UNL     1       3.189  -2.032  -2.695  0.00  0.00    +0.159 A 
ATOM     17  N   UNL     1       3.807  -1.384  -1.715  0.00  0.00    -0.135 NA
ATOM     18  N   UNL     1       5.053  -1.191  -1.729  0.00  0.00    -0.146 NA
ATOM     19  C   UNL     1       5.819  -1.618  -2.712  0.00  0.00    +0.100 A 
ATOM     20  S   UNL     1       4.589  -2.404  -3.748  0.00  0.00    -0.044 S 
ATOM     21  C   UNL     1       7.308  -1.487  -2.907  0.00  0.00    +0.075 C 
ENDBRANCH  15  16
ENDBRANCH   1  15
TORSDOF 6
