REMARK  Name = ZINC09705841
REMARK  15 active torsions:
REMARK  status: ('A' for Active; 'I' for Inactive)
REMARK    1  A    between atoms: C_1  and  C_2
REMARK    2  A    between atoms: C_2  and  N_69
REMARK    3  A    between atoms: C_3  and  C_4
REMARK    4  A    between atoms: C_3  and  N_69
REMARK    5  A    between atoms: C_5  and  C_6
REMARK    6  A    between atoms: C_5  and  N_69
REMARK    7  A    between atoms: C_6  and  C_7
REMARK    8  A    between atoms: C_7  and  C_8
REMARK    9  A    between atoms: C_8  and  C_10
REMARK   10  A    between atoms: C_8  and  N_11
REMARK   11  A    between atoms: C_12  and  C_14
REMARK   12  A    between atoms: N_16  and  C_17
REMARK   13  A    between atoms: C_25  and  C_26
REMARK   14  A    between atoms: N_28  and  C_29
REMARK   15  A    between atoms: C_34  and  C_35
REMARK                            x       y       z     vdW  Elec       q    Type
REMARK                         _______ _______ _______ _____ _____    ______ ____
ROOT
ATOM      1  C   UNL     1       3.871   4.011   2.252  0.00  0.00    +0.093 A 
ATOM      2  C   UNL     1       2.795   5.004   2.352  0.00  0.00    +0.042 A 
ATOM      3  C   UNL     1       1.402   4.926   2.382  0.00  0.00    +0.013 A 
ATOM      4  C   UNL     1       0.661   6.070   2.495  0.00  0.00    +0.001 A 
ATOM      5  C   UNL     1       1.286   7.306   2.585  0.00  0.00    +0.004 A 
ATOM      6  C   UNL     1       2.661   7.402   2.563  0.00  0.00    +0.047 A 
ATOM      7  C   UNL     1       3.434   6.252   2.450  0.00  0.00    +0.138 A 
ATOM      8  O   UNL     1       4.764   6.039   2.403  0.00  0.00    -0.448 OA
ATOM      9  C   UNL     1       5.040   4.721   2.287  0.00  0.00    +0.212 A 
ENDROOT
BRANCH   1  12
ATOM     10  C   UNL     1       2.640   2.114   1.543  0.00  0.00    +0.303 C 
ATOM     11  O   UNL     1       1.823   2.848   1.026  0.00  0.00    -0.265 OA
ATOM     12  N   UNL     1       3.731   2.635   2.140  0.00  0.00    -0.274 N 
ATOM     13  H   UNL     1       4.419   2.047   2.490  0.00  0.00    +0.155 HD
BRANCH  10  15
ATOM     14  N   UNL     1       1.346   0.115   0.922  0.00  0.00    -0.305 N 
ATOM     15  C   UNL     1       2.437   0.635   1.518  0.00  0.00    +0.300 C 
ATOM     16  O   UNL     1       3.254  -0.099   2.035  0.00  0.00    -0.265 OA
ATOM     17  H   UNL     1       0.695   0.701   0.505  0.00  0.00    +0.149 HD
BRANCH  14  18
ATOM     18  C   UNL     1       1.146  -1.336   0.897  0.00  0.00    +0.070 C 
ATOM     19  C   UNL     1       1.901  -1.935  -0.291  0.00  0.00    +0.028 C 
BRANCH  18  20
ATOM     20  C   UNL     1      -0.346  -1.643   0.761  0.00  0.00    +0.020 C 
BRANCH  20  21
ATOM     21  C   UNL     1      -1.084  -1.154   2.009  0.00  0.00    -0.017 C 
BRANCH  21  22
ATOM     22  C   UNL     1      -2.577  -1.461   1.872  0.00  0.00    -0.079 C 
BRANCH  22  23
ATOM     23  N   UNL     1      -3.272  -1.002   3.093  0.00  0.00    +0.379 N 
ATOM     24  H   UNL     1      -2.793  -1.390   3.915  0.00  0.00    -0.082 HD
BRANCH  23  26
ATOM     25  C   UNL     1      -3.949   1.090   1.963  0.00  0.00    -0.017 C 
ATOM     26  C   UNL     1      -3.237   0.473   3.169  0.00  0.00    -0.082 C 
ENDBRANCH  23  26
BRANCH  23  27
ATOM     27  C   UNL     1      -4.672  -1.475   3.085  0.00  0.00    -0.082 C 
ATOM     28  C   UNL     1      -5.276  -1.248   4.472  0.00  0.00    -0.017 C 
ENDBRANCH  23  27
ENDBRANCH  22  23
ENDBRANCH  21  22
ENDBRANCH  20  21
ENDBRANCH  18  20
ENDBRANCH  14  18
ENDBRANCH  10  15
ENDBRANCH   1  12
BRANCH   9  29
ATOM     29  C   UNL     1       6.381   4.144   2.209  0.00  0.00    +0.285 C 
ATOM     30  O   UNL     1       6.519   2.951   2.006  0.00  0.00    -0.266 OA
ATOM     31  N   UNL     1       7.464   4.931   2.363  0.00  0.00    -0.279 N 
ATOM     32  H   UNL     1       7.354   5.869   2.586  0.00  0.00    +0.155 HD
BRANCH  31  33
ATOM     33  C   UNL     1       8.745   4.397   2.200  0.00  0.00    +0.037 A 
ATOM     34  C   UNL     1       8.986   3.062   2.499  0.00  0.00    +0.023 A 
ATOM     35  C   UNL     1      10.252   2.536   2.332  0.00  0.00    +0.002 A 
ATOM     36  C   UNL     1      11.282   3.340   1.877  0.00  0.00    +0.000 A 
ATOM     37  C   UNL     1      11.047   4.670   1.584  0.00  0.00    +0.005 A 
ATOM     38  C   UNL     1       9.782   5.201   1.744  0.00  0.00    -0.029 A 
ATOM     39  C   UNL     1       9.527   6.652   1.424  0.00  0.00    +0.045 C 
ENDBRANCH  31  33
ENDBRANCH   9  29
TORSDOF 11
