REMARK  Name = ZINC13476628
REMARK  10 active torsions:
REMARK  status: ('A' for Active; 'I' for Inactive)
REMARK    1  A    between atoms: C_1  and  N_2
REMARK    2  A    between atoms: N_2  and  C_3
REMARK    3  A    between atoms: N_2  and  C_4
REMARK    4  A    between atoms: C_7  and  C_10
REMARK    5  A    between atoms: C_11  and  C_12
REMARK    6  A    between atoms: C_11  and  N_25
REMARK    7  A    between atoms: N_14  and  N_15
REMARK    8  A    between atoms: C_16  and  C_17
REMARK    9  A    between atoms: C_22  and  O_23
REMARK   10  A    between atoms: C_26  and  C_28
REMARK                            x       y       z     vdW  Elec       q    Type
REMARK                         _______ _______ _______ _____ _____    ______ ____
ROOT
ATOM      1  C   UNL     1       0.017  -2.755  -4.739  0.00  0.00    +0.036 C 
ATOM      2  C   UNL     1      -0.091  -2.113  -5.927  0.00  0.00    +0.098 C 
ENDROOT
BRANCH   1   6
ATOM      3  C   UNL     1      -0.362  -0.585  -1.114  0.00  0.00    +0.029 A 
ATOM      4  C   UNL     1       0.433  -1.727  -1.160  0.00  0.00    +0.023 A 
ATOM      5  C   UNL     1       0.559  -2.434  -2.334  0.00  0.00    +0.010 A 
ATOM      6  C   UNL     1      -0.114  -2.004  -3.483  0.00  0.00    -0.023 A 
ATOM      7  C   UNL     1      -0.913  -0.855  -3.433  0.00  0.00    +0.010 A 
ATOM      8  C   UNL     1      -1.037  -0.157  -2.253  0.00  0.00    +0.023 A 
BRANCH   3  10
ATOM      9  C   UNL     1      -1.327   1.325   0.128  0.00  0.00    +0.129 C 
ATOM     10  N   UNL     1      -0.486   0.127   0.076  0.00  0.00    -0.336 N 
ATOM     11  C   UNL     1       0.224  -0.322   1.276  0.00  0.00    +0.129 C 
ENDBRANCH   3  10
ENDBRANCH   1   6
BRANCH   2  12
ATOM     12  C   UNL     1      -0.146  -0.647  -5.967  0.00  0.00    +0.277 C 
ATOM     13  O   UNL     1      -1.171  -0.085  -6.306  0.00  0.00    -0.267 OA
ATOM     14  N   UNL     1       0.939   0.077  -5.628  0.00  0.00    -0.202 N 
ATOM     15  H   UNL     1       1.777  -0.369  -5.428  0.00  0.00    +0.178 HD
BRANCH  14  16
ATOM     16  N   UNL     1       0.857   1.474  -5.564  0.00  0.00    -0.187 NA
ATOM     17  C   UNL     1       1.902   2.172  -5.237  0.00  0.00    +0.142 C 
BRANCH  17  18
ATOM     18  C   UNL     1       1.815   3.642  -5.170  0.00  0.00    +0.037 A 
ATOM     19  C   UNL     1       2.939   4.396  -4.824  0.00  0.00    +0.028 A 
ATOM     20  C   UNL     1       2.850   5.772  -4.763  0.00  0.00    +0.019 A 
ATOM     21  C   UNL     1       1.652   6.408  -5.043  0.00  0.00    +0.019 A 
ATOM     22  C   UNL     1       0.533   5.671  -5.385  0.00  0.00    +0.047 A 
ATOM     23  C   UNL     1       0.606   4.290  -5.458  0.00  0.00    +0.126 A 
ATOM     24 BR   UNL     1       4.372   6.793  -4.295  0.00  0.00    -0.050 Br
BRANCH  23  25
ATOM     25  O   UNL     1      -0.491   3.567  -5.801  0.00  0.00    -0.506 OA
ATOM     26  H   UNL     1      -1.040   3.304  -5.049  0.00  0.00    +0.292 HD
ENDBRANCH  23  25
ENDBRANCH  17  18
ENDBRANCH  14  16
ENDBRANCH   2  12
BRANCH   2  27
ATOM     27  N   UNL     1      -0.150  -2.847  -7.117  0.00  0.00    -0.277 N 
ATOM     28  C   UNL     1      -0.305  -2.211  -8.295  0.00  0.00    +0.248 C 
ATOM     29  O   UNL     1      -0.313  -0.996  -8.333  0.00  0.00    -0.270 OA
ATOM     30  H   UNL     1      -0.080  -3.815  -7.093  0.00  0.00    +0.155 HD
BRANCH  28  31
ATOM     31  C   UNL     1      -0.464  -2.991  -9.540  0.00  0.00    +0.037 A 
ATOM     32  C   UNL     1      -0.461  -4.386  -9.499  0.00  0.00    +0.013 A 
ATOM     33  C   UNL     1      -0.611  -5.108 -10.665  0.00  0.00    +0.001 A 
ATOM     34  C   UNL     1      -0.764  -4.451 -11.874  0.00  0.00    +0.000 A 
ATOM     35  C   UNL     1      -0.768  -3.069 -11.922  0.00  0.00    +0.001 A 
ATOM     36  C   UNL     1      -0.625  -2.335 -10.762  0.00  0.00    +0.013 A 
ENDBRANCH  28  31
ENDBRANCH   2  27
TORSDOF 8
