REMARK  Name = ZINC39711118
REMARK  10 active torsions:
REMARK  status: ('A' for Active; 'I' for Inactive)
REMARK    1  A    between atoms: C_1  and  C_2
REMARK    2  A    between atoms: C_5  and  C_41
REMARK    3  A    between atoms: C_10  and  C_14
REMARK    4  A    between atoms: C_14  and  C_16
REMARK    5  A    between atoms: C_14  and  N_28
REMARK    6  A    between atoms: N_21  and  C_22
REMARK    7  A    between atoms: N_28  and  C_29
REMARK    8  A    between atoms: N_28  and  C_35
REMARK    9  A    between atoms: C_29  and  C_30
REMARK   10  A    between atoms: C_35  and  C_36
REMARK                            x       y       z     vdW  Elec       q    Type
REMARK                         _______ _______ _______ _____ _____    ______ ____
ROOT
ATOM      1  C   UNL     1       1.291  -0.627   5.832  0.00  0.00    -0.010 C 
ENDROOT
BRANCH   1  11
ATOM      2  C   UNL     1       1.630   1.176   1.034  0.00  0.00    +0.044 C 
ATOM      3  C   UNL     1       2.365   2.009   2.052  0.00  0.00    -0.042 A 
ATOM      4  C   UNL     1       2.773   3.269   1.748  0.00  0.00    +0.004 A 
ATOM      5  C   UNL     1       3.454   4.055   2.678  0.00  0.00    +0.005 A 
ATOM      6  C   UNL     1       3.751   3.619   3.930  0.00  0.00    -0.029 A 
ATOM      7  C   UNL     1       3.372   2.329   4.345  0.00  0.00    +0.043 A 
ATOM      8  N   UNL     1       3.668   1.912   5.576  0.00  0.00    -0.284 N 
ATOM      9  C   UNL     1       3.342   0.714   6.030  0.00  0.00    +0.223 C 
ATOM     10  O   UNL     1       3.639   0.389   7.165  0.00  0.00    -0.275 OA
ATOM     11  C   UNL     1       2.600  -0.252   5.134  0.00  0.00    +0.088 C 
ATOM     12  C   UNL     1       2.261   0.218   3.733  0.00  0.00    -0.006 C 
ATOM     13  C   UNL     1       2.646   1.479   3.386  0.00  0.00    -0.004 A 
ATOM     14  C   UNL     1       4.490   4.524   4.881  0.00  0.00    +0.045 C 
ATOM     15  H   UNL     1       4.144   2.516   6.167  0.00  0.00    +0.155 HD
ENDBRANCH   1  11
BRANCH   1  16
ATOM     16  C   UNL     1       1.593  -1.520   7.037  0.00  0.00    +0.183 C 
ATOM     17  N   UNL     1       1.985  -2.873   6.600  0.00  0.00    -0.229 N 
ATOM     18  N   UNL     1       1.022  -3.740   7.130  0.00  0.00    -0.064 NA
ATOM     19  N   UNL     1       0.163  -3.153   7.781  0.00  0.00    -0.061 NA
ATOM     20  N   UNL     1       0.370  -1.765   7.825  0.00  0.00    -0.213 N 
ATOM     21  H   UNL     1       2.751  -3.113   6.056  0.00  0.00    +0.172 HD
BRANCH  20  22
ATOM     22  C   UNL     1      -0.454  -0.766   8.509  0.00  0.00    +0.096 C 
ATOM     23  C   UNL     1      -0.032  -0.675   9.977  0.00  0.00    +0.024 C 
ATOM     24  C   UNL     1      -0.893   0.369  10.692  0.00  0.00    +0.002 C 
ATOM     25  C   UNL     1      -2.365  -0.041  10.609  0.00  0.00    +0.000 C 
ATOM     26  C   UNL     1      -2.787  -0.133   9.141  0.00  0.00    +0.002 C 
ATOM     27  C   UNL     1      -1.926  -1.176   8.427  0.00  0.00    +0.024 C 
ENDBRANCH  20  22
ENDBRANCH   1  16
BRANCH   1  28
ATOM     28  N   UNL     1       0.425  -1.352   4.891  0.00  0.00    +0.392 N 
ATOM     29  H   UNL     1       0.271  -0.784   4.071  0.00  0.00    -0.080 HD
BRANCH  28  30
ATOM     30  C   UNL     1      -0.863  -1.642   5.535  0.00  0.00    -0.002 C 
BRANCH  30  31
ATOM     31  C   UNL     1      -1.676  -0.377   5.626  0.00  0.00    +0.089 A 
ATOM     32  C   UNL     1      -2.645  -0.002   4.772  0.00  0.00    +0.042 A 
ATOM     33  C   UNL     1      -3.137   1.242   5.231  0.00  0.00    +0.041 A 
ATOM     34  C   UNL     1      -2.439   1.552   6.339  0.00  0.00    +0.195 A 
ATOM     35  O   UNL     1      -1.560   0.565   6.576  0.00  0.00    -0.470 OA
ENDBRANCH  30  31
ENDBRANCH  28  30
BRANCH  28  36
ATOM     36  C   UNL     1       1.073  -2.611   4.500  0.00  0.00    -0.034 C 
BRANCH  36  37
ATOM     37  C   UNL     1       0.473  -3.105   3.209  0.00  0.00    -0.027 A 
ATOM     38  C   UNL     1       1.071  -3.293   2.007  0.00  0.00    +0.009 A 
ATOM     39  C   UNL     1       0.315  -3.760   0.948  0.00  0.00    +0.008 A 
ATOM     40  C   UNL     1      -1.002  -4.017   1.143  0.00  0.00    +0.045 A 
ATOM     41  S   UNL     1      -1.208  -3.601   2.867  0.00  0.00    -0.103 S 
ENDBRANCH  36  37
ENDBRANCH  28  36
ENDBRANCH   1  28
TORSDOF 8
