REMARK  Name = ZINC54386889
REMARK  7 active torsions:
REMARK  status: ('A' for Active; 'I' for Inactive)
REMARK    1  A    between atoms: C_1  and  C_2
REMARK    2  A    between atoms: C_2  and  C_4
REMARK    3  A    between atoms: C_2  and  N_10
REMARK    4  A    between atoms: C_13  and  N_16
REMARK    5  A    between atoms: N_19  and  C_20
REMARK    6  A    between atoms: C_25  and  S_26
REMARK    7  A    between atoms: S_26  and  C_29
REMARK                            x       y       z     vdW  Elec       q    Type
REMARK                         _______ _______ _______ _____ _____    ______ ____
ROOT
ATOM      1  N   UNL     1      -3.533  -3.195  -0.026  0.00  0.00    -0.298 N 
ATOM      2  C   UNL     1      -4.389  -4.055  -0.612  0.00  0.00    +0.304 C 
ATOM      3  O   UNL     1      -4.380  -4.192  -1.820  0.00  0.00    -0.253 OA
ATOM      4  N   UNL     1      -5.254  -4.763   0.141  0.00  0.00    -0.268 N 
ATOM      5  H   UNL     1      -3.539  -3.085   0.938  0.00  0.00    +0.150 HD
ATOM      6  H   UNL     1      -5.207  -4.715   1.108  0.00  0.00    +0.156 HD
ENDROOT
BRANCH   1  10
ATOM      7  N   UNL     1      -1.407  -0.485   0.007  0.00  0.00    +0.385 N 
ATOM      8  C   UNL     1      -2.112  -0.085  -1.238  0.00  0.00    -0.076 C 
ATOM      9  C   UNL     1      -3.257  -1.123  -1.345  0.00  0.00    +0.002 C 
ATOM     10  C   UNL     1      -2.592  -2.425  -0.844  0.00  0.00    +0.056 C 
ATOM     11  C   UNL     1      -1.394  -1.964   0.006  0.00  0.00    -0.056 C 
ATOM     12  H   UNL     1      -1.904  -0.141   0.815  0.00  0.00    -0.081 HD
BRANCH   7  14
ATOM     13  C   UNL     1      -0.065   1.564   0.000  0.00  0.00    -0.008 C 
ATOM     14  C   UNL     1      -0.033   0.034  -0.001  0.00  0.00    -0.041 C 
BRANCH  14  15
ATOM     15  C   UNL     1       0.695  -0.454   1.226  0.00  0.00    -0.061 A 
ATOM     16  C   UNL     1       0.041  -0.508   2.442  0.00  0.00    +0.002 A 
ATOM     17  C   UNL     1       0.708  -0.956   3.567  0.00  0.00    +0.000 A 
ATOM     18  C   UNL     1       2.030  -1.350   3.475  0.00  0.00    +0.000 A 
ATOM     19  C   UNL     1       2.684  -1.296   2.258  0.00  0.00    +0.000 A 
ATOM     20  C   UNL     1       2.015  -0.853   1.133  0.00  0.00    +0.002 A 
ENDBRANCH  14  15
ENDBRANCH   7  14
ENDBRANCH   1  10
BRANCH   4  21
ATOM     21  C   UNL     1      -6.221  -5.566  -0.474  0.00  0.00    +0.060 A 
ATOM     22  C   UNL     1      -6.649  -5.277  -1.763  0.00  0.00    +0.025 A 
ATOM     23  C   UNL     1      -7.603  -6.072  -2.366  0.00  0.00    +0.002 A 
ATOM     24  C   UNL     1      -8.132  -7.156  -1.689  0.00  0.00    +0.002 A 
ATOM     25  C   UNL     1      -7.708  -7.446  -0.405  0.00  0.00    +0.029 A 
ATOM     26  C   UNL     1      -6.750  -6.658   0.202  0.00  0.00    +0.109 A 
BRANCH  26  27
ATOM     27  S   UNL     1      -6.204  -7.033   1.835  0.00  0.00    -0.004 S 
ATOM     28  O   UNL     1      -6.329  -5.811   2.548  0.00  0.00    -0.170 OA
ATOM     29  O   UNL     1      -6.960  -8.175   2.216  0.00  0.00    -0.170 OA
ATOM     30  C   UNL     1      -4.455  -7.475   1.652  0.00  0.00    +0.200 C 
ENDBRANCH  26  27
ENDBRANCH   4  21
TORSDOF 5
