REMARK  Name = ZINC02808588
REMARK  9 active torsions:
REMARK  status: ('A' for Active; 'I' for Inactive)
REMARK    1  A    between atoms: C_1  and  C_2
REMARK    2  A    between atoms: C_2  and  S_3
REMARK    3  A    between atoms: S_3  and  N_6
REMARK    4  A    between atoms: C_10  and  C_13
REMARK    5  A    between atoms: C_16  and  S_31
REMARK    6  A    between atoms: N_17  and  C_18
REMARK    7  A    between atoms: N_21  and  C_23
REMARK    8  A    between atoms: C_23  and  C_24
REMARK    9  A    between atoms: C_27  and  C_30
REMARK                            x       y       z     vdW  Elec       q    Type
REMARK                         _______ _______ _______ _____ _____    ______ ____
ROOT
ATOM      1  C   UNL     1       3.775   2.124   0.590  0.00  0.00    +0.143 A 
ATOM      2  N   UNL     1       3.684   2.116  -0.710  0.00  0.00    -0.133 NA
ATOM      3  N   UNL     1       2.471   1.887  -1.067  0.00  0.00    -0.122 NA
ATOM      4  C   UNL     1       1.714   1.735  -0.005  0.00  0.00    +0.193 A 
ATOM      5  N   UNL     1       2.522   1.887   1.087  0.00  0.00    -0.271 N 
ENDROOT
BRANCH   1  10
ATOM      6  N   UNL     1       7.319   1.602   1.747  0.00  0.00    -0.180 NA
ATOM      7  C   UNL     1       7.907   2.936   1.571  0.00  0.00    +0.109 C 
ATOM      8  C   UNL     1       6.849   3.990   1.909  0.00  0.00    +0.018 C 
ATOM      9  C   UNL     1       5.596   3.739   1.067  0.00  0.00    +0.014 C 
ATOM     10  C   UNL     1       5.026   2.358   1.397  0.00  0.00    +0.073 C 
ATOM     11  C   UNL     1       6.064   1.285   1.052  0.00  0.00    +0.120 C 
BRANCH   6  12
ATOM     12  S   UNL     1       8.057   0.475   2.711  0.00  0.00    +0.032 S 
ATOM     13  O   UNL     1       8.806   1.236   3.650  0.00  0.00    -0.158 OA
ATOM     14  O   UNL     1       7.005  -0.377   3.144  0.00  0.00    -0.158 OA
BRANCH  12  16
ATOM     15  C   UNL     1       9.918  -1.504   2.395  0.00  0.00    +0.029 C 
ATOM     16  C   UNL     1       9.175  -0.426   1.603  0.00  0.00    +0.182 C 
ENDBRANCH  12  16
ENDBRANCH   6  12
ENDBRANCH   1  10
BRANCH   5  17
ATOM     17  C   UNL     1       2.144   1.811   2.442  0.00  0.00    +0.088 A 
ATOM     18  C   UNL     1       2.568   0.845   3.366  0.00  0.00    +0.160 A 
ATOM     19  N   UNL     1       2.005   1.105   4.518  0.00  0.00    -0.177 NA
ATOM     20  N   UNL     1       1.204   2.245   4.369  0.00  0.00    -0.265 N 
ATOM     21  C   UNL     1       1.309   2.664   3.088  0.00  0.00    +0.135 A 
BRANCH  20  22
ATOM     22  C   UNL     1       0.400   2.874   5.419  0.00  0.00    +0.178 C 
BRANCH  22  23
ATOM     23  C   UNL     1      -0.529   1.852   6.021  0.00  0.00    -0.026 A 
ATOM     24  C   UNL     1      -1.793   1.669   5.491  0.00  0.00    +0.006 A 
ATOM     25  C   UNL     1      -2.643   0.728   6.040  0.00  0.00    +0.004 A 
ATOM     26  C   UNL     1      -2.234  -0.023   7.127  0.00  0.00    -0.050 A 
ATOM     27  C   UNL     1      -0.972   0.163   7.660  0.00  0.00    +0.004 A 
ATOM     28  C   UNL     1      -0.120   1.101   7.107  0.00  0.00    +0.006 A 
ATOM     29  C   UNL     1      -3.163  -1.045   7.729  0.00  0.00    +0.044 C 
ENDBRANCH  22  23
ENDBRANCH  20  22
ENDBRANCH   5  17
BRANCH   4  30
ATOM     30  S   UNL     1      -0.017   1.406   0.010  0.00  0.00    -0.103 S 
ATOM     31  H   UNL     1       0.002  -0.004   0.002  0.00  0.00    +0.110 HD
ENDBRANCH   4  30
TORSDOF 7
