REMARK  Name = ZINC08635477
REMARK  7 active torsions:
REMARK  status: ('A' for Active; 'I' for Inactive)
REMARK    1  A    between atoms: C_1  and  N_2
REMARK    2  A    between atoms: C_3  and  C_17
REMARK    3  A    between atoms: C_5  and  C_7
REMARK    4  A    between atoms: C_25  and  C_27
REMARK    5  A    between atoms: C_27  and  N_28
REMARK    6  A    between atoms: N_28  and  S_29
REMARK    7  A    between atoms: S_29  and  C_32
REMARK                            x       y       z     vdW  Elec       q    Type
REMARK                         _______ _______ _______ _____ _____    ______ ____
ROOT
ATOM      1  C   UNL     1      -2.116   1.486   1.148  0.00  0.00    +0.024 C 
ATOM      2  C   UNL     1      -3.018   1.729  -0.072  0.00  0.00    -0.068 C 
ATOM      3  C   UNL     1      -1.116   2.402  -1.412  0.00  0.00    -0.078 C 
ATOM      4  C   UNL     1      -0.162   2.178  -0.235  0.00  0.00    -0.015 C 
ATOM      5  C   UNL     1      -0.918   2.441   1.074  0.00  0.00    -0.007 C 
ATOM      6  C   UNL     1      -1.445   3.881   1.054  0.00  0.00    -0.010 C 
ATOM      7  C   UNL     1      -2.363   4.058  -0.158  0.00  0.00    -0.053 C 
ATOM      8  N   UNL     1      -2.455   2.797  -0.925  0.00  0.00    +0.383 N 
ATOM      9  H   UNL     1      -3.074   2.942  -1.731  0.00  0.00    -0.081 HD
ENDROOT
BRANCH   1  12
ATOM     10  C   UNL     1      -0.957   1.710   4.010  0.00  0.00    +0.172 C 
ATOM     11  N   UNL     1      -2.373   1.841   3.657  0.00  0.00    -0.271 N 
ATOM     12  C   UNL     1      -2.891   1.745   2.414  0.00  0.00    +0.041 A 
ATOM     13  C   UNL     1      -4.226   1.929   2.503  0.00  0.00    +0.053 A 
ATOM     14  C   UNL     1      -4.544   2.137   3.860  0.00  0.00    +0.093 A 
ATOM     15  N   UNL     1      -3.424   2.086   4.550  0.00  0.00    -0.171 NA
BRANCH  14  16
ATOM     16  C   UNL     1      -5.899   2.377   4.413  0.00  0.00    +0.003 A 
ATOM     17  C   UNL     1      -7.019   2.299   3.569  0.00  0.00    +0.011 A 
ATOM     18  C   UNL     1      -8.271   2.514   4.050  0.00  0.00    +0.009 A 
ATOM     19  C   UNL     1      -8.458   2.819   5.410  0.00  0.00    -0.018 A 
ATOM     20  C   UNL     1      -9.743   3.046   5.932  0.00  0.00    +0.008 A 
ATOM     21  C   UNL     1      -9.892   3.339   7.253  0.00  0.00    +0.001 A 
ATOM     22  C   UNL     1      -8.788   3.419   8.100  0.00  0.00    +0.001 A 
ATOM     23  C   UNL     1      -7.528   3.206   7.630  0.00  0.00    +0.008 A 
ATOM     24  C   UNL     1      -7.335   2.901   6.271  0.00  0.00    -0.017 A 
ATOM     25  C   UNL     1      -6.050   2.669   5.755  0.00  0.00    +0.018 A 
ENDBRANCH  14  16
ENDBRANCH   1  12
BRANCH   7  26
ATOM     26  C   UNL     1      -3.763   4.455   0.315  0.00  0.00    +0.091 C 
BRANCH  26  27
ATOM     27  N   UNL     1      -4.670   4.505  -0.834  0.00  0.00    -0.191 NA
ATOM     28  H   UNL     1      -4.312   4.518  -1.735  0.00  0.00    +0.148 HD
BRANCH  27  29
ATOM     29  S   UNL     1      -6.308   4.540  -0.594  0.00  0.00    +0.065 S 
ATOM     30  O   UNL     1      -6.906   4.613  -1.881  0.00  0.00    -0.153 OA
ATOM     31  O   UNL     1      -6.606   3.499   0.326  0.00  0.00    -0.153 OA
BRANCH  29  32
ATOM     32  C   UNL     1      -6.683   6.056   0.222  0.00  0.00    +0.142 A 
ATOM     33  C   UNL     1      -6.992   7.262  -0.316  0.00  0.00    +0.036 A 
ATOM     34  C   UNL     1      -7.253   8.325   0.527  0.00  0.00    +0.010 A 
ATOM     35  C   UNL     1      -7.193   8.131   1.867  0.00  0.00    +0.047 A 
ATOM     36  S   UNL     1      -6.763   6.402   1.971  0.00  0.00    -0.077 S 
ENDBRANCH  29  32
ENDBRANCH  27  29
ENDBRANCH  26  27
ENDBRANCH   7  26
TORSDOF 6
