REMARK  Name = ZINC03281240
REMARK  12 active torsions:
REMARK  status: ('A' for Active; 'I' for Inactive)
REMARK    1  A    between atoms: C_1  and  C_2
REMARK    2  A    between atoms: C_2  and  C_3
REMARK    3  A    between atoms: C_2  and  C_4
REMARK    4  A    between atoms: C_2  and  C_5
REMARK    5  A    between atoms: C_5  and  C_7
REMARK    6  A    between atoms: N_9  and  C_29
REMARK    7  A    between atoms: C_13  and  C_14
REMARK    8  A    between atoms: C_17  and  C_19
REMARK    9  A    between atoms: C_22  and  N_25
REMARK   10  A    between atoms: C_29  and  C_30
REMARK   11  A    between atoms: N_32  and  C_33
REMARK   12  A    between atoms: N_32  and  C_34
REMARK                            x       y       z     vdW  Elec       q    Type
REMARK                         _______ _______ _______ _____ _____    ______ ____
ROOT
ATOM      1  C   UNL     1      -0.506  10.465   0.063  0.00  0.00    +0.080 C 
ATOM      2  C   UNL     1      -1.683   9.748   0.070  0.00  0.00    +0.087 A 
ATOM      3  N   UNL     1      -2.972  10.227   0.085  0.00  0.00    -0.293 N 
ATOM      4  C   UNL     1      -3.985   9.374   0.084  0.00  0.00    +0.266 A 
ATOM      5  O   UNL     1      -5.139   9.752   0.090  0.00  0.00    -0.266 OA
ATOM      6  C   UNL     1      -3.633   7.926   0.079  0.00  0.00    +0.082 A 
ATOM      7  C   UNL     1      -4.485   6.808   0.081  0.00  0.00    +0.066 C 
ATOM      8  S   UNL     1      -1.898   7.977   0.063  0.00  0.00    -0.066 S 
ENDROOT
BRANCH   7   9
ATOM      9  C   UNL     1      -3.950   5.529   0.070  0.00  0.00    +0.130 A 
ATOM     10  C   UNL     1      -4.704   4.272   0.070  0.00  0.00    +0.050 A 
ATOM     11  C   UNL     1      -3.779   3.273   0.050  0.00  0.00    +0.050 A 
ATOM     12  C   UNL     1      -2.505   3.873   0.047  0.00  0.00    +0.136 A 
ATOM     13  O   UNL     1      -2.637   5.210   0.055  0.00  0.00    -0.455 OA
BRANCH  12  14
ATOM     14  C   UNL     1      -1.231   3.151   0.031  0.00  0.00    +0.017 A 
ATOM     15  C   UNL     1      -1.215   1.745   0.017  0.00  0.00    +0.014 A 
ATOM     16  C   UNL     1      -0.013   1.076   0.008  0.00  0.00    +0.033 A 
ATOM     17  C   UNL     1       1.180   1.783   0.000  0.00  0.00    +0.126 A 
ATOM     18  C   UNL     1       1.175   3.169   0.008  0.00  0.00    +0.033 A 
ATOM     19  C   UNL     1      -0.017   3.858   0.023  0.00  0.00    +0.014 A 
BRANCH  17  20
ATOM     20  N   UNL     1       2.467   1.053  -0.016  0.00  0.00    +0.056 N 
ATOM     21  O   UNL     1       2.477  -0.264  -0.023  0.00  0.00    -0.126 OA
ATOM     22  O   UNL     1       3.603   1.720  -0.023  0.00  0.00    -0.126 OA
ENDBRANCH  17  20
ENDBRANCH  12  14
ENDBRANCH   7   9
BRANCH   1  23
ATOM     23  C   UNL     1       0.728   9.791   0.048  0.00  0.00    +0.164 C 
ATOM     24  O   UNL     1       0.756   8.576   0.040  0.00  0.00    -0.292 OA
BRANCH  23  26
ATOM     25  C   UNL     1       3.200   9.608   0.023  0.00  0.00    +0.019 C 
ATOM     26  C   UNL     1       2.015  10.575   0.040  0.00  0.00    +0.025 C 
ATOM     27  C   UNL     1       2.063  11.463  -1.205  0.00  0.00    +0.019 C 
ATOM     28  C   UNL     1       2.087  11.449   1.294  0.00  0.00    +0.019 C 
ENDBRANCH  23  26
ENDBRANCH   1  23
BRANCH   3  29
ATOM     29  C   UNL     1      -3.223  11.670   0.095  0.00  0.00    +0.221 C 
BRANCH  29  30
ATOM     30  C   UNL     1      -3.323  12.173  -1.322  0.00  0.00    +0.235 C 
ATOM     31  O   UNL     1      -3.197  11.401  -2.249  0.00  0.00    -0.274 OA
ATOM     32  N   UNL     1      -3.552  13.479  -1.559  0.00  0.00    -0.306 N 
ATOM     33  C   UNL     1      -3.649  13.968  -2.937  0.00  0.00    +0.131 C 
ATOM     34  C   UNL     1      -3.705  14.411  -0.439  0.00  0.00    +0.131 C 
ENDBRANCH  29  30
ENDBRANCH   3  29
TORSDOF 7
