REMARK  Name = ZINC39325206
REMARK  9 active torsions:
REMARK  status: ('A' for Active; 'I' for Inactive)
REMARK    1  A    between atoms: C_1  and  C_2
REMARK    2  A    between atoms: C_4  and  C_37
REMARK    3  A    between atoms: C_5  and  S_9
REMARK    4  A    between atoms: C_6  and  C_8
REMARK    5  A    between atoms: S_9  and  N_12
REMARK    6  A    between atoms: N_12  and  C_13
REMARK    7  A    between atoms: N_12  and  C_20
REMARK    8  A    between atoms: C_13  and  C_14
REMARK    9  A    between atoms: C_20  and  C_21
REMARK                            x       y       z     vdW  Elec       q    Type
REMARK                         _______ _______ _______ _____ _____    ______ ____
ROOT
ATOM      1  N   UNL     1       0.729  -5.509  -0.996  0.00  0.00    -0.173 NA
ENDROOT
BRANCH   1   2
ATOM      2  S   UNL     1      -0.529  -4.566  -0.477  0.00  0.00    +0.061 S 
ATOM      3  O   UNL     1      -0.894  -5.048   0.809  0.00  0.00    -0.153 OA
ATOM      4  O   UNL     1      -1.454  -4.492  -1.553  0.00  0.00    -0.153 OA
BRANCH   2   9
ATOM      5  C   UNL     1       1.639   1.008   0.321  0.00  0.00    +0.044 C 
ATOM      6  C   UNL     1       1.097  -0.384   0.122  0.00  0.00    -0.050 A 
ATOM      7  C   UNL     1       1.124  -1.292   1.164  0.00  0.00    +0.008 A 
ATOM      8  C   UNL     1       0.627  -2.569   0.981  0.00  0.00    -0.024 A 
ATOM      9  C   UNL     1       0.103  -2.938  -0.243  0.00  0.00    +0.111 A 
ATOM     10  C   UNL     1       0.075  -2.029  -1.285  0.00  0.00    -0.024 A 
ATOM     11  C   UNL     1       0.568  -0.751  -1.101  0.00  0.00    +0.008 A 
ATOM     12  C   UNL     1      -0.496  -2.432  -2.620  0.00  0.00    +0.046 C 
ATOM     13  C   UNL     1       0.658  -3.559   2.117  0.00  0.00    +0.046 C 
ENDBRANCH   2   9
ENDBRANCH   1   2
BRANCH   1  14
ATOM     14  C   UNL     1       1.433  -6.377  -0.049  0.00  0.00    +0.141 C 
BRANCH  14  15
ATOM     15  C   UNL     1       0.769  -7.755  -0.028  0.00  0.00    +0.134 C 
ATOM     16  C   UNL     1       1.428  -8.637   1.054  0.00  0.00    +0.035 C 
ATOM     17  C   UNL     1       1.478 -10.026   0.361  0.00  0.00    +0.031 C 
ATOM     18  C   UNL     1       1.717  -9.611  -1.113  0.00  0.00    +0.160 C 
ATOM     19  O   UNL     1       0.955  -8.404  -1.291  0.00  0.00    -0.375 OA
ENDBRANCH  14  15
ENDBRANCH   1  14
BRANCH   1  20
ATOM     20  C   UNL     1       1.136  -5.477  -2.403  0.00  0.00    +0.126 C 
BRANCH  20  21
ATOM     21  C   UNL     1       2.068  -4.287  -2.637  0.00  0.00    +0.114 C 
ATOM     22  C   UNL     1       2.193  -4.080  -4.133  0.00  0.00    -0.003 C 
ATOM     23  C   UNL     1       3.442  -4.133  -4.670  0.00  0.00    -0.003 A 
ATOM     24  C   UNL     1       3.648  -3.946  -6.106  0.00  0.00    +0.059 A 
ATOM     25  C   UNL     1       4.910  -4.005  -6.613  0.00  0.00    +0.163 A 
ATOM     26  C   UNL     1       6.020  -4.240  -5.777  0.00  0.00    +0.164 A 
ATOM     27  C   UNL     1       5.877  -4.425  -4.416  0.00  0.00    +0.073 A 
ATOM     28  C   UNL     1       4.615  -4.382  -3.812  0.00  0.00    +0.044 A 
ATOM     29  N   UNL     1       4.500  -4.564  -2.494  0.00  0.00    -0.284 N 
ATOM     30  C   UNL     1       3.342  -4.535  -1.861  0.00  0.00    +0.225 C 
ATOM     31  O   UNL     1       3.300  -4.709  -0.657  0.00  0.00    -0.275 OA
ATOM     32  O   UNL     1       7.274  -4.284  -6.301  0.00  0.00    -0.485 OA
ATOM     33  C   UNL     1       7.378  -4.477  -7.715  0.00  0.00    +0.270 C 
ATOM     34  C   UNL     1       6.398  -3.519  -8.405  0.00  0.00    +0.270 C 
ATOM     35  O   UNL     1       5.076  -3.832  -7.955  0.00  0.00    -0.485 OA
ATOM     36  H   UNL     1       5.306  -4.725  -1.978  0.00  0.00    +0.155 HD
ENDBRANCH  20  21
ENDBRANCH   1  20
TORSDOF 6
