REMARK  Name = ZINC19926997
REMARK  2 active torsions:
REMARK  status: ('A' for Active; 'I' for Inactive)
REMARK    1  A    between atoms: C_1  and  C_2
REMARK    2  A    between atoms: C_8  and  C_14
REMARK                            x       y       z     vdW  Elec       q    Type
REMARK                         _______ _______ _______ _____ _____    ______ ____
ROOT
ATOM      1  C   UNL     1       1.996   5.790   5.344  0.00  0.00    +0.053 C 
ATOM      2  C   UNL     1       1.172   5.485   4.120  0.00  0.00    +0.008 A 
ATOM      3  C   UNL     1       0.599   4.320   3.732  0.00  0.00    +0.124 A 
ATOM      4  N   UNL     1      -0.084   4.300   2.604  0.00  0.00    -0.233 NA
ATOM      5  C   UNL     1      -0.211   5.384   1.864  0.00  0.00    +0.168 A 
ATOM      6  S   UNL     1       0.688   6.557   2.775  0.00  0.00    -0.057 S 
ATOM      7  N   UNL     1      -0.887   5.545   0.659  0.00  0.00    -0.230 N 
ATOM      8  C   UNL     1      -1.592   4.406   0.042  0.00  0.00    +0.207 C 
ATOM      9  S   UNL     1      -1.876   5.038  -1.667  0.00  0.00    -0.121 S 
ATOM     10  C   UNL     1      -1.658   6.827  -1.265  0.00  0.00    +0.167 C 
ATOM     11  C   UNL     1      -0.905   6.724   0.053  0.00  0.00    +0.232 C 
ATOM     12  O   UNL     1      -0.342   7.686   0.531  0.00  0.00    -0.274 OA
ENDROOT
BRANCH   8  13
ATOM     13  C   UNL     1      -0.722   3.175   0.026  0.00  0.00    +0.136 A 
ATOM     14  C   UNL     1      -1.159   1.903   0.017  0.00  0.00    +0.047 A 
ATOM     15  C   UNL     1      -0.013   1.076   0.008  0.00  0.00    +0.041 A 
ATOM     16  C   UNL     1       1.057   1.892   0.002  0.00  0.00    +0.195 A 
ATOM     17  O   UNL     1       0.621   3.162   0.013  0.00  0.00    -0.465 OA
ENDBRANCH   8  13
TORSDOF 1
