REMARK  Name = ZINC22454809
REMARK  12 active torsions:
REMARK  status: ('A' for Active; 'I' for Inactive)
REMARK    1  A    between atoms: C_1  and  C_2
REMARK    2  A    between atoms: C_6  and  C_33
REMARK    3  A    between atoms: C_9  and  O_11
REMARK    4  A    between atoms: O_11  and  C_12
REMARK    5  A    between atoms: C_12  and  C_13
REMARK    6  A    between atoms: C_13  and  C_15
REMARK    7  A    between atoms: C_13  and  O_32
REMARK    8  A    between atoms: C_15  and  N_16
REMARK    9  A    between atoms: N_19  and  C_22
REMARK   10  A    between atoms: C_22  and  C_23
REMARK   11  A    between atoms: C_33  and  C_34
REMARK   12  A    between atoms: C_33  and  C_35
REMARK                            x       y       z     vdW  Elec       q    Type
REMARK                         _______ _______ _______ _____ _____    ______ ____
ROOT
ATOM      1  N   UNL     1       2.111   0.185   1.316  0.00  0.00    -0.303 NA
ATOM      2  C   UNL     1       2.185  -0.542   0.041  0.00  0.00    +0.066 C 
ATOM      3  C   UNL     1       1.411   0.232  -1.029  0.00  0.00    -0.063 C 
ATOM      4  N   UNL     1       0.015   0.394  -0.600  0.00  0.00    +0.384 N 
ATOM      5  C   UNL     1      -0.059   1.121   0.676  0.00  0.00    -0.063 C 
ATOM      6  C   UNL     1       0.715   0.347   1.746  0.00  0.00    +0.066 C 
ATOM      7  H   UNL     1      -0.412  -0.608  -0.445  0.00  0.00    -0.081 HD
ENDROOT
BRANCH   1   8
ATOM      8  C   UNL     1       2.905  -0.488   2.352  0.00  0.00    +0.117 C 
BRANCH   8   9
ATOM      9  C   UNL     1       4.392  -0.215   2.112  0.00  0.00    +0.154 C 
BRANCH   9  10
ATOM     10  O   UNL     1       4.643   1.187   2.228  0.00  0.00    -0.388 OA
ATOM     11  H   UNL     1       4.132   1.894   1.558  0.00  0.00    +0.210 HD
ENDBRANCH   9  10
BRANCH   9  12
ATOM     12  C   UNL     1       5.223  -0.970   3.152  0.00  0.00    +0.192 C 
BRANCH  12  13
ATOM     13  O   UNL     1       6.612  -0.810   2.858  0.00  0.00    -0.374 OA
BRANCH  13  20
ATOM     14  C   UNL     1       9.464  -0.652   2.498  0.00  0.00    +0.010 C 
ATOM     15  C   UNL     1       8.802  -0.714   3.876  0.00  0.00    +0.015 C 
ATOM     16  C   UNL     1       9.732  -1.431   4.857  0.00  0.00    +0.006 C 
ATOM     17  C   UNL     1      10.003  -2.851   4.357  0.00  0.00    +0.004 C 
ATOM     18  C   UNL     1       8.682  -3.616   4.255  0.00  0.00    -0.006 C 
ATOM     19  C   UNL     1       7.752  -2.900   3.274  0.00  0.00    +0.035 C 
ATOM     20  C   UNL     1       7.481  -1.479   3.774  0.00  0.00    +0.121 C 
BRANCH  18  21
ATOM     21  C   UNL     1       8.954  -5.037   3.755  0.00  0.00    -0.014 C 
ATOM     22  C   UNL     1       9.884  -5.754   4.736  0.00  0.00    +0.007 C 
ATOM     23  C   UNL     1       7.633  -5.802   3.652  0.00  0.00    +0.007 C 
ENDBRANCH  18  21
ENDBRANCH  13  20
ENDBRANCH  12  13
ENDBRANCH   9  12
ENDBRANCH   8   9
ENDBRANCH   1   8
BRANCH   4  24
ATOM     24  C   UNL     1      -0.780   1.067  -1.636  0.00  0.00    -0.043 C 
BRANCH  24  25
ATOM     25  C   UNL     1      -2.241   0.998  -1.272  0.00  0.00    -0.060 A 
ATOM     26  C   UNL     1      -3.010  -0.066  -1.706  0.00  0.00    +0.005 A 
ATOM     27  C   UNL     1      -4.349  -0.136  -1.370  0.00  0.00    +0.050 A 
ATOM     28  C   UNL     1      -4.926   0.866  -0.608  0.00  0.00    +0.166 A 
ATOM     29  C   UNL     1      -4.153   1.940  -0.175  0.00  0.00    +0.166 A 
ATOM     30  C   UNL     1      -2.810   2.001  -0.510  0.00  0.00    +0.051 A 
ATOM     31  O   UNL     1      -4.944   2.783   0.551  0.00  0.00    -0.453 OA
ATOM     32  C   UNL     1      -6.297   2.425   0.216  0.00  0.00    +0.466 C 
ATOM     33  O   UNL     1      -6.202   1.036  -0.152  0.00  0.00    -0.453 OA
ENDBRANCH  24  25
ENDBRANCH   4  24
TORSDOF 9
