REMARK  Name = ZINC32876426
REMARK  7 active torsions:
REMARK  status: ('A' for Active; 'I' for Inactive)
REMARK    1  A    between atoms: C_1  and  C_2
REMARK    2  A    between atoms: C_12  and  S_20
REMARK    3  A    between atoms: N_13  and  C_14
REMARK    4  A    between atoms: C_14  and  C_15
REMARK    5  A    between atoms: S_20  and  C_21
REMARK    6  A    between atoms: C_21  and  C_23
REMARK    7  A    between atoms: C_21  and  C_24
REMARK                            x       y       z     vdW  Elec       q    Type
REMARK                         _______ _______ _______ _____ _____    ______ ____
ROOT
ATOM      1  C   UNL     1       1.519  10.815   1.074  0.00  0.00    +0.009 C 
ATOM      2  C   UNL     1       2.486   9.653   0.837  0.00  0.00    +0.003 C 
ATOM      3  C   UNL     1       3.329   9.936  -0.410  0.00  0.00    +0.006 C 
ATOM      4  C   UNL     1       4.251   8.743  -0.674  0.00  0.00    +0.019 C 
ATOM      5  C   UNL     1       3.406   7.478  -0.839  0.00  0.00    +0.108 C 
ATOM      6  N   UNL     1       2.619   7.250   0.380  0.00  0.00    -0.299 N 
ATOM      7  C   UNL     1       1.692   8.362   0.628  0.00  0.00    +0.111 C 
ATOM      8  C   UNL     1       1.940   6.040   0.316  0.00  0.00    +0.221 A 
ATOM      9  N   UNL     1       0.662   5.887   0.073  0.00  0.00    -0.112 NA
ATOM     10  N   UNL     1       0.379   4.515   0.091  0.00  0.00    -0.121 NA
ATOM     11  C   UNL     1       1.494   3.875   0.352  0.00  0.00    +0.194 A 
ATOM     12  N   UNL     1       2.488   4.802   0.494  0.00  0.00    -0.283 N 
ENDROOT
BRANCH  12  13
ATOM     13  C   UNL     1       3.895   4.517   0.788  0.00  0.00    +0.201 C 
BRANCH  13  14
ATOM     14  C   UNL     1       4.127   4.609   2.274  0.00  0.00    +0.125 A 
ATOM     15  C   UNL     1       4.099   3.579   3.140  0.00  0.00    +0.046 A 
ATOM     16  C   UNL     1       4.370   4.114   4.420  0.00  0.00    +0.041 A 
ATOM     17  C   UNL     1       4.538   5.439   4.262  0.00  0.00    +0.195 A 
ATOM     18  O   UNL     1       4.389   5.733   2.960  0.00  0.00    -0.466 OA
ENDBRANCH  13  14
ENDBRANCH  12  13
BRANCH  11  19
ATOM     19  S   UNL     1       1.679   2.128   0.487  0.00  0.00    -0.073 S 
BRANCH  19  20
ATOM     20  C   UNL     1       0.007   1.486   0.196  0.00  0.00    +0.137 C 
ATOM     21  C   UNL     1      -0.418   1.803  -1.240  0.00  0.00    +0.029 C 
BRANCH  20  22
ATOM     22  C   UNL     1      -0.002  -0.006   0.405  0.00  0.00    +0.236 C 
ATOM     23  O   UNL     1       1.036  -0.630   0.359  0.00  0.00    -0.274 OA
ATOM     24  N   UNL     1      -1.163  -0.646   0.643  0.00  0.00    -0.224 N 
ATOM     25  C   UNL     1      -1.310  -2.094   0.858  0.00  0.00    +0.136 C 
ATOM     26  C   UNL     1      -2.822  -2.282   1.084  0.00  0.00    +0.125 C 
ATOM     27  N   UNL     1      -3.369  -0.922   0.964  0.00  0.00    -0.297 N 
ATOM     28  C   UNL     1      -2.368  -0.066   0.716  0.00  0.00    +0.309 C 
ATOM     29  O   UNL     1      -2.539   1.128   0.571  0.00  0.00    -0.252 OA
ATOM     30  H   UNL     1      -4.449  -0.751   1.079  0.00  0.00    +0.150 HD
ENDBRANCH  20  22
ENDBRANCH  19  20
ENDBRANCH  11  19
TORSDOF 5
