REMARK  Name = ZINC38654925
REMARK  12 active torsions:
REMARK  status: ('A' for Active; 'I' for Inactive)
REMARK    1  A    between atoms: C_1  and  C_2
REMARK    2  A    between atoms: C_2  and  C_3
REMARK    3  A    between atoms: C_3  and  C_4
REMARK    4  A    between atoms: C_4  and  O_5
REMARK    5  A    between atoms: O_5  and  C_6
REMARK    6  A    between atoms: C_10  and  C_12
REMARK    7  A    between atoms: C_12  and  O_14
REMARK    8  A    between atoms: O_14  and  C_15
REMARK    9  A    between atoms: C_22  and  N_37
REMARK   10  A    between atoms: C_23  and  C_35
REMARK   11  A    between atoms: C_24  and  C_26
REMARK   12  A    between atoms: C_29  and  N_32
REMARK                            x       y       z     vdW  Elec       q    Type
REMARK                         _______ _______ _______ _____ _____    ______ ____
ROOT
ATOM      1  C   UNL     1       3.781  -8.247   6.139  0.00  0.00    +0.135 A 
ATOM      2  C   UNL     1       4.307  -7.451   7.148  0.00  0.00    +0.047 A 
ATOM      3  C   UNL     1       4.975  -8.032   8.207  0.00  0.00    +0.012 A 
ATOM      4  C   UNL     1       5.125  -9.406   8.268  0.00  0.00    +0.008 A 
ATOM      5  C   UNL     1       4.601 -10.206   7.264  0.00  0.00    +0.138 A 
ATOM      6  C   UNL     1       3.923  -9.623   6.201  0.00  0.00    +0.093 A 
ATOM      7  O   UNL     1       4.738 -11.554   7.306  0.00  0.00    -0.441 OA
ATOM      8  C   UNL     1       5.026 -12.163   8.468  0.00  0.00    +0.199 C 
ATOM      9  C   UNL     1       5.558 -11.491   9.516  0.00  0.00    +0.098 C 
ATOM     10  C   UNL     1       5.858 -10.021   9.431  0.00  0.00    +0.098 C 
ENDROOT
BRANCH  10  11
ATOM     11  C   UNL     1       7.340  -9.823   9.247  0.00  0.00    -0.035 A 
ATOM     12  C   UNL     1       7.974 -10.341   8.133  0.00  0.00    +0.007 A 
ATOM     13  C   UNL     1       9.334 -10.160   7.965  0.00  0.00    +0.033 A 
ATOM     14  C   UNL     1      10.060  -9.460   8.910  0.00  0.00    +0.126 A 
ATOM     15  C   UNL     1       9.427  -8.941  10.023  0.00  0.00    +0.033 A 
ATOM     16  C   UNL     1       8.066  -9.118  10.190  0.00  0.00    +0.007 A 
BRANCH  14  17
ATOM     17  N   UNL     1      11.517  -9.266   8.729  0.00  0.00    +0.056 N 
ATOM     18  O   UNL     1      12.071  -9.721   7.756  0.00  0.00    -0.126 OA
ATOM     19  O   UNL     1      12.152  -8.654   9.556  0.00  0.00    -0.126 OA
ENDBRANCH  14  17
ENDBRANCH  10  11
BRANCH   8  20
ATOM     20  N   UNL     1       4.772 -13.505   8.598  0.00  0.00    -0.328 N 
ATOM     21  H   UNL     1       4.390 -14.001   7.856  0.00  0.00    +0.145 HD
ATOM     22  H   UNL     1       4.974 -13.959   9.431  0.00  0.00    +0.145 HD
ENDBRANCH   8  20
BRANCH   9  23
ATOM     23  C   UNL     1       5.842 -12.196  10.730  0.00  0.00    +0.101 C 
ATOM     24  N   UNL     1       6.068 -12.755  11.693  0.00  0.00    -0.191 NA
ENDBRANCH   9  23
BRANCH   1  25
ATOM     25  O   UNL     1       3.123  -7.676   5.096  0.00  0.00    -0.422 OA
BRANCH  25  26
ATOM     26  C   UNL     1       3.856  -7.090   4.130  0.00  0.00    +0.345 C 
ATOM     27  O   UNL     1       5.062  -7.003   4.251  0.00  0.00    -0.245 OA
BRANCH  26  32
ATOM     28  C   UNL     1       3.325  -5.444   0.793  0.00  0.00    +0.121 A 
ATOM     29  C   UNL     1       1.946  -5.547   0.661  0.00  0.00    +0.046 A 
ATOM     30  C   UNL     1       1.194  -6.149   1.653  0.00  0.00    +0.004 A 
ATOM     31  C   UNL     1       1.809  -6.652   2.781  0.00  0.00    +0.015 A 
ATOM     32  C   UNL     1       3.195  -6.553   2.923  0.00  0.00    +0.063 A 
ATOM     33  C   UNL     1       3.953  -5.950   1.918  0.00  0.00    +0.060 A 
BRANCH  28  34
ATOM     34  O   UNL     1       4.058  -4.851  -0.185  0.00  0.00    -0.492 OA
BRANCH  34  35
ATOM     35  C   UNL     1       3.345  -4.351  -1.318  0.00  0.00    +0.229 C 
BRANCH  35  36
ATOM     36  C   UNL     1       4.331  -3.723  -2.305  0.00  0.00    +0.041 C 
BRANCH  36  38
ATOM     37  C   UNL     1       4.554  -2.560  -4.506  0.00  0.00    +0.004 C 
ATOM     38  C   UNL     1       3.568  -3.188  -3.518  0.00  0.00    -0.000 C 
ENDBRANCH  36  38
ENDBRANCH  35  36
ENDBRANCH  34  35
ENDBRANCH  28  34
ENDBRANCH  26  32
ENDBRANCH  25  26
ENDBRANCH   1  25
TORSDOF 11
