REMARK  Name = ZINC26117115
REMARK  7 active torsions:
REMARK  status: ('A' for Active; 'I' for Inactive)
REMARK    1  A    between atoms: C_4  and  C_7
REMARK    2  A    between atoms: C_7  and  C_9
REMARK    3  A    between atoms: C_7  and  O_31
REMARK    4  A    between atoms: N_12  and  C_15
REMARK    5  A    between atoms: C_15  and  C_16
REMARK    6  A    between atoms: N_18  and  C_19
REMARK    7  A    between atoms: C_20  and  C_29
REMARK                            x       y       z     vdW  Elec       q    Type
REMARK                         _______ _______ _______ _____ _____    ______ ____
ROOT
ATOM      1  C   UNL     1       1.121   3.580   0.011  0.00  0.00    +0.019 C 
ENDROOT
BRANCH   1   5
ATOM      2  C   UNL     1       4.650   5.607  -1.301  0.00  0.00    +0.019 C 
ATOM      3  C   UNL     1       3.790   6.228  -0.197  0.00  0.00    -0.012 C 
ATOM      4  C   UNL     1       2.383   5.629  -0.254  0.00  0.00    -0.078 C 
ATOM      5  N   UNL     1       2.462   4.173  -0.078  0.00  0.00    +0.385 N 
ATOM      6  C   UNL     1       3.243   3.550  -1.154  0.00  0.00    -0.078 C 
ATOM      7  C   UNL     1       4.676   4.086  -1.123  0.00  0.00    -0.012 C 
ATOM      8  H   UNL     1       2.983   3.978   0.871  0.00  0.00    -0.081 HD
BRANCH   2   9
ATOM      9  C   UNL     1       6.075   6.157  -1.210  0.00  0.00    +0.147 C 
BRANCH   9  13
ATOM     10  C   UNL     1       8.378   4.694  -4.497  0.00  0.00    +0.000 A 
ATOM     11  C   UNL     1       7.851   5.971  -4.537  0.00  0.00    +0.000 A 
ATOM     12  C   UNL     1       7.105   6.444  -3.473  0.00  0.00    +0.006 A 
ATOM     13  C   UNL     1       6.887   5.641  -2.370  0.00  0.00    -0.019 A 
ATOM     14  C   UNL     1       7.419   4.365  -2.328  0.00  0.00    +0.006 A 
ATOM     15  C   UNL     1       8.160   3.890  -3.393  0.00  0.00    +0.000 A 
ENDBRANCH   9  13
BRANCH   9  16
ATOM     16  O   UNL     1       6.672   5.732   0.016  0.00  0.00    -0.387 OA
ATOM     17  H   UNL     1       6.216   6.015   0.977  0.00  0.00    +0.210 HD
ENDBRANCH   9  16
ENDBRANCH   2   9
ENDBRANCH   1   5
BRANCH   1  18
ATOM     18  C   UNL     1       0.446   4.051   1.273  0.00  0.00    +0.201 C 
ATOM     19  O   UNL     1       1.063   4.713   2.080  0.00  0.00    -0.278 OA
ATOM     20  N   UNL     1      -0.844   3.736   1.505  0.00  0.00    -0.281 N 
ATOM     21  H   UNL     1      -1.404   3.136   0.773  0.00  0.00    +0.155 HD
BRANCH  20  22
ATOM     22  C   UNL     1      -1.466   4.170   2.668  0.00  0.00    +0.090 A 
ATOM     23  C   UNL     1      -2.771   3.956   3.078  0.00  0.00    +0.084 A 
ATOM     24  C   UNL     1      -3.182   4.517   4.357  0.00  0.00    -0.018 A 
ATOM     25  C   UNL     1      -2.224   5.214   5.006  0.00  0.00    -0.004 A 
ATOM     26  S   UNL     1      -0.800   5.117   3.956  0.00  0.00    -0.077 S 
ATOM     27  C   UNL     1      -2.340   5.926   6.318  0.00  0.00    +0.043 C 
ATOM     28  C   UNL     1      -2.986   4.989   7.347  0.00  0.00    +0.005 C 
ATOM     29  C   UNL     1      -4.499   5.169   7.282  0.00  0.00    +0.001 C 
ATOM     30  C   UNL     1      -4.929   5.490   5.851  0.00  0.00    +0.005 C 
ATOM     31  C   UNL     1      -4.585   4.332   4.920  0.00  0.00    +0.037 C 
BRANCH  23  32
ATOM     32  C   UNL     1      -3.686   3.204   2.272  0.00  0.00    +0.102 C 
ATOM     33  N   UNL     1      -4.411   2.608   1.632  0.00  0.00    -0.191 NA
ENDBRANCH  23  32
ENDBRANCH  20  22
ENDBRANCH   1  18
TORSDOF 7
