REMARK  Name = ZINC39923217
REMARK  8 active torsions:
REMARK  status: ('A' for Active; 'I' for Inactive)
REMARK    1  A    between atoms: C_10  and  C_11
REMARK    2  A    between atoms: C_11  and  O_12
REMARK    3  A    between atoms: O_12  and  C_13
REMARK    4  A    between atoms: C_18  and  C_19
REMARK    5  A    between atoms: C_21  and  C_25
REMARK    6  A    between atoms: N_27  and  N_28
REMARK    7  A    between atoms: C_29  and  C_30
REMARK    8  A    between atoms: C_39  and  O_40
REMARK                            x       y       z     vdW  Elec       q    Type
REMARK                         _______ _______ _______ _____ _____    ______ ____
ROOT
ATOM      1  C   UNL     1       8.281  -2.496   0.044  0.00  0.00    +0.095 C 
ATOM      2  C   UNL     1       7.103  -3.149   0.019  0.00  0.00    +0.041 C 
ATOM      3  C   UNL     1       7.499  -4.609  -0.117  0.00  0.00    +0.240 C 
ATOM      4  N   UNL     1       8.970  -4.555  -0.152  0.00  0.00    -0.170 NA
ATOM      5  N   UNL     1       9.312  -3.374  -0.065  0.00  0.00    -0.153 NA
ENDROOT
BRANCH   1  11
ATOM      6  C   UNL     1       7.308  -0.221   0.386  0.00  0.00    +0.130 A 
ATOM      7  C   UNL     1       7.458   1.151   0.505  0.00  0.00    +0.046 A 
ATOM      8  C   UNL     1       8.712   1.722   0.401  0.00  0.00    +0.004 A 
ATOM      9  C   UNL     1       9.824   0.929   0.178  0.00  0.00    +0.001 A 
ATOM     10  C   UNL     1       9.690  -0.439   0.058  0.00  0.00    +0.014 A 
ATOM     11  C   UNL     1       8.430  -1.026   0.166  0.00  0.00    +0.044 A 
BRANCH   6  12
ATOM     12  O   UNL     1       6.076  -0.784   0.488  0.00  0.00    -0.487 OA
BRANCH  12  13
ATOM     13  C   UNL     1       4.964   0.106   0.608  0.00  0.00    +0.265 C 
BRANCH  13  23
ATOM     14  C   UNL     1       0.007   1.211   1.249  0.00  0.00    +0.001 A 
ATOM     15  C   UNL     1       1.157   1.962   1.010  0.00  0.00    +0.001 A 
ATOM     16  C   UNL     1       2.372   1.363   0.882  0.00  0.00    +0.009 A 
ATOM     17  C   UNL     1       2.473  -0.034   0.993  0.00  0.00    -0.011 A 
ATOM     18  C   UNL     1       1.305  -0.798   1.237  0.00  0.00    -0.018 A 
ATOM     19  C   UNL     1       0.067  -0.144   1.363  0.00  0.00    +0.008 A 
ATOM     20  C   UNL     1       1.406  -2.195   1.349  0.00  0.00    +0.008 A 
ATOM     21  C   UNL     1       2.622  -2.795   1.222  0.00  0.00    +0.001 A 
ATOM     22  C   UNL     1       3.770  -2.043   0.983  0.00  0.00    +0.007 A 
ATOM     23  C   UNL     1       3.710  -0.688   0.868  0.00  0.00    -0.003 A 
ENDBRANCH  13  23
ENDBRANCH  12  13
ENDBRANCH   6  12
ENDBRANCH   1  11
BRANCH   3  24
ATOM     24  C   UNL     1       7.020  -5.404   1.070  0.00  0.00    +0.263 C 
ATOM     25  O   UNL     1       7.790  -5.679   1.966  0.00  0.00    -0.271 OA
ATOM     26  N   UNL     1       5.736  -5.809   1.137  0.00  0.00    -0.205 N 
ATOM     27  H   UNL     1       5.121  -5.589   0.420  0.00  0.00    +0.177 HD
BRANCH  26  28
ATOM     28  N   UNL     1       5.291  -6.548   2.240  0.00  0.00    -0.188 NA
ATOM     29  C   UNL     1       4.053  -6.938   2.304  0.00  0.00    +0.142 C 
BRANCH  29  30
ATOM     30  C   UNL     1       3.586  -7.713   3.462  0.00  0.00    +0.044 A 
ATOM     31  C   UNL     1       2.199  -8.166   3.547  0.00  0.00    -0.006 A 
ATOM     32  C   UNL     1       1.273  -7.879   2.537  0.00  0.00    +0.009 A 
ATOM     33  C   UNL     1      -0.011  -8.320   2.654  0.00  0.00    +0.001 A 
ATOM     34  C   UNL     1      -0.417  -9.053   3.767  0.00  0.00    +0.001 A 
ATOM     35  C   UNL     1       0.457  -9.349   4.768  0.00  0.00    +0.008 A 
ATOM     36  C   UNL     1       1.790  -8.911   4.680  0.00  0.00    -0.017 A 
ATOM     37  C   UNL     1       2.721  -9.199   5.694  0.00  0.00    +0.012 A 
ATOM     38  C   UNL     1       4.007  -8.771   5.598  0.00  0.00    +0.046 A 
ATOM     39  C   UNL     1       4.458  -8.038   4.501  0.00  0.00    +0.126 A 
BRANCH  39  40
ATOM     40  O   UNL     1       5.753  -7.635   4.445  0.00  0.00    -0.506 OA
ATOM     41  H   UNL     1       5.913  -6.769   4.844  0.00  0.00    +0.292 HD
ENDBRANCH  39  40
ENDBRANCH  29  30
ENDBRANCH  26  28
ENDBRANCH   3  24
TORSDOF 8
