REMARK  Name = ZINC13568572
REMARK  11 active torsions:
REMARK  status: ('A' for Active; 'I' for Inactive)
REMARK    1  A    between atoms: C_1  and  C_2
REMARK    2  A    between atoms: C_2  and  C_3
REMARK    3  A    between atoms: C_2  and  O_4
REMARK    4  A    between atoms: O_4  and  C_5
REMARK    5  A    between atoms: C_8  and  C_11
REMARK    6  A    between atoms: C_16  and  C_22
REMARK    7  A    between atoms: C_24  and  O_31
REMARK    8  A    between atoms: C_25  and  O_30
REMARK    9  A    between atoms: C_26  and  O_28
REMARK   10  A    between atoms: O_28  and  C_29
REMARK   11  A    between atoms: O_31  and  C_32
REMARK                            x       y       z     vdW  Elec       q    Type
REMARK                         _______ _______ _______ _____ _____    ______ ____
ROOT
ATOM      1  C   UNL     1      -1.271  -5.208  -3.509  0.00  0.00    +0.032 C 
ATOM      2  C   UNL     1      -2.734  -5.018  -3.918  0.00  0.00    +0.059 C 
ATOM      3  C   UNL     1      -3.270  -6.306  -4.493  0.00  0.00    +0.018 C 
ATOM      4  C   UNL     1      -2.800  -7.500  -4.077  0.00  0.00    +0.020 C 
ATOM      5  C   UNL     1      -3.360  -8.775  -4.662  0.00  0.00    +0.063 C 
ATOM      6  C   UNL     1      -4.849  -8.587  -4.958  0.00  0.00    +0.109 C 
ATOM      7  C   UNL     1      -5.043  -7.294  -5.707  0.00  0.00    +0.218 C 
ATOM      8  O   UNL     1      -5.917  -7.205  -6.543  0.00  0.00    -0.275 OA
ATOM      9  N   UNL     1      -4.249  -6.240  -5.452  0.00  0.00    -0.289 N 
ATOM     10  C   UNL     1      -1.793  -7.590  -3.101  0.00  0.00    +0.162 C 
ATOM     11  O   UNL     1      -1.403  -8.684  -2.744  0.00  0.00    -0.292 OA
ATOM     12  C   UNL     1      -1.189  -6.353  -2.493  0.00  0.00    +0.088 C 
ATOM     13  H   UNL     1      -4.371  -5.419  -5.953  0.00  0.00    +0.155 HD
ENDROOT
BRANCH   1  17
ATOM     14  C   UNL     1       0.202  -1.609  -1.737  0.00  0.00    +0.121 A 
ATOM     15  C   UNL     1      -0.879  -2.270  -1.172  0.00  0.00    +0.046 A 
ATOM     16  C   UNL     1      -1.357  -3.430  -1.750  0.00  0.00    +0.007 A 
ATOM     17  C   UNL     1      -0.752  -3.939  -2.884  0.00  0.00    -0.043 A 
ATOM     18  C   UNL     1       0.330  -3.286  -3.446  0.00  0.00    +0.007 A 
ATOM     19  C   UNL     1       0.808  -2.122  -2.875  0.00  0.00    +0.046 A 
BRANCH  14  20
ATOM     20  O   UNL     1       0.671  -0.465  -1.174  0.00  0.00    -0.489 OA
BRANCH  20  22
ATOM     21  C   UNL     1       2.573   0.940  -0.675  0.00  0.00    +0.051 C 
ATOM     22  C   UNL     1       1.862   0.093  -1.732  0.00  0.00    +0.167 C 
ATOM     23  C   UNL     1       1.500   0.972  -2.931  0.00  0.00    +0.051 C 
ENDBRANCH  20  22
ENDBRANCH  14  20
ENDBRANCH   1  17
BRANCH   5  24
ATOM     24  C   UNL     1      -2.631  -9.105  -5.939  0.00  0.00    -0.032 A 
ATOM     25  C   UNL     1      -2.659  -8.216  -6.997  0.00  0.00    +0.054 A 
ATOM     26  C   UNL     1      -1.985  -8.513  -8.172  0.00  0.00    +0.165 A 
ATOM     27  C   UNL     1      -1.290  -9.711  -8.289  0.00  0.00    +0.201 A 
ATOM     28  C   UNL     1      -1.270 -10.604  -7.224  0.00  0.00    +0.165 A 
ATOM     29  C   UNL     1      -1.942 -10.297  -6.051  0.00  0.00    +0.054 A 
BRANCH  28  30
ATOM     30  O   UNL     1      -0.592 -11.778  -7.334  0.00  0.00    -0.491 OA
ATOM     31  C   UNL     1      -0.614 -12.648  -6.201  0.00  0.00    +0.277 C 
ENDBRANCH  28  30
BRANCH  27  32
ATOM     32  O   UNL     1      -0.631 -10.008  -9.442  0.00  0.00    -0.501 OA
ATOM     33  H   UNL     1      -1.168 -10.485 -10.090  0.00  0.00    +0.292 HD
ENDBRANCH  27  32
BRANCH  26  34
ATOM     34  O   UNL     1      -2.008  -7.635  -9.211  0.00  0.00    -0.491 OA
ATOM     35  C   UNL     1      -2.742  -6.424  -9.020  0.00  0.00    +0.277 C 
ENDBRANCH  26  34
ENDBRANCH   5  24
TORSDOF 7
