REMARK  Name = ZINC60367042
REMARK  7 active torsions:
REMARK  status: ('A' for Active; 'I' for Inactive)
REMARK    1  A    between atoms: C_1  and  C_2
REMARK    2  A    between atoms: C_5  and  N_9
REMARK    3  A    between atoms: C_10  and  C_12
REMARK    4  A    between atoms: C_12  and  C_14
REMARK    5  A    between atoms: C_12  and  N_15
REMARK    6  A    between atoms: C_18  and  C_21
REMARK    7  A    between atoms: C_23  and  C_26
REMARK                            x       y       z     vdW  Elec       q    Type
REMARK                         _______ _______ _______ _____ _____    ______ ____
ROOT
ATOM      1  N   UNL     1      -0.114  -6.834  -2.574  0.00  0.00    +0.387 N 
ATOM      2  C   UNL     1      -0.076  -8.302  -2.571  0.00  0.00    -0.077 C 
ATOM      3  C   UNL     1       0.030  -8.816  -4.008  0.00  0.00    -0.006 C 
ATOM      4  C   UNL     1      -1.186  -8.338  -4.806  0.00  0.00    +0.074 C 
ATOM      5  C   UNL     1      -1.258  -6.809  -4.741  0.00  0.00    -0.006 C 
ATOM      6  C   UNL     1      -1.315  -6.369  -3.276  0.00  0.00    -0.077 C 
ATOM      7  H   UNL     1       0.707  -6.480  -3.042  0.00  0.00    -0.081 HD
ENDROOT
BRANCH   4   8
ATOM      8  C   UNL     1      -1.051  -8.775  -6.242  0.00  0.00    +0.231 A 
ATOM      9  N   UNL     1      -1.883  -9.542  -6.886  0.00  0.00    -0.190 NA
ATOM     10  C   UNL     1      -1.456  -9.729  -8.147  0.00  0.00    +0.220 A 
ATOM     11  N   UNL     1      -0.335  -9.072  -8.311  0.00  0.00    -0.054 NA
ATOM     12  O   UNL     1      -0.057  -8.435  -7.073  0.00  0.00    -0.337 OA
BRANCH  10  13
ATOM     13  C   UNL     1      -2.140 -10.545  -9.181  0.00  0.00    +0.111 A 
ATOM     14  C   UNL     1      -1.582 -10.659 -10.452  0.00  0.00    +0.031 A 
ATOM     15  C   UNL     1      -2.232 -11.424 -11.406  0.00  0.00    +0.004 A 
ATOM     16  C   UNL     1      -3.420 -12.049 -11.057  0.00  0.00    +0.020 A 
ATOM     17  C   UNL     1      -3.917 -11.893  -9.776  0.00  0.00    +0.111 A 
ATOM     18  N   UNL     1      -3.276 -11.164  -8.886  0.00  0.00    -0.252 NA
ENDBRANCH  10  13
ENDBRANCH   4   8
BRANCH   1  19
ATOM     19  C   UNL     1      -0.136  -6.343  -1.190  0.00  0.00    +0.016 C 
ATOM     20  C   UNL     1       1.083  -6.882  -0.438  0.00  0.00    -0.004 C 
BRANCH  19  22
ATOM     21  N   UNL     1      -0.659  -4.149  -0.175  0.00  0.00    -0.286 N 
ATOM     22  C   UNL     1      -0.100  -4.836  -1.191  0.00  0.00    +0.203 C 
ATOM     23  O   UNL     1       0.431  -4.243  -2.105  0.00  0.00    -0.277 OA
ATOM     24  H   UNL     1      -1.027  -4.622   0.587  0.00  0.00    +0.155 HD
BRANCH  21  29
ATOM     25  C   UNL     1      -0.858   1.519  -0.361  0.00  0.00    +0.044 C 
ATOM     26  C   UNL     1      -0.805   0.014  -0.311  0.00  0.00    -0.049 A 
ATOM     27  C   UNL     1       0.225  -0.662  -0.939  0.00  0.00    +0.005 A 
ATOM     28  C   UNL     1       0.277  -2.041  -0.896  0.00  0.00    +0.024 A 
ATOM     29  C   UNL     1      -0.708  -2.751  -0.220  0.00  0.00    +0.047 A 
ATOM     30  C   UNL     1      -1.741  -2.069   0.410  0.00  0.00    +0.039 A 
ATOM     31  C   UNL     1      -1.784  -0.689   0.367  0.00  0.00    +0.020 A 
ATOM     32 BR   UNL     1      -3.085  -3.030   1.331  0.00  0.00    -0.048 Br
ENDBRANCH  21  29
ENDBRANCH  19  22
ENDBRANCH   1  19
TORSDOF 5
