REMARK  Name = ZINC23354197
REMARK  12 active torsions:
REMARK  status: ('A' for Active; 'I' for Inactive)
REMARK    1  A    between atoms: C_1  and  C_2
REMARK    2  A    between atoms: C_2  and  N_3
REMARK    3  A    between atoms: N_3  and  C_4
REMARK    4  A    between atoms: N_3  and  C_6
REMARK    5  A    between atoms: C_4  and  C_5
REMARK    6  A    between atoms: C_6  and  C_7
REMARK    7  A    between atoms: C_7  and  N_8
REMARK    8  A    between atoms: N_8  and  C_9
REMARK    9  A    between atoms: N_8  and  C_11
REMARK   10  A    between atoms: C_9  and  C_10
REMARK   11  A    between atoms: C_17  and  C_21
REMARK   12  A    between atoms: N_19  and  C_20
REMARK                            x       y       z     vdW  Elec       q    Type
REMARK                         _______ _______ _______ _____ _____    ______ ____
ROOT
ATOM      1  C   UNL     1       1.471  -4.888   2.329  0.00  0.00    +0.061 C 
ATOM      2  C   UNL     1       2.833  -4.383   1.846  0.00  0.00    +0.025 C 
ATOM      3  C   UNL     1       3.943  -4.970   2.727  0.00  0.00    +0.057 C 
ATOM      4  C   UNL     1       3.735  -6.460   2.822  0.00  0.00    +0.043 A 
ATOM      5  C   UNL     1       2.575  -7.083   2.499  0.00  0.00    +0.007 A 
ATOM      6  C   UNL     1       2.797  -8.452   2.722  0.00  0.00    +0.151 A 
ATOM      7  N   UNL     1       4.041  -8.569   3.154  0.00  0.00    -0.166 NA
ATOM      8  N   UNL     1       4.599  -7.409   3.217  0.00  0.00    -0.270 N 
ATOM      9  C   UNL     1       5.975  -7.162   3.657  0.00  0.00    +0.172 C 
ATOM     10  C   UNL     1       1.337  -6.383   2.010  0.00  0.00    +0.058 C 
ENDROOT
BRANCH   6  11
ATOM     11  C   UNL     1       1.829  -9.548   2.514  0.00  0.00    +0.267 C 
ATOM     12  O   UNL     1       0.746  -9.316   2.013  0.00  0.00    -0.268 OA
ATOM     13  N   UNL     1       2.146 -10.806   2.880  0.00  0.00    -0.295 N 
ATOM     14  C   UNL     1       3.391 -11.055   3.609  0.00  0.00    +0.119 C 
ATOM     15  C   UNL     1       3.065 -11.547   5.024  0.00  0.00    +0.088 C 
ATOM     16  S   UNL     1       2.032 -13.038   4.896  0.00  0.00    -0.158 S 
ATOM     17  C   UNL     1       0.660 -12.501   3.831  0.00  0.00    +0.088 C 
ATOM     18  C   UNL     1       1.239 -11.906   2.549  0.00  0.00    +0.119 C 
ENDBRANCH   6  11
BRANCH   1  19
ATOM     19  N   UNL     1       0.404  -4.144   1.646  0.00  0.00    -0.301 NA
BRANCH  19  20
ATOM     20  C   UNL     1       0.395  -2.735   2.062  0.00  0.00    +0.081 C 
ATOM     21  C   UNL     1       0.125  -2.649   3.566  0.00  0.00    +0.020 C 
ENDBRANCH  19  20
BRANCH  19  22
ATOM     22  C   UNL     1       0.530  -4.262   0.188  0.00  0.00    +0.066 C 
BRANCH  22  23
ATOM     23  C   UNL     1      -0.715  -3.674  -0.481  0.00  0.00    -0.063 C 
BRANCH  23  24
ATOM     24  N   UNL     1      -0.588  -3.791  -1.940  0.00  0.00    +0.380 N 
ATOM     25  H   UNL     1       0.272  -3.357  -2.239  0.00  0.00    -0.082 HD
BRANCH  24  27
ATOM     26  C   UNL     1      -0.305  -5.337  -3.818  0.00  0.00    -0.017 C 
ATOM     27  C   UNL     1      -0.578  -5.211  -2.318  0.00  0.00    -0.082 C 
ENDBRANCH  24  27
BRANCH  24  28
ATOM     28  C   UNL     1      -1.725  -3.121  -2.585  0.00  0.00    -0.082 C 
ATOM     29  C   UNL     1      -1.654  -1.617  -2.309  0.00  0.00    -0.017 C 
ENDBRANCH  24  28
ENDBRANCH  23  24
ENDBRANCH  22  23
ENDBRANCH  19  22
ENDBRANCH   1  19
TORSDOF 8
