REMARK  Name = ZINC13363379
REMARK  7 active torsions:
REMARK  status: ('A' for Active; 'I' for Inactive)
REMARK    1  A    between atoms: C_1  and  C_2
REMARK    2  A    between atoms: C_2  and  O_3
REMARK    3  A    between atoms: O_3  and  C_4
REMARK    4  A    between atoms: C_9  and  C_10
REMARK    5  A    between atoms: C_23  and  S_25
REMARK    6  A    between atoms: S_25  and  C_26
REMARK    7  A    between atoms: C_26  and  C_27
REMARK                            x       y       z     vdW  Elec       q    Type
REMARK                         _______ _______ _______ _____ _____    ______ ____
ROOT
ATOM      1  C   UNL     1      -0.082   5.350   0.031  0.00  0.00    +0.179 C 
ATOM      2  C   UNL     1      -0.780   5.834   1.283  0.00  0.00    +0.041 C 
ATOM      3  C   UNL     1      -2.025   6.355   1.255  0.00  0.00    +0.020 C 
ATOM      4  C   UNL     1      -2.705   6.806   2.526  0.00  0.00    +0.052 C 
ATOM      5  C   UNL     1      -1.658   7.314   3.518  0.00  0.00    +0.014 C 
ATOM      6  C   UNL     1      -0.666   6.180   3.796  0.00  0.00    +0.080 C 
ATOM      7  C   UNL     1      -0.072   5.720   2.493  0.00  0.00    +0.163 C 
ATOM      8  O   UNL     1       1.043   5.238   2.486  0.00  0.00    -0.292 OA
ATOM      9  N   UNL     1      -2.726   6.495   0.081  0.00  0.00    -0.287 N 
ATOM     10  C   UNL     1      -2.035   6.360  -1.111  0.00  0.00    +0.219 A 
ATOM     11  N   UNL     1      -0.788   5.829  -1.151  0.00  0.00    -0.220 N 
ATOM     12  N   UNL     1      -0.388   5.850  -2.486  0.00  0.00    -0.141 NA
ATOM     13  C   UNL     1      -1.382   6.373  -3.172  0.00  0.00    +0.211 A 
ATOM     14  N   UNL     1      -2.379   6.679  -2.329  0.00  0.00    -0.187 NA
ATOM     15  H   UNL     1      -3.678   6.683   0.088  0.00  0.00    +0.155 HD
ENDROOT
BRANCH   1  21
ATOM     16  C   UNL     1       1.155   3.169   0.008  0.00  0.00    +0.126 A 
ATOM     17  C   UNL     1       1.174   1.782   0.000  0.00  0.00    +0.046 A 
ATOM     18  C   UNL     1      -0.013   1.076   0.008  0.00  0.00    +0.004 A 
ATOM     19  C   UNL     1      -1.220   1.750   0.017  0.00  0.00    +0.001 A 
ATOM     20  C   UNL     1      -1.242   3.132   0.030  0.00  0.00    +0.009 A 
ATOM     21  C   UNL     1      -0.057   3.844   0.022  0.00  0.00    +0.023 A 
BRANCH  16  22
ATOM     22  O   UNL     1       2.321   3.867   0.001  0.00  0.00    -0.492 OA
BRANCH  22  24
ATOM     23  C   UNL     1       4.731   4.057  -0.020  0.00  0.00    +0.048 C 
ATOM     24  C   UNL     1       3.531   3.107  -0.014  0.00  0.00    +0.225 C 
ENDBRANCH  22  24
ENDBRANCH  16  22
ENDBRANCH   1  21
BRANCH  13  25
ATOM     25  S   UNL     1      -1.400   6.628  -4.915  0.00  0.00    -0.080 S 
BRANCH  25  26
ATOM     26  C   UNL     1      -3.025   7.369  -5.233  0.00  0.00    +0.112 C 
BRANCH  26  27
ATOM     27  C   UNL     1      -3.173   7.641  -6.708  0.00  0.00    -0.037 A 
ATOM     28  C   UNL     1      -2.779   8.861  -7.227  0.00  0.00    +0.007 A 
ATOM     29  C   UNL     1      -2.909   9.110  -8.581  0.00  0.00    +0.038 A 
ATOM     30  C   UNL     1      -3.444   8.143  -9.414  0.00  0.00    +0.123 A 
ATOM     31  C   UNL     1      -3.844   6.924  -8.892  0.00  0.00    +0.038 A 
ATOM     32  C   UNL     1      -3.707   6.675  -7.539  0.00  0.00    +0.007 A 
ATOM     33  F   UNL     1      -3.577   8.388 -10.736  0.00  0.00    -0.205 F 
ENDBRANCH  26  27
ENDBRANCH  25  26
ENDBRANCH  13  25
TORSDOF 6
