REMARK  Name = ZINC21327116
REMARK  6 active torsions:
REMARK  status: ('A' for Active; 'I' for Inactive)
REMARK    1  A    between atoms: C_3  and  N_9
REMARK    2  A    between atoms: C_10  and  C_12
REMARK    3  A    between atoms: C_12  and  S_13
REMARK    4  A    between atoms: S_13  and  C_14
REMARK    5  A    between atoms: N_18  and  N_19
REMARK    6  A    between atoms: N_20  and  N_21
REMARK                            x       y       z     vdW  Elec       q    Type
REMARK                         _______ _______ _______ _____ _____    ______ ____
ROOT
ATOM      1  C   UNL     1      -0.036   0.229  -0.006  0.00  0.00    +0.210 A 
ATOM      2  N   UNL     1       1.229  -0.115  -0.013  0.00  0.00    -0.119 NA
ATOM      3  N   UNL     1       1.997   1.057  -0.022  0.00  0.00    -0.109 NA
ATOM      4  C   UNL     1       1.176   2.079  -0.021  0.00  0.00    +0.254 A 
ATOM      5  N   UNL     1      -0.102   1.594  -0.011  0.00  0.00    -0.211 N 
ATOM      6  N   UNL     1       1.540   3.418  -0.029  0.00  0.00    -0.204 N 
ATOM      7  H   UNL     1       0.766   4.199  -0.028  0.00  0.00    +0.177 HD
ENDROOT
BRANCH   6   8
ATOM      8  N   UNL     1       2.895   3.776  -0.039  0.00  0.00    -0.189 NA
ATOM      9  C   UNL     1       3.233   5.007   0.052  0.00  0.00    +0.037 C 
ATOM     10  C   UNL     1       2.187   6.100   0.053  0.00  0.00    +0.052 C 
ATOM     11  C   UNL     1       2.442   7.011   1.265  0.00  0.00    +0.006 C 
ATOM     12  C   UNL     1       3.884   7.519   1.222  0.00  0.00    +0.001 C 
ATOM     13  C   UNL     1       4.852   6.342   1.358  0.00  0.00    +0.006 C 
ATOM     14  C   UNL     1       4.688   5.407   0.155  0.00  0.00    +0.052 C 
ENDBRANCH   6   8
BRANCH   5  15
ATOM     15  N   UNL     1      -1.245   2.342  -0.011  0.00  0.00    -0.294 N 
ATOM     16  H   UNL     1      -1.183   3.441  -0.015  0.00  0.00    +0.163 HD
ATOM     17  H   UNL     1      -2.227   1.847  -0.007  0.00  0.00    +0.163 HD
ENDBRANCH   5  15
BRANCH   1  18
ATOM     18  S   UNL     1      -1.410  -0.874   0.007  0.00  0.00    -0.075 S 
BRANCH  18  19
ATOM     19  C   UNL     1      -0.650  -2.521   0.009  0.00  0.00    +0.173 C 
BRANCH  19  21
ATOM     20  N   UNL     1      -1.398  -4.879   0.022  0.00  0.00    -0.283 N 
ATOM     21  C   UNL     1      -1.729  -3.573   0.019  0.00  0.00    +0.228 C 
ATOM     22  O   UNL     1      -2.897  -3.243   0.025  0.00  0.00    -0.275 OA
ATOM     23  H   UNL     1      -0.342  -5.179  -0.057  0.00  0.00    +0.155 HD
BRANCH  20  26
ATOM     24  C   UNL     1      -4.621  -6.611  -0.360  0.00  0.00    +0.040 A 
ATOM     25  C   UNL     1      -3.636  -5.647  -0.463  0.00  0.00    +0.029 A 
ATOM     26  C   UNL     1      -2.398  -5.856   0.126  0.00  0.00    +0.069 A 
ATOM     27  C   UNL     1      -2.148  -7.038   0.815  0.00  0.00    +0.147 A 
ATOM     28  C   UNL     1      -3.138  -7.997   0.919  0.00  0.00    +0.078 A 
ATOM     29  C   UNL     1      -4.373  -7.785   0.330  0.00  0.00    +0.126 A 
ATOM     30  F   UNL     1      -5.338  -8.726   0.430  0.00  0.00    -0.205 F 
ATOM     31  F   UNL     1      -0.941  -7.246   1.385  0.00  0.00    -0.203 F 
ENDBRANCH  20  26
ENDBRANCH  19  21
ENDBRANCH  18  19
ENDBRANCH   1  18
TORSDOF 6
