REMARK  Name = ZINC08442040
REMARK  14 active torsions:
REMARK  status: ('A' for Active; 'I' for Inactive)
REMARK    1  A    between atoms: C_1  and  C_2
REMARK    2  A    between atoms: C_2  and  C_3
REMARK    3  A    between atoms: C_2  and  C_4
REMARK    4  A    between atoms: C_2  and  O_5
REMARK    5  A    between atoms: O_5  and  C_6
REMARK    6  A    between atoms: C_15  and  C_27
REMARK    7  A    between atoms: C_17  and  C_23
REMARK    8  A    between atoms: C_17  and  C_25
REMARK    9  A    between atoms: C_18  and  N_22
REMARK   10  A    between atoms: C_19  and  C_20
REMARK   11  A    between atoms: C_29  and  O_35
REMARK   12  A    between atoms: C_32  and  O_33
REMARK   13  A    between atoms: O_33  and  C_34
REMARK   14  A    between atoms: O_35  and  C_36
REMARK                            x       y       z     vdW  Elec       q    Type
REMARK                         _______ _______ _______ _____ _____    ______ ____
ROOT
ATOM      1  C   UNL     1      -0.921   0.837  -2.142  0.00  0.00    +0.404 C 
ATOM      2  O   UNL     1      -0.688  -0.353  -2.063  0.00  0.00    -0.226 OA
ATOM      3  N   UNL     1      -0.586   1.658  -1.127  0.00  0.00    -0.263 N 
ATOM      4  C   UNL     1      -0.856   3.107  -1.189  0.00  0.00    +0.138 C 
ATOM      5  C   UNL     1      -1.690   3.453   0.018  0.00  0.00    -0.003 C 
ATOM      6  C   UNL     1      -1.606   2.750   1.130  0.00  0.00    -0.026 C 
ATOM      7  C   UNL     1      -0.681   1.587   1.328  0.00  0.00    +0.048 C 
ATOM      8  C   UNL     1       0.060   1.149   0.087  0.00  0.00    +0.120 C 
ATOM      9  C   UNL     1      -1.472   0.443   1.962  0.00  0.00    +0.071 C 
ATOM     10  C   UNL     1      -1.960   0.884   3.343  0.00  0.00    +0.188 C 
ATOM     11  C   UNL     1      -2.646   2.216   3.289  0.00  0.00    +0.054 C 
ATOM     12  C   UNL     1      -2.487   3.104   2.276  0.00  0.00    +0.074 C 
ENDROOT
BRANCH   9  13
ATOM     13  C   UNL     1      -0.586  -0.767   2.103  0.00  0.00    +0.004 A 
ATOM     14  C   UNL     1       0.647  -0.653   2.716  0.00  0.00    +0.053 A 
ATOM     15  C   UNL     1       1.460  -1.769   2.851  0.00  0.00    +0.121 A 
ATOM     16  C   UNL     1       1.041  -2.996   2.360  0.00  0.00    +0.049 A 
ATOM     17  C   UNL     1      -0.189  -3.109   1.742  0.00  0.00    +0.049 A 
ATOM     18  C   UNL     1      -1.005  -1.995   1.612  0.00  0.00    +0.124 A 
BRANCH  18  19
ATOM     19  O   UNL     1      -2.216  -2.106   1.004  0.00  0.00    -0.495 OA
ATOM     20  C   UNL     1      -2.583  -3.400   0.522  0.00  0.00    +0.277 C 
ENDBRANCH  18  19
BRANCH  15  21
ATOM     21  O   UNL     1       2.671  -1.657   3.460  0.00  0.00    -0.495 OA
ATOM     22  C   UNL     1       3.459  -2.845   3.558  0.00  0.00    +0.277 C 
ENDBRANCH  15  21
ENDBRANCH   9  13
BRANCH  11  23
ATOM     23  N   UNL     1      -3.478   2.554   4.319  0.00  0.00    -0.358 N 
ATOM     24  H   UNL     1      -3.998   3.524   4.310  0.00  0.00    +0.142 HD
ATOM     25  H   UNL     1      -3.629   1.857   5.156  0.00  0.00    +0.142 HD
ENDBRANCH  11  23
BRANCH  12  26
ATOM     26  C   UNL     1      -3.159   4.367   2.309  0.00  0.00    +0.101 C 
ATOM     27  N   UNL     1      -3.693   5.370   2.335  0.00  0.00    -0.191 NA
ENDBRANCH  12  26
BRANCH  10  28
ATOM     28  C   UNL     1      -0.806   0.976   4.253  0.00  0.00    +0.091 C 
ATOM     29  N   UNL     1       0.085   1.046   4.955  0.00  0.00    -0.194 NA
ENDBRANCH  10  28
BRANCH  10  30
ATOM     30  C   UNL     1      -2.901  -0.121   3.862  0.00  0.00    +0.091 C 
ATOM     31  N   UNL     1      -3.628  -0.896   4.263  0.00  0.00    -0.194 NA
ENDBRANCH  10  30
BRANCH   1  32
ATOM     32  O   UNL     1      -1.514   1.336  -3.243  0.00  0.00    -0.445 OA
BRANCH  32  34
ATOM     33  C   UNL     1      -2.811  -0.661  -3.752  0.00  0.00    +0.055 C 
ATOM     34  C   UNL     1      -1.846   0.393  -4.296  0.00  0.00    +0.107 C 
ATOM     35  C   UNL     1      -2.507   1.138  -5.457  0.00  0.00    +0.055 C 
ATOM     36  C   UNL     1      -0.570  -0.290  -4.790  0.00  0.00    +0.055 C 
ENDBRANCH  32  34
ENDBRANCH   1  32
TORSDOF 9
