REMARK  Name = ZINC38660934
REMARK  11 active torsions:
REMARK  status: ('A' for Active; 'I' for Inactive)
REMARK    1  A    between atoms: C_1  and  C_2
REMARK    2  A    between atoms: C_2  and  O_3
REMARK    3  A    between atoms: O_3  and  C_4
REMARK    4  A    between atoms: C_9  and  C_10
REMARK    5  A    between atoms: C_10  and  O_12
REMARK    6  A    between atoms: O_12  and  C_13
REMARK    7  A    between atoms: C_20  and  N_39
REMARK    8  A    between atoms: C_21  and  C_37
REMARK    9  A    between atoms: C_22  and  C_24
REMARK   10  A    between atoms: C_28  and  O_30
REMARK   11  A    between atoms: O_30  and  C_31
REMARK                            x       y       z     vdW  Elec       q    Type
REMARK                         _______ _______ _______ _____ _____    ______ ____
ROOT
ATOM      1  C   UNL     1       2.773  -0.916  -5.199  0.00  0.00    +0.135 A 
ATOM      2  C   UNL     1       2.685   0.439  -4.913  0.00  0.00    +0.047 A 
ATOM      3  C   UNL     1       3.254   1.363  -5.767  0.00  0.00    +0.012 A 
ATOM      4  C   UNL     1       3.913   0.944  -6.908  0.00  0.00    +0.008 A 
ATOM      5  C   UNL     1       4.005  -0.409  -7.199  0.00  0.00    +0.138 A 
ATOM      6  C   UNL     1       3.438  -1.340  -6.338  0.00  0.00    +0.093 A 
ATOM      7  O   UNL     1       4.647  -0.839  -8.313  0.00  0.00    -0.441 OA
ATOM      8  C   UNL     1       5.519  -0.030  -8.938  0.00  0.00    +0.199 C 
ATOM      9  C   UNL     1       5.514   1.311  -8.751  0.00  0.00    +0.098 C 
ATOM     10  C   UNL     1       4.527   1.967  -7.827  0.00  0.00    +0.098 C 
ENDROOT
BRANCH  10  11
ATOM     11  C   UNL     1       3.441   2.622  -8.641  0.00  0.00    -0.031 A 
ATOM     12  C   UNL     1       2.641   1.856  -9.469  0.00  0.00    +0.005 A 
ATOM     13  C   UNL     1       1.644   2.454 -10.217  0.00  0.00    +0.004 A 
ATOM     14  C   UNL     1       1.444   3.819 -10.138  0.00  0.00    +0.046 A 
ATOM     15  C   UNL     1       2.244   4.589  -9.308  0.00  0.00    +0.129 A 
ATOM     16  C   UNL     1       3.241   3.986  -8.554  0.00  0.00    +0.050 A 
BRANCH  15  17
ATOM     17  O   UNL     1       2.050   5.932  -9.229  0.00  0.00    -0.456 OA
BRANCH  17  18
ATOM     18  C   UNL     1       2.935   6.663  -8.503  0.00  0.00    +0.128 A 
ATOM     19  C   UNL     1       4.245   6.802  -8.940  0.00  0.00    +0.046 A 
ATOM     20  C   UNL     1       5.144   7.546  -8.200  0.00  0.00    +0.004 A 
ATOM     21  C   UNL     1       4.739   8.152  -7.025  0.00  0.00    +0.000 A 
ATOM     22  C   UNL     1       3.434   8.015  -6.587  0.00  0.00    +0.004 A 
ATOM     23  C   UNL     1       2.530   7.277  -7.327  0.00  0.00    +0.046 A 
ENDBRANCH  17  18
ENDBRANCH  15  17
ENDBRANCH  10  11
BRANCH   8  24
ATOM     24  N   UNL     1       6.441  -0.580  -9.794  0.00  0.00    -0.328 N 
ATOM     25  H   UNL     1       6.457  -1.538  -9.939  0.00  0.00    +0.145 HD
ATOM     26  H   UNL     1       7.077  -0.009 -10.253  0.00  0.00    +0.145 HD
ENDBRANCH   8  24
BRANCH   9  27
ATOM     27  C   UNL     1       6.469   2.120  -9.447  0.00  0.00    +0.101 C 
ATOM     28  N   UNL     1       7.226   2.762  -9.998  0.00  0.00    -0.191 NA
ENDBRANCH   9  27
BRANCH   1  29
ATOM     29  O   UNL     1       2.213  -1.827  -4.360  0.00  0.00    -0.422 OA
BRANCH  29  30
ATOM     30  C   UNL     1       3.032  -2.530  -3.551  0.00  0.00    +0.348 C 
ATOM     31  O   UNL     1       4.237  -2.406  -3.651  0.00  0.00    -0.244 OA
BRANCH  30  37
ATOM     32  C   UNL     1       3.313  -4.181  -1.705  0.00  0.00    +0.134 A 
ATOM     33  C   UNL     1       2.769  -5.038  -0.760  0.00  0.00    +0.046 A 
ATOM     34  C   UNL     1       1.399  -5.172  -0.654  0.00  0.00    +0.004 A 
ATOM     35  C   UNL     1       0.558  -4.454  -1.489  0.00  0.00    +0.001 A 
ATOM     36  C   UNL     1       1.081  -3.598  -2.434  0.00  0.00    +0.018 A 
ATOM     37  C   UNL     1       2.466  -3.448  -2.548  0.00  0.00    +0.101 A 
BRANCH  32  38
ATOM     38  O   UNL     1       4.659  -4.049  -1.810  0.00  0.00    -0.491 OA
BRANCH  38  40
ATOM     39  C   UNL     1       6.939  -4.546  -1.183  0.00  0.00    +0.048 C 
ATOM     40  C   UNL     1       5.459  -4.827  -0.917  0.00  0.00    +0.226 C 
ENDBRANCH  38  40
ENDBRANCH  32  38
ENDBRANCH  30  37
ENDBRANCH  29  30
ENDBRANCH   1  29
TORSDOF 10
