REMARK  Name = ZINC66717054
REMARK  10 active torsions:
REMARK  status: ('A' for Active; 'I' for Inactive)
REMARK    1  A    between atoms: C_1  and  C_2
REMARK    2  A    between atoms: C_5  and  C_9
REMARK    3  A    between atoms: C_6  and  C_8
REMARK    4  A    between atoms: C_9  and  C_10
REMARK    5  A    between atoms: C_10  and  C_12
REMARK    6  A    between atoms: C_10  and  N_13
REMARK    7  A    between atoms: N_16  and  C_17
REMARK    8  A    between atoms: C_17  and  C_19
REMARK    9  A    between atoms: C_17  and  C_25
REMARK   10  A    between atoms: C_27  and  C_31
REMARK                            x       y       z     vdW  Elec       q    Type
REMARK                         _______ _______ _______ _____ _____    ______ ____
ROOT
ATOM      1  N   UNL     1      -2.143  -4.420  -1.074  0.00  0.00    -0.296 N 
ATOM      2  C   UNL     1      -3.484  -4.311  -0.997  0.00  0.00    +0.301 C 
ATOM      3  O   UNL     1      -4.053  -4.532   0.055  0.00  0.00    -0.253 OA
ATOM      4  N   UNL     1      -4.196  -3.958  -2.086  0.00  0.00    -0.285 N 
ATOM      5  H   UNL     1      -1.690  -4.245  -1.914  0.00  0.00    +0.151 HD
ATOM      6  H   UNL     1      -3.742  -3.782  -2.925  0.00  0.00    +0.151 HD
ENDROOT
BRANCH   1   7
ATOM      7  C   UNL     1      -1.370  -4.804   0.109  0.00  0.00    +0.076 C 
ATOM      8  C   UNL     1      -1.341  -6.330   0.226  0.00  0.00    +0.028 C 
BRANCH   7   9
ATOM      9  C   UNL     1       0.059  -4.275  -0.021  0.00  0.00    +0.057 C 
BRANCH   9  14
ATOM     10  C   UNL     1      -0.018   1.503   0.010  0.00  0.00    +0.044 C 
ATOM     11  C   UNL     1       0.002  -0.004   0.002  0.00  0.00    -0.050 A 
ATOM     12  C   UNL     1       0.006  -0.689  -1.199  0.00  0.00    +0.003 A 
ATOM     13  C   UNL     1       0.025  -2.071  -1.207  0.00  0.00    +0.004 A 
ATOM     14  C   UNL     1       0.040  -2.768  -0.013  0.00  0.00    -0.043 A 
ATOM     15  C   UNL     1       0.037  -2.084   1.188  0.00  0.00    -0.047 A 
ATOM     16  C   UNL     1       0.023  -0.702   1.195  0.00  0.00    +0.007 A 
ATOM     17  C   UNL     1       0.054  -2.845   2.489  0.00  0.00    +0.044 C 
ENDBRANCH   9  14
ENDBRANCH   7   9
ENDBRANCH   1   7
BRANCH   4  18
ATOM     18  C   UNL     1      -5.653  -3.839  -2.002  0.00  0.00    +0.174 C 
BRANCH  18  19
ATOM     19  C   UNL     1      -6.142  -2.890  -3.066  0.00  0.00    +0.176 A 
ATOM     20  N   UNL     1      -7.035  -1.918  -2.885  0.00  0.00    -0.214 NA
ATOM     21  C   UNL     1      -7.234  -1.283  -4.011  0.00  0.00    +0.122 A 
ATOM     22  N   UNL     1      -6.458  -1.849  -4.952  0.00  0.00    -0.263 N 
ATOM     23  H   UNL     1      -6.393  -1.591  -5.885  0.00  0.00    +0.190 HD
ATOM     24  N   UNL     1      -5.755  -2.885  -4.314  0.00  0.00    -0.155 NA
ATOM     25  C   UNL     1      -8.171  -0.121  -4.219  0.00  0.00    +0.087 C 
ENDBRANCH  18  19
BRANCH  18  26
ATOM     26  C   UNL     1      -6.280  -5.194  -2.210  0.00  0.00    -0.020 A 
ATOM     27  C   UNL     1      -5.764  -6.056  -3.160  0.00  0.00    +0.006 A 
ATOM     28  C   UNL     1      -6.340  -7.298  -3.351  0.00  0.00    +0.000 A 
ATOM     29  C   UNL     1      -7.430  -7.679  -2.592  0.00  0.00    +0.000 A 
ATOM     30  C   UNL     1      -7.946  -6.817  -1.641  0.00  0.00    +0.000 A 
ATOM     31  C   UNL     1      -7.368  -5.576  -1.447  0.00  0.00    +0.006 A 
ENDBRANCH  18  26
ENDBRANCH   4  18
TORSDOF 6
