REMARK  Name = ZINC65183846
REMARK  7 active torsions:
REMARK  status: ('A' for Active; 'I' for Inactive)
REMARK    1  A    between atoms: C_1  and  C_2
REMARK    2  A    between atoms: C_3  and  S_13
REMARK    3  A    between atoms: C_8  and  C_10
REMARK    4  A    between atoms: C_10  and  C_11
REMARK    5  A    between atoms: C_10  and  C_12
REMARK    6  A    between atoms: S_13  and  N_16
REMARK    7  A    between atoms: N_16  and  C_17
REMARK                            x       y       z     vdW  Elec       q    Type
REMARK                         _______ _______ _______ _____ _____    ______ ____
ROOT
ATOM      1  C   UNL     1      -0.018   1.503   0.010  0.00  0.00    +0.069 C 
ATOM      2  C   UNL     1       0.002  -0.004   0.002  0.00  0.00    +0.086 A 
ATOM      3  C   UNL     1       0.008  -0.785  -1.093  0.00  0.00    +0.223 A 
ATOM      4  N   UNL     1       0.028  -2.108  -0.669  0.00  0.00    -0.186 N 
ATOM      5  C   UNL     1       0.033  -2.038   0.700  0.00  0.00    +0.198 A 
ATOM      6  N   UNL     1       0.024  -0.795   1.085  0.00  0.00    -0.223 NA
ATOM      7  S   UNL     1       0.058  -3.752   1.168  0.00  0.00    -0.033 S 
ATOM      8  C   UNL     1       0.060  -4.447  -0.478  0.00  0.00    +0.105 A 
ATOM      9  N   UNL     1       0.042  -3.383  -1.223  0.00  0.00    -0.160 NA
ENDROOT
BRANCH   8  10
ATOM     10  C   UNL     1       0.078  -5.895  -0.894  0.00  0.00    +0.040 C 
ATOM     11  C   UNL     1      -1.352  -6.439  -0.908  0.00  0.00    +0.014 C 
ATOM     12  C   UNL     1       0.683  -6.016  -2.294  0.00  0.00    +0.014 C 
ENDBRANCH   8  10
BRANCH   3  13
ATOM     13  S   UNL     1      -0.007  -0.230  -2.765  0.00  0.00    +0.111 S 
ATOM     14  O   UNL     1       0.526   1.087  -2.760  0.00  0.00    -0.147 OA
ATOM     15  O   UNL     1       0.554  -1.277  -3.545  0.00  0.00    -0.147 OA
BRANCH  13  16
ATOM     16  N   UNL     1      -1.593  -0.097  -3.222  0.00  0.00    -0.094 NA
BRANCH  16  17
ATOM     17  C   UNL     1      -1.915   0.329  -4.515  0.00  0.00    +0.109 A 
ATOM     18  C   UNL     1      -0.906   0.634  -5.418  0.00  0.00    +0.030 A 
ATOM     19  C   UNL     1      -1.226   1.055  -6.695  0.00  0.00    +0.017 A 
ATOM     20  C   UNL     1      -2.551   1.171  -7.075  0.00  0.00    +0.021 A 
ATOM     21  C   UNL     1      -3.561   0.869  -6.178  0.00  0.00    +0.055 A 
ATOM     22  C   UNL     1      -3.247   0.442  -4.901  0.00  0.00    +0.149 A 
ATOM     23  F   UNL     1      -4.232   0.140  -4.027  0.00  0.00    -0.203 F 
ATOM     24 BR   UNL     1      -2.984   1.747  -8.823  0.00  0.00    -0.050 Br
ENDBRANCH  16  17
ENDBRANCH  13  16
ENDBRANCH   3  13
TORSDOF 4
