REMARK  Name = ZINC38684889
REMARK  12 active torsions:
REMARK  status: ('A' for Active; 'I' for Inactive)
REMARK    1  A    between atoms: C_1  and  C_2
REMARK    2  A    between atoms: C_2  and  O_3
REMARK    3  A    between atoms: O_3  and  C_4
REMARK    4  A    between atoms: C_8  and  C_10
REMARK    5  A    between atoms: C_15  and  O_24
REMARK    6  A    between atoms: C_19  and  N_23
REMARK    7  A    between atoms: C_20  and  C_21
REMARK    8  A    between atoms: O_24  and  C_25
REMARK    9  A    between atoms: C_25  and  C_27
REMARK   10  A    between atoms: C_28  and  C_29
REMARK   11  A    between atoms: C_32  and  O_35
REMARK   12  A    between atoms: O_35  and  C_36
REMARK                            x       y       z     vdW  Elec       q    Type
REMARK                         _______ _______ _______ _____ _____    ______ ____
ROOT
ATOM      1  C   UNL     1       2.178  -4.208  -3.825  0.00  0.00    +0.098 C 
ATOM      2  C   UNL     1       1.224  -5.070  -4.609  0.00  0.00    +0.008 A 
ATOM      3  C   UNL     1       0.202  -4.474  -5.326  0.00  0.00    +0.012 A 
ATOM      4  C   UNL     1      -0.682  -5.249  -6.051  0.00  0.00    +0.047 A 
ATOM      5  C   UNL     1      -0.547  -6.630  -6.062  0.00  0.00    +0.135 A 
ATOM      6  C   UNL     1       0.476  -7.229  -5.345  0.00  0.00    +0.093 A 
ATOM      7  C   UNL     1       1.365  -6.449  -4.617  0.00  0.00    +0.138 A 
ATOM      8  O   UNL     1       2.361  -7.050  -3.921  0.00  0.00    -0.441 OA
ATOM      9  C   UNL     1       3.435  -6.340  -3.539  0.00  0.00    +0.199 C 
ATOM     10  C   UNL     1       3.412  -4.991  -3.473  0.00  0.00    +0.098 C 
ENDROOT
BRANCH   1  15
ATOM     11  C   UNL     1       0.716  -1.961  -1.161  0.00  0.00    +0.121 A 
ATOM     12  C   UNL     1       0.268  -2.891  -0.234  0.00  0.00    +0.045 A 
ATOM     13  C   UNL     1       0.439  -4.241  -0.473  0.00  0.00    +0.004 A 
ATOM     14  C   UNL     1       1.057  -4.666  -1.635  0.00  0.00    +0.005 A 
ATOM     15  C   UNL     1       1.505  -3.741  -2.560  0.00  0.00    -0.031 A 
ATOM     16  C   UNL     1       1.331  -2.390  -2.329  0.00  0.00    +0.050 A 
BRANCH  11  17
ATOM     17  O   UNL     1       0.548  -0.633  -0.929  0.00  0.00    -0.492 OA
BRANCH  17  19
ATOM     18  C   UNL     1      -0.192   1.260   0.378  0.00  0.00    +0.048 C 
ATOM     19  C   UNL     1      -0.093  -0.264   0.293  0.00  0.00    +0.225 C 
ENDBRANCH  17  19
ENDBRANCH  11  17
ENDBRANCH   1  15
BRANCH   9  20
ATOM     20  N   UNL     1       4.590  -7.004  -3.207  0.00  0.00    -0.328 N 
ATOM     21  H   UNL     1       4.621  -7.973  -3.250  0.00  0.00    +0.145 HD
ATOM     22  H   UNL     1       5.374  -6.505  -2.929  0.00  0.00    +0.145 HD
ENDBRANCH   9  20
BRANCH  10  23
ATOM     23  C   UNL     1       4.591  -4.293  -3.057  0.00  0.00    +0.101 C 
ATOM     24  N   UNL     1       5.527  -3.740  -2.728  0.00  0.00    -0.191 NA
ENDBRANCH  10  23
BRANCH   5  25
ATOM     25  O   UNL     1      -1.416  -7.394  -6.775  0.00  0.00    -0.423 OA
BRANCH  25  26
ATOM     26  C   UNL     1      -1.358  -7.330  -8.122  0.00  0.00    +0.337 C 
ATOM     27  O   UNL     1      -0.479  -6.686  -8.663  0.00  0.00    -0.245 OA
BRANCH  26  28
ATOM     28  C   UNL     1      -2.322  -8.012  -8.906  0.00  0.00    +0.092 C 
ATOM     29  C   UNL     1      -2.264  -7.948 -10.254  0.00  0.00    +0.015 C 
BRANCH  29  30
ATOM     30  C   UNL     1      -3.264  -8.655 -11.067  0.00  0.00    -0.025 A 
ATOM     31  C   UNL     1      -4.280  -9.392 -10.446  0.00  0.00    +0.011 A 
ATOM     32  C   UNL     1      -5.214 -10.052 -11.212  0.00  0.00    +0.046 A 
ATOM     33  C   UNL     1      -5.149  -9.989 -12.600  0.00  0.00    +0.120 A 
ATOM     34  C   UNL     1      -4.141  -9.259 -13.221  0.00  0.00    +0.046 A 
ATOM     35  C   UNL     1      -3.206  -8.591 -12.464  0.00  0.00    +0.011 A 
BRANCH  33  36
ATOM     36  O   UNL     1      -6.072 -10.642 -13.350  0.00  0.00    -0.495 OA
ATOM     37  C   UNL     1      -5.947 -10.535 -14.770  0.00  0.00    +0.277 C 
ENDBRANCH  33  36
ENDBRANCH  29  30
ENDBRANCH  26  28
ENDBRANCH  25  26
ENDBRANCH   5  25
TORSDOF 10
