REMARK  Name = ZINC00969228
REMARK  4 active torsions:
REMARK  status: ('A' for Active; 'I' for Inactive)
REMARK    1  A    between atoms: C_15  and  C_17
REMARK    2  A    between atoms: C_17  and  S_18
REMARK    3  A    between atoms: S_18  and  C_19
REMARK    4  A    between atoms: N_26  and  N_27
REMARK                            x       y       z     vdW  Elec       q    Type
REMARK                         _______ _______ _______ _____ _____    ______ ____
ROOT
ATOM      1  C   UNL     1      -0.213   1.427  -0.063  0.00  0.00    +0.002 A 
ATOM      2  C   UNL     1      -1.359   2.050   0.396  0.00  0.00    +0.001 A 
ATOM      3  C   UNL     1      -1.300   3.349   0.870  0.00  0.00    +0.017 A 
ATOM      4  C   UNL     1      -0.093   4.024   0.872  0.00  0.00    +0.035 A 
ATOM      5  C   UNL     1       1.067   3.401   0.404  0.00  0.00    +0.055 A 
ATOM      6  C   UNL     1       0.997   2.098  -0.063  0.00  0.00    +0.025 A 
ATOM      7  N   UNL     1       2.287   4.087   0.404  0.00  0.00    -0.237 N 
ATOM      8  C   UNL     1       2.367   5.453   0.106  0.00  0.00    +0.055 A 
ATOM      9  C   UNL     1       3.437   5.949  -0.623  0.00  0.00    +0.025 A 
ATOM     10  C   UNL     1       3.509   7.299  -0.915  0.00  0.00    +0.002 A 
ATOM     11  C   UNL     1       2.518   8.162  -0.485  0.00  0.00    +0.001 A 
ATOM     12  C   UNL     1       1.445   7.679   0.243  0.00  0.00    +0.017 A 
ATOM     13  C   UNL     1       1.369   6.330   0.538  0.00  0.00    +0.035 A 
ATOM     14  S   UNL     1       0.013   5.683   1.466  0.00  0.00    -0.086 S 
ATOM     15  C   UNL     1       3.417   3.414   0.700  0.00  0.00    +0.234 C 
ATOM     16  O   UNL     1       3.359   2.249   1.034  0.00  0.00    -0.274 OA
ENDROOT
BRANCH  15  17
ATOM     17  C   UNL     1       4.752   4.108   0.614  0.00  0.00    +0.174 C 
BRANCH  17  18
ATOM     18  S   UNL     1       5.987   3.160   1.545  0.00  0.00    -0.075 S 
BRANCH  18  19
ATOM     19  C   UNL     1       7.472   4.088   1.350  0.00  0.00    +0.214 A 
ATOM     20  N   UNL     1       7.611   5.203   0.671  0.00  0.00    -0.119 NA
ATOM     21  N   UNL     1       8.829   5.612   0.742  0.00  0.00    -0.106 NA
ATOM     22  C   UNL     1       9.539   4.778   1.462  0.00  0.00    +0.272 A 
ATOM     23  N   UNL     1       8.695   3.780   1.872  0.00  0.00    -0.170 N 
ATOM     24  N   UNL     1       9.448   2.889   2.639  0.00  0.00    -0.150 NA
ATOM     25  C   UNL     1      10.670   3.314   2.694  0.00  0.00    +0.244 A 
ATOM     26  N   UNL     1      10.780   4.479   1.982  0.00  0.00    -0.221 N 
BRANCH  26  27
ATOM     27  N   UNL     1      11.918   5.215   1.817  0.00  0.00    -0.294 N 
ATOM     28  H   UNL     1      12.014   5.904   2.548  0.00  0.00    +0.163 HD
ATOM     29  H   UNL     1      12.731   4.619   1.773  0.00  0.00    +0.163 HD
ENDBRANCH  26  27
ENDBRANCH  18  19
ENDBRANCH  17  18
ENDBRANCH  15  17
TORSDOF 4
