REMARK  Name = ZINC36286517
REMARK  7 active torsions:
REMARK  status: ('A' for Active; 'I' for Inactive)
REMARK    1  A    between atoms: C_1  and  O_2
REMARK    2  A    between atoms: O_2  and  C_3
REMARK    3  A    between atoms: C_4  and  S_11
REMARK    4  A    between atoms: S_11  and  N_14
REMARK    5  A    between atoms: N_14  and  C_15
REMARK    6  A    between atoms: C_15  and  C_16
REMARK    7  A    between atoms: C_16  and  N_17
REMARK                            x       y       z     vdW  Elec       q    Type
REMARK                         _______ _______ _______ _____ _____    ______ ____
ROOT
ATOM      1  S   UNL     1      -1.017  -0.555   2.736  0.00  0.00    +0.062 S 
ATOM      2  O   UNL     1      -0.628   0.808   2.640  0.00  0.00    -0.153 OA
ATOM      3  O   UNL     1      -1.861  -1.036   3.774  0.00  0.00    -0.153 OA
ENDROOT
BRANCH   1   5
ATOM      4  C   UNL     1      -1.201  -0.638   0.010  0.00  0.00    +0.160 A 
ATOM      5  C   UNL     1      -1.806  -0.963   1.215  0.00  0.00    +0.149 A 
ATOM      6  C   UNL     1      -3.029  -1.606   1.221  0.00  0.00    +0.052 A 
ATOM      7  C   UNL     1      -3.649  -1.927   0.027  0.00  0.00    +0.044 A 
ATOM      8  C   UNL     1      -3.047  -1.604  -1.176  0.00  0.00    +0.039 A 
ATOM      9  C   UNL     1      -1.827  -0.955  -1.187  0.00  0.00    +0.063 A 
ATOM     10 BR   UNL     1      -1.008  -0.507  -2.831  0.00  0.00    -0.046 Br
ATOM     11 CL   UNL     1      -5.185  -2.737   0.038  0.00  0.00    -0.083 Cl
BRANCH   4  13
ATOM     12  C   UNL     1      -0.017   1.425   0.010  0.00  0.00    +0.277 C 
ATOM     13  O   UNL     1       0.002  -0.004   0.002  0.00  0.00    -0.492 OA
ENDBRANCH   4  13
ENDBRANCH   1   5
BRANCH   1  14
ATOM     14  N   UNL     1       0.380  -1.441   2.815  0.00  0.00    -0.192 NA
ATOM     15  H   UNL     1       0.487  -2.120   3.501  0.00  0.00    +0.148 HD
BRANCH  14  16
ATOM     16  C   UNL     1       1.456  -1.200   1.850  0.00  0.00    +0.086 C 
BRANCH  16  17
ATOM     17  C   UNL     1       2.746  -1.855   2.350  0.00  0.00    -0.069 C 
BRANCH  17  18
ATOM     18  N   UNL     1       3.824  -1.613   1.382  0.00  0.00    +0.379 N 
ATOM     19  H   UNL     1       4.675  -2.044   1.712  0.00  0.00    -0.090 HD
ATOM     20  H   UNL     1       3.570  -2.009   0.490  0.00  0.00    -0.090 HD
ATOM     21  H   UNL     1       3.969  -0.619   1.281  0.00  0.00    -0.090 HD
ENDBRANCH  17  18
ENDBRANCH  16  17
ENDBRANCH  14  16
ENDBRANCH   1  14
TORSDOF 6
