REMARK  Name = ZINC09546124
REMARK  4 active torsions:
REMARK  status: ('A' for Active; 'I' for Inactive)
REMARK    1  A    between atoms: C_7  and  C_19
REMARK    2  A    between atoms: C_7  and  O_32
REMARK    3  A    between atoms: N_8  and  C_12
REMARK    4  A    between atoms: N_24  and  C_27
REMARK                            x       y       z     vdW  Elec       q    Type
REMARK                         _______ _______ _______ _____ _____    ______ ____
ROOT
ATOM      1  C   UNL     1       3.477  -6.464  -0.254  0.00  0.00    +0.001 A 
ATOM      2  C   UNL     1       2.238  -7.067  -0.135  0.00  0.00    +0.002 A 
ATOM      3  C   UNL     1       1.097  -6.298  -0.021  0.00  0.00    +0.024 A 
ATOM      4  C   UNL     1       1.193  -4.913  -0.026  0.00  0.00    +0.043 A 
ATOM      5  C   UNL     1       2.443  -4.315  -0.145  0.00  0.00    +0.033 A 
ATOM      6  C   UNL     1       3.579  -5.083  -0.259  0.00  0.00    +0.010 A 
ATOM      7  C   UNL     1       2.512  -2.806  -0.147  0.00  0.00    +0.247 C 
ATOM      8  N   UNL     1       1.236  -2.080  -0.020  0.00  0.00    -0.214 N 
ATOM      9  C   UNL     1       0.093  -2.780   0.094  0.00  0.00    +0.314 C 
ATOM     10  O   UNL     1      -0.952  -2.168   0.203  0.00  0.00    -0.252 OA
ATOM     11  N   UNL     1       0.052  -4.119   0.088  0.00  0.00    -0.269 N 
ATOM     12  H   UNL     1      -0.810  -4.556   0.171  0.00  0.00    +0.156 HD
ENDROOT
BRANCH   7  13
ATOM     13  C   UNL     1       3.404  -2.380   0.991  0.00  0.00    +0.272 C 
ATOM     14  O   UNL     1       4.472  -1.855   0.759  0.00  0.00    -0.270 OA
ATOM     15  N   UNL     1       3.014  -2.583   2.265  0.00  0.00    -0.294 N 
ATOM     16  C   UNL     1       1.720  -3.212   2.567  0.00  0.00    +0.127 C 
ATOM     17  C   UNL     1       1.964  -4.370   3.549  0.00  0.00    +0.125 C 
ATOM     18  N   UNL     1       2.698  -3.866   4.718  0.00  0.00    -0.314 N 
ATOM     19  C   UNL     1       4.026  -3.367   4.339  0.00  0.00    +0.125 C 
ATOM     20  C   UNL     1       3.869  -2.175   3.390  0.00  0.00    +0.127 C 
BRANCH  18  21
ATOM     21  C   UNL     1       2.794  -4.842   5.703  0.00  0.00    +0.099 A 
ATOM     22  C   UNL     1       1.639  -5.436   6.201  0.00  0.00    +0.042 A 
ATOM     23  C   UNL     1       1.750  -6.410   7.177  0.00  0.00    +0.005 A 
ATOM     24  C   UNL     1       3.017  -6.750   7.632  0.00  0.00    +0.018 A 
ATOM     25  C   UNL     1       4.120  -6.116   7.098  0.00  0.00    +0.084 A 
ATOM     26  N   UNL     1       4.049  -5.159   6.134  0.00  0.00    -0.350 N 
ATOM     27  H   UNL     1       4.888  -4.704   5.755  0.00  0.00    +0.166 HD
ENDBRANCH  18  21
ENDBRANCH   7  13
BRANCH   8  28
ATOM     28  C   UNL     1       1.215  -0.681  -0.013  0.00  0.00    +0.041 A 
ATOM     29  C   UNL     1       1.206   0.021  -1.211  0.00  0.00    +0.025 A 
ATOM     30  C   UNL     1       1.184   1.402  -1.202  0.00  0.00    +0.022 A 
ATOM     31  C   UNL     1       1.171   2.086   0.001  0.00  0.00    +0.041 A 
ATOM     32  C   UNL     1       1.179   1.389   1.197  0.00  0.00    +0.022 A 
ATOM     33  C   UNL     1       1.201   0.008   1.192  0.00  0.00    +0.025 A 
ATOM     34 CL   UNL     1       1.143   3.822   0.010  0.00  0.00    -0.084 Cl
ENDBRANCH   8  28
BRANCH   7  35
ATOM     35  O   UNL     1       3.133  -2.395  -1.367  0.00  0.00    -0.360 OA
ATOM     36  H   UNL     1       3.984  -2.821  -1.538  0.00  0.00    +0.213 HD
ENDBRANCH   7  35
TORSDOF 4
