REMARK  Name = ZINC41575285
REMARK  8 active torsions:
REMARK  status: ('A' for Active; 'I' for Inactive)
REMARK    1  A    between atoms: C_1  and  C_2
REMARK    2  A    between atoms: C_6  and  C_28
REMARK    3  A    between atoms: C_8  and  N_11
REMARK    4  A    between atoms: C_12  and  C_14
REMARK    5  A    between atoms: C_14  and  C_15
REMARK    6  A    between atoms: C_15  and  C_16
REMARK    7  A    between atoms: C_28  and  C_29
REMARK    8  A    between atoms: C_28  and  C_30
REMARK                            x       y       z     vdW  Elec       q    Type
REMARK                         _______ _______ _______ _____ _____    ______ ____
ROOT
ATOM      1  N   UNL     1       0.224   1.450   2.497  0.00  0.00    -0.312 N 
ATOM      2  C   UNL     1       1.345   2.138   2.792  0.00  0.00    +0.214 C 
ATOM      3  O   UNL     1       2.370   1.544   3.051  0.00  0.00    -0.276 OA
ATOM      4  H   UNL     1      -0.596   1.925   2.290  0.00  0.00    +0.149 HD
ENDROOT
BRANCH   1  10
ATOM      5  C   UNL     1       0.239   1.529  -0.001  0.00  0.00    +0.007 C 
ATOM      6  C   UNL     1       0.259  -0.001  -0.010  0.00  0.00    -0.012 C 
ATOM      7  C   UNL     1      -1.176  -0.530  -0.022  0.00  0.00    +0.004 C 
ATOM      8  C   UNL     1      -1.912  -0.037   1.226  0.00  0.00    +0.006 C 
ATOM      9  C   UNL     1      -1.192  -0.544   2.477  0.00  0.00    +0.012 C 
ATOM     10  C   UNL     1       0.244  -0.015   2.489  0.00  0.00    +0.076 C 
ATOM     11  C   UNL     1       0.980  -0.508   1.241  0.00  0.00    +0.025 C 
BRANCH   9  12
ATOM     12  C   UNL     1      -1.928  -0.051   3.724  0.00  0.00    -0.012 C 
ATOM     13  C   UNL     1      -3.363  -0.580   3.712  0.00  0.00    +0.007 C 
ATOM     14  C   UNL     1      -1.208  -0.558   4.975  0.00  0.00    +0.007 C 
ENDBRANCH   9  12
ENDBRANCH   1  10
BRANCH   2  15
ATOM     15  C   UNL     1       1.324   3.645   2.800  0.00  0.00    +0.103 C 
BRANCH  15  16
ATOM     16  C   UNL     1       2.714   4.172   3.163  0.00  0.00    +0.083 C 
BRANCH  16  17
ATOM     17  C   UNL     1       2.694   5.678   3.171  0.00  0.00    +0.111 A 
ATOM     18  N   UNL     1       3.844   6.337   3.468  0.00  0.00    -0.310 N 
ATOM     19  H   UNL     1       4.649   5.833   3.667  0.00  0.00    +0.170 HD
ATOM     20  C   UNL     1       3.878   7.690   3.489  0.00  0.00    +0.259 A 
ATOM     21  O   UNL     1       4.903   8.293   3.752  0.00  0.00    -0.267 OA
ATOM     22  C   UNL     1       2.630   8.403   3.179  0.00  0.00    +0.065 A 
ATOM     23  C   UNL     1       2.558   9.795   3.174  0.00  0.00    +0.015 A 
ATOM     24  C   UNL     1       1.363  10.411   2.877  0.00  0.00    +0.001 A 
ATOM     25  C   UNL     1       0.233   9.658   2.585  0.00  0.00    +0.002 A 
ATOM     26  C   UNL     1       0.283   8.283   2.586  0.00  0.00    +0.028 A 
ATOM     27  C   UNL     1       1.483   7.634   2.883  0.00  0.00    +0.078 A 
ATOM     28  N   UNL     1       1.579   6.281   2.889  0.00  0.00    -0.234 NA
ENDBRANCH  16  17
ENDBRANCH  15  16
ENDBRANCH   2  15
TORSDOF 5
