REMARK  Name = ZINC10111646
REMARK  8 active torsions:
REMARK  status: ('A' for Active; 'I' for Inactive)
REMARK    1  A    between atoms: C_1  and  N_50
REMARK    2  A    between atoms: C_2  and  N_50
REMARK    3  A    between atoms: C_3  and  C_4
REMARK    4  A    between atoms: C_3  and  N_50
REMARK    5  A    between atoms: C_4  and  N_5
REMARK    6  A    between atoms: C_6  and  C_8
REMARK    7  A    between atoms: N_11  and  S_19
REMARK    8  A    between atoms: S_19  and  C_22
REMARK                            x       y       z     vdW  Elec       q    Type
REMARK                         _______ _______ _______ _____ _____    ______ ____
ROOT
ATOM      1  C   UNL     1       2.206   4.022  -0.612  0.00  0.00    +0.277 C 
ATOM      2  C   UNL     1       3.503   3.582   0.081  0.00  0.00    +0.186 C 
ATOM      3  N   UNL     1       3.592   2.116  -0.030  0.00  0.00    -0.195 N 
ATOM      4  C   UNL     1       2.419   1.374   0.180  0.00  0.00    +0.093 A 
ATOM      5  C   UNL     1       2.490   0.003   0.370  0.00  0.00    +0.028 A 
ATOM      6  C   UNL     1       1.332  -0.725   0.573  0.00  0.00    +0.002 A 
ATOM      7  C   UNL     1       0.105  -0.086   0.584  0.00  0.00    +0.004 A 
ATOM      8  C   UNL     1       0.030   1.281   0.395  0.00  0.00    +0.047 A 
ATOM      9  C   UNL     1       1.186   2.019   0.194  0.00  0.00    +0.144 A 
ATOM     10  O   UNL     1       1.103   3.365   0.015  0.00  0.00    -0.476 OA
ENDROOT
BRANCH   1  12
ATOM     11  N   UNL     1       2.926   6.343  -1.077  0.00  0.00    -0.314 N 
ATOM     12  C   UNL     1       2.045   5.515  -0.481  0.00  0.00    +0.255 C 
ATOM     13  O   UNL     1       1.122   5.971   0.160  0.00  0.00    -0.272 OA
ATOM     14  H   UNL     1       3.664   5.978  -1.589  0.00  0.00    +0.149 HD
BRANCH  11  15
ATOM     15  C   UNL     1       2.769   7.794  -0.950  0.00  0.00    +0.086 C 
BRANCH  15  16
ATOM     16  C   UNL     1       3.893   8.497  -1.714  0.00  0.00    -0.061 C 
BRANCH  16  19
ATOM     17  C   UNL     1       3.935  10.383  -0.196  0.00  0.00    -0.097 C 
ATOM     18  C   UNL     1       4.648  10.662  -2.493  0.00  0.00    -0.097 C 
ATOM     19  N   UNL     1       3.709   9.959  -1.593  0.00  0.00    +0.377 N 
ATOM     20  H   UNL     1       2.747  10.197  -1.863  0.00  0.00    -0.083 HD
ENDBRANCH  16  19
ENDBRANCH  15  16
ENDBRANCH  11  15
ENDBRANCH   1  12
BRANCH   3  21
ATOM     21  S   UNL     1       5.026   1.370  -0.391  0.00  0.00    +0.075 S 
ATOM     22  O   UNL     1       4.696   0.160  -1.060  0.00  0.00    -0.150 OA
ATOM     23  O   UNL     1       5.863   2.359  -0.973  0.00  0.00    -0.150 OA
BRANCH  21  24
ATOM     24  C   UNL     1       5.773   0.912   1.137  0.00  0.00    +0.109 A 
ATOM     25  C   UNL     1       6.632   1.787   1.776  0.00  0.00    +0.029 A 
ATOM     26  C   UNL     1       7.215   1.430   2.978  0.00  0.00    +0.002 A 
ATOM     27  C   UNL     1       6.947   0.194   3.535  0.00  0.00    +0.000 A 
ATOM     28  C   UNL     1       6.093  -0.683   2.894  0.00  0.00    +0.002 A 
ATOM     29  C   UNL     1       5.506  -0.324   1.695  0.00  0.00    +0.029 A 
ENDBRANCH  21  24
ENDBRANCH   3  21
TORSDOF 6
