REMARK  Name = ZINC13501199
REMARK  9 active torsions:
REMARK  status: ('A' for Active; 'I' for Inactive)
REMARK    1  A    between atoms: C_1  and  C_2
REMARK    2  A    between atoms: C_2  and  C_3
REMARK    3  A    between atoms: C_3  and  C_5
REMARK    4  A    between atoms: C_3  and  N_66
REMARK    5  A    between atoms: N_9  and  C_10
REMARK    6  A    between atoms: C_10  and  C_11
REMARK    7  A    between atoms: C_17  and  C_18
REMARK    8  A    between atoms: C_17  and  N_66
REMARK    9  A    between atoms: C_33  and  N_66
REMARK                            x       y       z     vdW  Elec       q    Type
REMARK                         _______ _______ _______ _____ _____    ______ ____
ROOT
ATOM      1  N   UNL     1       2.248   7.691  -2.203  0.00  0.00    +0.391 N 
ATOM      2  H   UNL     1       3.269   7.698  -2.093  0.00  0.00    -0.080 HD
ENDROOT
BRANCH   1   3
ATOM      3  C   UNL     1       1.921   7.665  -3.644  0.00  0.00    -0.067 C 
ATOM      4  C   UNL     1       2.239   6.272  -4.225  0.00  0.00    -0.015 C 
ATOM      5  C   UNL     1       2.816   6.570  -5.632  0.00  0.00    -0.002 C 
ATOM      6  C   UNL     1       3.655   7.850  -5.394  0.00  0.00    -0.002 C 
ATOM      7  C   UNL     1       2.820   8.668  -4.387  0.00  0.00    -0.015 C 
ENDBRANCH   1   3
BRANCH   1   8
ATOM      8  C   UNL     1       1.702   6.489  -1.539  0.00  0.00    +0.003 C 
BRANCH   8   9
ATOM      9  C   UNL     1       0.195   6.505  -1.573  0.00  0.00    +0.138 A 
ATOM     10  N   UNL     1      -0.584   7.506  -1.241  0.00  0.00    -0.115 NA
ATOM     11  N   UNL     1      -1.805   7.130  -1.406  0.00  0.00    -0.023 NA
ATOM     12  N   UNL     1      -1.825   5.918  -1.840  0.00  0.00    -0.044 NA
ATOM     13  N   UNL     1      -0.611   5.496  -1.950  0.00  0.00    -0.226 N 
BRANCH  13  14
ATOM     14  C   UNL     1      -0.190   4.169  -2.407  0.00  0.00    +0.182 C 
BRANCH  14  15
ATOM     15  C   UNL     1      -0.081   3.242  -1.224  0.00  0.00    -0.026 A 
ATOM     16  C   UNL     1      -1.177   2.502  -0.823  0.00  0.00    +0.005 A 
ATOM     17  C   UNL     1      -1.078   1.651   0.262  0.00  0.00    +0.000 A 
ATOM     18  C   UNL     1       0.117   1.545   0.950  0.00  0.00    +0.000 A 
ATOM     19  C   UNL     1       1.215   2.282   0.546  0.00  0.00    +0.000 A 
ATOM     20  C   UNL     1       1.115   3.132  -0.539  0.00  0.00    +0.005 A 
ENDBRANCH  14  15
ENDBRANCH  13  14
ENDBRANCH   8   9
BRANCH   8  22
ATOM     21  C   UNL     1       3.701   6.312  -0.051  0.00  0.00    +0.002 C 
ATOM     22  C   UNL     1       2.179   6.466  -0.085  0.00  0.00    -0.011 C 
ENDBRANCH   8  22
ENDBRANCH   1   8
BRANCH   1  23
ATOM     23  C   UNL     1       1.690   8.910  -1.580  0.00  0.00    -0.036 C 
BRANCH  23  24
ATOM     24  C   UNL     1       2.552  10.086  -1.962  0.00  0.00    +0.001 A 
ATOM     25  C   UNL     1       2.153  10.921  -2.955  0.00  0.00    +0.017 A 
ATOM     26  C   UNL     1       3.009  12.057  -3.298  0.00  0.00    +0.002 A 
ATOM     27  C   UNL     1       2.646  12.954  -4.311  0.00  0.00    +0.059 A 
ATOM     28  C   UNL     1       3.473  14.012  -4.614  0.00  0.00    +0.167 A 
ATOM     29  C   UNL     1       4.673  14.193  -3.915  0.00  0.00    +0.168 A 
ATOM     30  C   UNL     1       5.040  13.311  -2.915  0.00  0.00    +0.075 A 
ATOM     31  C   UNL     1       4.216  12.238  -2.597  0.00  0.00    +0.053 A 
ATOM     32  N   UNL     1       4.567  11.348  -1.602  0.00  0.00    -0.322 N 
ATOM     33  H   UNL     1       5.399  11.473  -1.120  0.00  0.00    +0.169 HD
ATOM     34  C   UNL     1       3.771  10.310  -1.291  0.00  0.00    +0.251 A 
ATOM     35  O   UNL     1       4.112   9.543  -0.407  0.00  0.00    -0.268 OA
ATOM     36  O   UNL     1       5.296  15.303  -4.405  0.00  0.00    -0.453 OA
ATOM     37  C   UNL     1       4.282  16.031  -5.120  0.00  0.00    +0.466 C 
ATOM     38  O   UNL     1       3.355  15.012  -5.538  0.00  0.00    -0.453 OA
ENDBRANCH  23  24
ENDBRANCH   1  23
TORSDOF 8
