REMARK  Name = ZINC11022832
REMARK  9 active torsions:
REMARK  status: ('A' for Active; 'I' for Inactive)
REMARK    1  A    between atoms: C_1  and  C_2
REMARK    2  A    between atoms: C_7  and  N_12
REMARK    3  A    between atoms: C_9  and  C_11
REMARK    4  A    between atoms: C_13  and  C_15
REMARK    5  A    between atoms: C_15  and  C_17
REMARK    6  A    between atoms: C_15  and  S_18
REMARK    7  A    between atoms: S_18  and  C_19
REMARK    8  A    between atoms: N_32  and  C_33
REMARK    9  A    between atoms: C_33  and  C_34
REMARK                            x       y       z     vdW  Elec       q    Type
REMARK                         _______ _______ _______ _____ _____    ______ ____
ROOT
ATOM      1  C   UNL     1       3.978   2.039  -0.813  0.00  0.00    +0.198 A 
ATOM      2  N   UNL     1       4.007   3.288  -0.414  0.00  0.00    -0.120 NA
ATOM      3  N   UNL     1       5.295   3.786  -0.642  0.00  0.00    -0.109 NA
ATOM      4  C   UNL     1       6.015   2.827  -1.181  0.00  0.00    +0.240 A 
ATOM      5  N   UNL     1       5.217   1.722  -1.301  0.00  0.00    -0.256 N 
ATOM      6  C   UNL     1       5.718   0.542  -1.846  0.00  0.00    +0.064 A 
ATOM      7  C   UNL     1       4.918  -0.584  -1.971  0.00  0.00    +0.027 A 
ATOM      8  C   UNL     1       5.440  -1.740  -2.515  0.00  0.00    +0.002 A 
ATOM      9  C   UNL     1       6.759  -1.788  -2.938  0.00  0.00    +0.001 A 
ATOM     10  C   UNL     1       7.569  -0.679  -2.820  0.00  0.00    +0.015 A 
ATOM     11  C   UNL     1       7.054   0.495  -2.273  0.00  0.00    +0.064 A 
ATOM     12  C   UNL     1       7.887   1.703  -2.130  0.00  0.00    +0.263 A 
ATOM     13  O   UNL     1       9.049   1.699  -2.490  0.00  0.00    -0.267 OA
ATOM     14  N   UNL     1       7.338   2.812  -1.595  0.00  0.00    -0.273 N 
ENDROOT
BRANCH   1  15
ATOM     15  S   UNL     1       2.586   0.961  -0.740  0.00  0.00    -0.073 S 
BRANCH  15  16
ATOM     16  C   UNL     1       1.280   1.980   0.001  0.00  0.00    +0.137 C 
ATOM     17  C   UNL     1       1.668   2.341   1.436  0.00  0.00    +0.029 C 
BRANCH  16  19
ATOM     18  N   UNL     1      -1.191   1.867   0.018  0.00  0.00    -0.311 N 
ATOM     19  C   UNL     1      -0.014   1.209   0.009  0.00  0.00    +0.226 C 
ATOM     20  O   UNL     1       0.002  -0.004   0.002  0.00  0.00    -0.275 OA
ATOM     21  H   UNL     1      -1.204   2.837   0.023  0.00  0.00    +0.149 HD
BRANCH  18  27
ATOM     22  C   UNL     1      -4.698  -0.088   1.461  0.00  0.00    +0.008 C 
ATOM     23  C   UNL     1      -4.868   1.193   0.641  0.00  0.00    -0.009 C 
ATOM     24  C   UNL     1      -5.249   0.832  -0.796  0.00  0.00    +0.003 C 
ATOM     25  C   UNL     1      -4.144  -0.027  -1.415  0.00  0.00    +0.002 C 
ATOM     26  C   UNL     1      -2.830   0.756  -1.417  0.00  0.00    +0.022 C 
ATOM     27  C   UNL     1      -2.449   1.117   0.020  0.00  0.00    +0.076 C 
ATOM     28  C   UNL     1      -3.554   1.976   0.639  0.00  0.00    +0.009 C 
ATOM     29  C   UNL     1      -3.173   2.337   2.076  0.00  0.00    +0.009 C 
ENDBRANCH  18  27
ENDBRANCH  16  19
ENDBRANCH  15  16
ENDBRANCH   1  15
BRANCH  14  30
ATOM     30  C   UNL     1       8.154   4.020  -1.446  0.00  0.00    +0.155 C 
BRANCH  30  31
ATOM     31  C   UNL     1       8.832   4.006  -0.101  0.00  0.00    -0.013 C 
ATOM     32  C   UNL     1      10.135   4.127  -0.023  0.00  0.00    +0.005 C 
ENDBRANCH  30  31
ENDBRANCH  14  30
TORSDOF 6
