REMARK  Name = ZINC39678300
REMARK  6 active torsions:
REMARK  status: ('A' for Active; 'I' for Inactive)
REMARK    1  A    between atoms: C_1  and  C_2
REMARK    2  A    between atoms: C_6  and  C_9
REMARK    3  A    between atoms: C_13  and  C_22
REMARK    4  A    between atoms: N_24  and  C_25
REMARK    5  A    between atoms: C_25  and  C_26
REMARK    6  A    between atoms: C_31  and  N_32
REMARK                            x       y       z     vdW  Elec       q    Type
REMARK                         _______ _______ _______ _____ _____    ______ ____
ROOT
ATOM      1  C   UNL     1       0.200  -3.236   3.211  0.00  0.00    +0.251 C 
ATOM      2  O   UNL     1       1.163  -3.834   3.648  0.00  0.00    -0.270 OA
ATOM      3  N   UNL     1      -1.046  -3.626   3.548  0.00  0.00    -0.296 N 
ATOM      4  C   UNL     1      -2.332  -3.032   3.114  0.00  0.00    +0.121 C 
ATOM      5  C   UNL     1      -3.264  -4.243   2.884  0.00  0.00    +0.100 C 
ATOM      6  C   UNL     1      -2.673  -5.364   3.755  0.00  0.00    -0.004 C 
ATOM      7  C   UNL     1      -1.438  -4.750   4.431  0.00  0.00    +0.115 C 
ATOM      8  C   UNL     1      -2.257  -6.546   2.885  0.00  0.00    -0.010 C 
ATOM      9  C   UNL     1      -1.726  -7.670   3.779  0.00  0.00    -0.082 C 
ATOM     10  N   UNL     1      -2.769  -8.078   4.728  0.00  0.00    +0.379 N 
ATOM     11  C   UNL     1      -3.097  -6.961   5.622  0.00  0.00    -0.082 C 
ATOM     12  C   UNL     1      -3.686  -5.807   4.806  0.00  0.00    -0.010 C 
ATOM     13  H   UNL     1      -3.595  -8.353   4.219  0.00  0.00    -0.086 HD
ATOM     14  H   UNL     1      -2.438  -8.859   5.274  0.00  0.00    -0.086 HD
ENDROOT
BRANCH   1  20
ATOM     15  C   UNL     1       0.820   1.675   2.550  0.00  0.00    +0.047 C 
ATOM     16  C   UNL     1       0.692   0.283   1.986  0.00  0.00    -0.014 A 
ATOM     17  C   UNL     1       0.756   0.084   0.619  0.00  0.00    +0.007 A 
ATOM     18  C   UNL     1       0.640  -1.190   0.092  0.00  0.00    +0.021 A 
ATOM     19  C   UNL     1       0.459  -2.274   0.927  0.00  0.00    +0.056 A 
ATOM     20  C   UNL     1       0.393  -2.083   2.310  0.00  0.00    +0.091 A 
ATOM     21  C   UNL     1       0.517  -0.792   2.837  0.00  0.00    +0.140 A 
ATOM     22  F   UNL     1       0.460  -0.597   4.172  0.00  0.00    -0.204 F 
ATOM     23 CL   UNL     1       0.313  -3.871   0.262  0.00  0.00    -0.083 Cl
ENDBRANCH   1  20
BRANCH   5  24
ATOM     24  C   UNL     1      -4.667  -3.917   3.325  0.00  0.00    +0.218 C 
ATOM     25  O   UNL     1      -4.852  -3.306   4.356  0.00  0.00    -0.275 OA
ATOM     26  N   UNL     1      -5.717  -4.304   2.573  0.00  0.00    -0.311 N 
ATOM     27  H   UNL     1      -5.569  -4.793   1.749  0.00  0.00    +0.149 HD
BRANCH  26  28
ATOM     28  C   UNL     1      -7.081  -3.988   3.002  0.00  0.00    +0.141 C 
BRANCH  28  29
ATOM     29  C   UNL     1      -8.063  -4.528   1.994  0.00  0.00    -0.009 A 
ATOM     30  C   UNL     1      -8.617  -3.687   1.049  0.00  0.00    +0.007 A 
ATOM     31  C   UNL     1      -9.518  -4.182   0.124  0.00  0.00    +0.000 A 
ATOM     32  C   UNL     1      -9.867  -5.520   0.142  0.00  0.00    +0.002 A 
ATOM     33  C   UNL     1      -9.317  -6.366   1.084  0.00  0.00    +0.023 A 
ATOM     34  C   UNL     1      -8.407  -5.873   2.012  0.00  0.00    +0.034 A 
BRANCH  34  35
ATOM     35  N   UNL     1      -7.845  -6.728   2.963  0.00  0.00    -0.330 N 
ATOM     36  C   UNL     1      -8.499  -6.936   4.262  0.00  0.00    +0.105 C 
ATOM     37  C   UNL     1      -8.692  -8.440   4.481  0.00  0.00    +0.019 C 
ATOM     38  C   UNL     1      -7.344  -9.150   4.335  0.00  0.00    +0.003 C 
ATOM     39  C   UNL     1      -6.802  -8.933   2.920  0.00  0.00    +0.019 C 
ATOM     40  C   UNL     1      -6.591  -7.440   2.681  0.00  0.00    +0.105 C 
ENDBRANCH  34  35
ENDBRANCH  28  29
ENDBRANCH  26  28
ENDBRANCH   5  24
TORSDOF 5
