REMARK  Name = ZINC18093929
REMARK  6 active torsions:
REMARK  status: ('A' for Active; 'I' for Inactive)
REMARK    1  A    between atoms: C_2  and  N_25
REMARK    2  A    between atoms: C_5  and  S_9
REMARK    3  A    between atoms: S_9  and  C_10
REMARK    4  A    between atoms: C_10  and  C_11
REMARK    5  A    between atoms: N_13  and  C_14
REMARK    6  A    between atoms: C_15  and  C_23
REMARK                            x       y       z     vdW  Elec       q    Type
REMARK                         _______ _______ _______ _____ _____    ______ ____
ROOT
ATOM      1  C   UNL     1      -2.279   7.222  -2.922  0.00  0.00    +0.228 C 
ATOM      2  O   UNL     1      -2.260   6.341  -3.755  0.00  0.00    -0.275 OA
ATOM      3  N   UNL     1      -1.965   6.946  -1.641  0.00  0.00    -0.278 N 
ATOM      4  H   UNL     1      -1.980   7.652  -0.975  0.00  0.00    +0.155 HD
ENDROOT
BRANCH   3   5
ATOM      5  C   UNL     1      -1.621   5.653  -1.274  0.00  0.00    +0.090 A 
ATOM      6  C   UNL     1      -1.271   5.177  -0.019  0.00  0.00    +0.084 A 
ATOM      7  C   UNL     1      -0.951   3.765   0.100  0.00  0.00    -0.018 A 
ATOM      8  C   UNL     1      -1.032   3.059  -1.049  0.00  0.00    -0.004 A 
ATOM      9  S   UNL     1      -1.524   4.240  -2.273  0.00  0.00    -0.077 S 
ATOM     10  C   UNL     1      -0.761   1.597  -1.232  0.00  0.00    +0.043 C 
ATOM     11  C   UNL     1      -0.013   1.086   0.008  0.00  0.00    +0.005 C 
ATOM     12  C   UNL     1      -0.735   1.583   1.264  0.00  0.00    +0.005 C 
ATOM     13  C   UNL     1      -0.551   3.094   1.407  0.00  0.00    +0.037 C 
BRANCH   6  14
ATOM     14  C   UNL     1      -1.226   6.046   1.118  0.00  0.00    +0.102 C 
ATOM     15  N   UNL     1      -1.191   6.736   2.020  0.00  0.00    -0.191 NA
ENDBRANCH   6  14
ENDBRANCH   3   5
BRANCH   1  16
ATOM     16  C   UNL     1      -2.653   8.627  -3.320  0.00  0.00    +0.173 C 
BRANCH  16  17
ATOM     17  S   UNL     1      -3.016   8.675  -5.093  0.00  0.00    -0.078 S 
BRANCH  17  22
ATOM     18  C   UNL     1      -4.025  13.013  -5.586  0.00  0.00    +0.113 A 
ATOM     19  C   UNL     1      -4.067  12.184  -6.670  0.00  0.00    +0.101 A 
ATOM     20  N   UNL     1      -3.756  10.859  -6.507  0.00  0.00    -0.323 N 
ATOM     21  H   UNL     1      -3.782  10.259  -7.269  0.00  0.00    +0.169 HD
ATOM     22  C   UNL     1      -3.411  10.382  -5.278  0.00  0.00    +0.172 A 
ATOM     23  N   UNL     1      -3.373  11.172  -4.226  0.00  0.00    -0.185 NA
ATOM     24  C   UNL     1      -3.663  12.478  -4.333  0.00  0.00    +0.276 A 
ATOM     25  O   UNL     1      -3.618  13.200  -3.347  0.00  0.00    -0.266 OA
BRANCH  19  26
ATOM     26  N   UNL     1      -4.417  12.671  -7.907  0.00  0.00    -0.344 N 
ATOM     27  H   UNL     1      -4.445  12.076  -8.673  0.00  0.00    +0.144 HD
ATOM     28  H   UNL     1      -4.635  13.610  -8.015  0.00  0.00    +0.144 HD
ENDBRANCH  19  26
ENDBRANCH  17  22
ENDBRANCH  16  17
ENDBRANCH   1  16
TORSDOF 6
