REMARK  Name = ZINC09151926
REMARK  7 active torsions:
REMARK  status: ('A' for Active; 'I' for Inactive)
REMARK    1  A    between atoms: C_1  and  N_2
REMARK    2  A    between atoms: N_2  and  C_3
REMARK    3  A    between atoms: N_2  and  C_4
REMARK    4  A    between atoms: C_4  and  C_5
REMARK    5  A    between atoms: C_5  and  C_6
REMARK    6  A    between atoms: C_6  and  N_7
REMARK    7  A    between atoms: C_21  and  C_23
REMARK                            x       y       z     vdW  Elec       q    Type
REMARK                         _______ _______ _______ _____ _____    ______ ____
ROOT
ATOM      1  N   UNL     1      -2.797  -4.024  -0.237  0.00  0.00    -0.246 N 
ATOM      2  C   UNL     1      -2.626  -4.814   0.887  0.00  0.00    +0.168 A 
ATOM      3  N   UNL     1      -2.498  -4.446   2.140  0.00  0.00    -0.224 NA
ATOM      4  C   UNL     1      -2.334  -5.335   3.145  0.00  0.00    +0.084 A 
ATOM      5  C   UNL     1      -2.185  -5.071   4.526  0.00  0.00    +0.078 A 
ATOM      6  C   UNL     1      -2.028  -6.096   5.432  0.00  0.00    +0.164 A 
ATOM      7  C   UNL     1      -2.012  -7.426   5.012  0.00  0.00    +0.163 A 
ATOM      8  C   UNL     1      -2.154  -7.717   3.664  0.00  0.00    +0.066 A 
ATOM      9  C   UNL     1      -2.311  -6.695   2.761  0.00  0.00    +0.044 A 
ATOM     10  S   UNL     1      -2.529  -6.595   1.001  0.00  0.00    -0.052 S 
ATOM     11  O   UNL     1      -1.863  -8.443   5.903  0.00  0.00    -0.485 OA
ATOM     12  C   UNL     1      -1.355  -8.096   7.196  0.00  0.00    +0.270 C 
ATOM     13  C   UNL     1      -2.108  -6.853   7.688  0.00  0.00    +0.270 C 
ATOM     14  O   UNL     1      -1.884  -5.792   6.754  0.00  0.00    -0.485 OA
ATOM     15  C   UNL     1      -2.917  -4.597  -1.452  0.00  0.00    +0.259 C 
ATOM     16  O   UNL     1      -2.976  -5.809  -1.550  0.00  0.00    -0.269 OA
ENDROOT
BRANCH  15  17
ATOM     17  C   UNL     1      -2.976  -3.761  -2.653  0.00  0.00    +0.075 A 
ATOM     18  C   UNL     1      -3.214  -4.135  -3.967  0.00  0.00    +0.022 A 
ATOM     19  C   UNL     1      -3.209  -3.116  -4.888  0.00  0.00    +0.024 A 
ATOM     20  C   UNL     1      -2.979  -1.846  -4.465  0.00  0.00    +0.056 A 
ATOM     21  S   UNL     1      -2.768  -1.997  -2.805  0.00  0.00    -0.077 S 
ATOM     22 BR   UNL     1      -2.915  -0.269  -5.505  0.00  0.00    -0.043 Br
ENDBRANCH  15  17
BRANCH   1  23
ATOM     23  C   UNL     1      -2.849  -2.566  -0.107  0.00  0.00    +0.114 C 
BRANCH  23  24
ATOM     24  C   UNL     1      -1.441  -1.990  -0.265  0.00  0.00    +0.001 C 
BRANCH  24  25
ATOM     25  C   UNL     1      -1.495  -0.467  -0.128  0.00  0.00    -0.078 C 
BRANCH  25  27
ATOM     26  C   UNL     1      -0.210   1.554  -0.269  0.00  0.00    -0.097 C 
ATOM     27  N   UNL     1      -0.143   0.087  -0.280  0.00  0.00    +0.376 N 
ATOM     28  C   UNL     1       0.702  -0.373   0.831  0.00  0.00    -0.097 C 
ATOM     29  H   UNL     1       0.253  -0.225  -1.154  0.00  0.00    -0.083 HD
ENDBRANCH  25  27
ENDBRANCH  24  25
ENDBRANCH  23  24
ENDBRANCH   1  23
TORSDOF 5
