REMARK  Name = ZINC37279788
REMARK  6 active torsions:
REMARK  status: ('A' for Active; 'I' for Inactive)
REMARK    1  A    between atoms: C_1  and  C_2
REMARK    2  A    between atoms: C_7  and  C_8
REMARK    3  A    between atoms: C_8  and  N_9
REMARK    4  A    between atoms: N_16  and  C_28
REMARK    5  A    between atoms: N_19  and  C_20
REMARK    6  A    between atoms: C_28  and  C_29
REMARK                            x       y       z     vdW  Elec       q    Type
REMARK                         _______ _______ _______ _____ _____    ______ ____
ROOT
ATOM      1  N   UNL     1      -1.094   0.272   3.048  0.00  0.00    -0.320 N 
ATOM      2  C   UNL     1      -1.893   1.331   2.813  0.00  0.00    +0.202 A 
ATOM      3  N   UNL     1      -3.013   1.195   3.476  0.00  0.00    -0.217 NA
ATOM      4  C   UNL     1      -2.994   0.051   4.166  0.00  0.00    +0.173 A 
ATOM      5  C   UNL     1      -1.777  -0.566   3.907  0.00  0.00    +0.152 A 
ATOM      6  C   UNL     1      -1.493  -1.810   4.512  0.00  0.00    +0.283 A 
ATOM      7  O   UNL     1      -0.432  -2.369   4.302  0.00  0.00    -0.265 OA
ATOM      8  N   UNL     1      -2.412  -2.371   5.325  0.00  0.00    -0.255 N 
ATOM      9  C   UNL     1      -3.587  -1.764   5.565  0.00  0.00    +0.338 A 
ATOM     10  O   UNL     1      -4.391  -2.300   6.304  0.00  0.00    -0.246 OA
ATOM     11  N   UNL     1      -3.894  -0.575   5.014  0.00  0.00    -0.242 N 
ENDROOT
BRANCH  11  12
ATOM     12  C   UNL     1      -5.132   0.025   5.288  0.00  0.00    +0.088 A 
ATOM     13  C   UNL     1      -6.232  -0.256   4.489  0.00  0.00    +0.032 A 
ATOM     14  C   UNL     1      -7.450   0.336   4.760  0.00  0.00    +0.040 A 
ATOM     15  C   UNL     1      -7.576   1.210   5.827  0.00  0.00    +0.126 A 
ATOM     16  C   UNL     1      -6.481   1.492   6.626  0.00  0.00    +0.078 A 
ATOM     17  C   UNL     1      -5.261   0.897   6.363  0.00  0.00    +0.150 A 
ATOM     18  F   UNL     1      -4.193   1.168   7.145  0.00  0.00    -0.203 F 
ATOM     19  F   UNL     1      -8.769   1.788   6.088  0.00  0.00    -0.205 F 
ENDBRANCH  11  12
BRANCH   1  20
ATOM     20  C   UNL     1       0.243   0.049   2.492  0.00  0.00    +0.159 C 
BRANCH  20  27
ATOM     21  C   UNL     1      -0.181   1.311  -0.071  0.00  0.00    +0.044 C 
ATOM     22  C   UNL     1      -0.068  -0.189   0.020  0.00  0.00    -0.046 A 
ATOM     23  C   UNL     1      -0.161  -0.960  -1.123  0.00  0.00    +0.004 A 
ATOM     24  C   UNL     1      -0.056  -2.336  -1.039  0.00  0.00    +0.000 A 
ATOM     25  C   UNL     1       0.141  -2.940   0.188  0.00  0.00    +0.000 A 
ATOM     26  C   UNL     1       0.235  -2.169   1.331  0.00  0.00    +0.005 A 
ATOM     27  C   UNL     1       0.135  -0.793   1.247  0.00  0.00    -0.025 A 
ENDBRANCH  20  27
ENDBRANCH   1  20
BRANCH   8  28
ATOM     28  C   UNL     1      -2.124  -3.662   5.956  0.00  0.00    +0.156 C 
BRANCH  28  29
ATOM     29  C   UNL     1      -1.451  -3.433   7.284  0.00  0.00    -0.013 C 
ATOM     30  C   UNL     1      -1.956  -3.957   8.373  0.00  0.00    +0.005 C 
ENDBRANCH  28  29
ENDBRANCH   8  28
TORSDOF 5
