REMARK  Name = ZINC07927429
REMARK  8 active torsions:
REMARK  status: ('A' for Active; 'I' for Inactive)
REMARK    1  A    between atoms: C_1  and  C_2
REMARK    2  A    between atoms: C_5  and  C_14
REMARK    3  A    between atoms: C_12  and  C_13
REMARK    4  A    between atoms: C_14  and  N_52
REMARK    5  A    between atoms: C_15  and  C_16
REMARK    6  A    between atoms: C_15  and  N_52
REMARK    7  A    between atoms: C_21  and  C_22
REMARK    8  A    between atoms: C_21  and  N_52
REMARK                            x       y       z     vdW  Elec       q    Type
REMARK                         _______ _______ _______ _____ _____    ______ ____
ROOT
ATOM      1  C   UNL     1      -3.195   3.148   3.617  0.00  0.00    -0.041 C 
ENDROOT
BRANCH   1   6
ATOM      2  C   UNL     1       0.025   1.563   7.447  0.00  0.00    +0.044 C 
ATOM      3  C   UNL     1      -0.983   0.865   6.571  0.00  0.00    -0.047 A 
ATOM      4  C   UNL     1      -1.688   1.584   5.631  0.00  0.00    +0.015 A 
ATOM      5  C   UNL     1      -2.622   0.931   4.821  0.00  0.00    +0.019 A 
ATOM      6  C   UNL     1      -3.390   1.666   3.811  0.00  0.00    -0.047 A 
ATOM      7  C   UNL     1      -4.285   0.977   3.059  0.00  0.00    +0.094 A 
ATOM      8  C   UNL     1      -4.446  -0.412   3.258  0.00  0.00    +0.337 A 
ATOM      9  O   UNL     1      -5.249  -1.020   2.575  0.00  0.00    -0.245 OA
ATOM     10  O   UNL     1      -3.739  -1.078   4.184  0.00  0.00    -0.422 OA
ATOM     11  C   UNL     1      -2.836  -0.450   4.968  0.00  0.00    +0.140 A 
ATOM     12  C   UNL     1      -2.113  -1.155   5.922  0.00  0.00    +0.050 A 
ATOM     13  C   UNL     1      -1.195  -0.498   6.714  0.00  0.00    -0.044 A 
ATOM     14  C   UNL     1      -0.415  -1.270   7.747  0.00  0.00    +0.044 C 
ENDBRANCH   1   6
BRANCH   1  15
ATOM     15  N   UNL     1      -1.907   3.373   2.926  0.00  0.00    +0.387 N 
ATOM     16  H   UNL     1      -1.171   2.850   3.416  0.00  0.00    -0.081 HD
BRANCH  15  17
ATOM     17  C   UNL     1      -1.568   4.811   2.945  0.00  0.00    -0.035 C 
BRANCH  17  18
ATOM     18  C   UNL     1      -1.127   5.187   4.336  0.00  0.00    -0.027 A 
ATOM     19  C   UNL     1       0.106   5.099   4.893  0.00  0.00    +0.009 A 
ATOM     20  C   UNL     1       0.281   5.510   6.201  0.00  0.00    +0.008 A 
ATOM     21  C   UNL     1      -0.787   5.979   6.891  0.00  0.00    +0.045 A 
ATOM     22  S   UNL     1      -2.093   5.855   5.680  0.00  0.00    -0.103 S 
ENDBRANCH  17  18
ENDBRANCH  15  17
BRANCH  15  23
ATOM     23  C   UNL     1      -1.991   2.891   1.531  0.00  0.00    -0.046 C 
BRANCH  23  24
ATOM     24  C   UNL     1      -0.593   2.928   0.912  0.00  0.00    +0.102 C 
ATOM     25  C   UNL     1      -0.649   2.529  -0.585  0.00  0.00    +0.032 C 
ATOM     26  C   UNL     1       0.789   2.013  -0.837  0.00  0.00    +0.030 C 
ATOM     27  C   UNL     1       1.317   1.663   0.568  0.00  0.00    +0.160 C 
ATOM     28  O   UNL     1       0.253   1.915   1.502  0.00  0.00    -0.378 OA
ENDBRANCH  23  24
ENDBRANCH  15  23
ENDBRANCH   1  15
TORSDOF 6
