REMARK  Name = ZINC31038908
REMARK  14 active torsions:
REMARK  status: ('A' for Active; 'I' for Inactive)
REMARK    1  A    between atoms: C_1  and  C_2
REMARK    2  A    between atoms: C_3  and  C_35
REMARK    3  A    between atoms: N_4  and  C_27
REMARK    4  A    between atoms: C_5  and  N_9
REMARK    5  A    between atoms: C_6  and  C_7
REMARK    6  A    between atoms: C_10  and  C_12
REMARK    7  A    between atoms: C_12  and  N_13
REMARK    8  A    between atoms: N_13  and  C_14
REMARK    9  A    between atoms: N_13  and  C_15
REMARK   10  A    between atoms: C_15  and  C_16
REMARK   11  A    between atoms: N_18  and  C_19
REMARK   12  A    between atoms: C_24  and  S_25
REMARK   13  A    between atoms: S_25  and  C_26
REMARK   14  A    between atoms: C_27  and  C_28
REMARK                            x       y       z     vdW  Elec       q    Type
REMARK                         _______ _______ _______ _____ _____    ______ ____
ROOT
ATOM      1  N   UNL     1      -2.475   1.704  -0.312  0.00  0.00    -0.272 N 
ATOM      2  C   UNL     1      -3.477   2.605  -0.314  0.00  0.00    +0.202 C 
ATOM      3  O   UNL     1      -3.228   3.789  -0.394  0.00  0.00    -0.278 OA
ATOM      4  H   UNL     1      -2.702   0.629  -0.280  0.00  0.00    +0.156 HD
ENDROOT
BRANCH   1   9
ATOM      5  C   UNL     1       1.903   4.004   0.728  0.00  0.00    +0.047 C 
ATOM      6  C   UNL     1       0.834   3.156   0.089  0.00  0.00    -0.011 A 
ATOM      7  C   UNL     1       0.970   2.381  -1.000  0.00  0.00    +0.022 A 
ATOM      8  N   UNL     1      -0.225   1.768  -1.270  0.00  0.00    -0.327 N 
ATOM      9  C   UNL     1      -1.157   2.134  -0.353  0.00  0.00    +0.124 A 
ATOM     10  C   UNL     1      -0.557   3.015   0.536  0.00  0.00    +0.095 A 
ATOM     11  C   UNL     1       2.237   2.213  -1.798  0.00  0.00    +0.064 C 
BRANCH  10  12
ATOM     12  C   UNL     1      -1.169   3.654   1.662  0.00  0.00    +0.103 C 
ATOM     13  N   UNL     1      -1.655   4.160   2.556  0.00  0.00    -0.191 NA
ENDBRANCH  10  12
BRANCH   8  14
ATOM     14  C   UNL     1      -0.461   0.847  -2.385  0.00  0.00    +0.158 C 
BRANCH  14  15
ATOM     15  C   UNL     1      -0.087  -0.552  -1.968  0.00  0.00    -0.028 A 
ATOM     16  C   UNL     1       1.219  -0.986  -2.098  0.00  0.00    +0.008 A 
ATOM     17  C   UNL     1       1.563  -2.267  -1.711  0.00  0.00    +0.038 A 
ATOM     18  C   UNL     1       0.598  -3.120  -1.204  0.00  0.00    +0.123 A 
ATOM     19  C   UNL     1      -0.711  -2.686  -1.079  0.00  0.00    +0.038 A 
ATOM     20  C   UNL     1      -1.052  -1.402  -1.461  0.00  0.00    +0.008 A 
ATOM     21  F   UNL     1       0.932  -4.374  -0.830  0.00  0.00    -0.205 F 
ENDBRANCH  14  15
ENDBRANCH   8  14
ENDBRANCH   1   9
BRANCH   2  22
ATOM     22  C   UNL     1      -4.908   2.141  -0.215  0.00  0.00    +0.019 C 
BRANCH  22  23
ATOM     23  N   UNL     1      -5.803   3.305  -0.237  0.00  0.00    +0.389 N 
ATOM     24  C   UNL     1      -5.620   4.132   0.964  0.00  0.00    -0.095 C 
ATOM     25  H   UNL     1      -5.540   3.917  -1.112  0.00  0.00    -0.081 HD
BRANCH  23  26
ATOM     26  C   UNL     1      -7.204   2.889  -0.381  0.00  0.00    +0.019 C 
BRANCH  26  27
ATOM     27  C   UNL     1      -8.063   4.099  -0.645  0.00  0.00    +0.201 C 
ATOM     28  O   UNL     1      -7.557   5.200  -0.707  0.00  0.00    -0.278 OA
ATOM     29  N   UNL     1      -9.393   3.958  -0.813  0.00  0.00    -0.286 N 
ATOM     30  H   UNL     1      -9.865   2.977  -0.660  0.00  0.00    +0.155 HD
BRANCH  29  31
ATOM     31  C   UNL     1     -10.174   5.062  -1.181  0.00  0.00    +0.047 A 
ATOM     32  C   UNL     1      -9.621   6.082  -1.941  0.00  0.00    +0.024 A 
ATOM     33  C   UNL     1     -10.395   7.167  -2.308  0.00  0.00    +0.002 A 
ATOM     34  C   UNL     1     -11.717   7.246  -1.910  0.00  0.00    +0.001 A 
ATOM     35  C   UNL     1     -12.275   6.237  -1.148  0.00  0.00    +0.016 A 
ATOM     36  C   UNL     1     -11.507   5.141  -0.779  0.00  0.00    +0.029 A 
BRANCH  36  37
ATOM     37  S   UNL     1     -12.215   3.854   0.194  0.00  0.00    -0.127 S 
ATOM     38  C   UNL     1     -13.926   4.394   0.459  0.00  0.00    +0.090 C 
ENDBRANCH  36  37
ENDBRANCH  29  31
ENDBRANCH  26  27
ENDBRANCH  23  26
ENDBRANCH  22  23
ENDBRANCH   2  22
TORSDOF 10
