REMARK  Name = ZINC40322110
REMARK  12 active torsions:
REMARK  status: ('A' for Active; 'I' for Inactive)
REMARK    1  A    between atoms: C_1  and  C_2
REMARK    2  A    between atoms: C_2  and  C_3
REMARK    3  A    between atoms: C_2  and  C_4
REMARK    4  A    between atoms: C_7  and  C_10
REMARK    5  A    between atoms: C_10  and  C_12
REMARK    6  A    between atoms: C_10  and  N_31
REMARK    7  A    between atoms: C_12  and  N_13
REMARK    8  A    between atoms: C_14  and  C_16
REMARK    9  A    between atoms: C_19  and  S_21
REMARK   10  A    between atoms: S_21  and  C_24
REMARK   11  A    between atoms: N_31  and  C_32
REMARK   12  A    between atoms: N_31  and  C_33
REMARK                            x       y       z     vdW  Elec       q    Type
REMARK                         _______ _______ _______ _____ _____    ______ ____
ROOT
ATOM      1  N   UNL     1      -4.981  -3.305   2.042  0.00  0.00    -0.310 N 
ATOM      2  C   UNL     1      -4.870  -4.435   2.767  0.00  0.00    +0.279 C 
ATOM      3  O   UNL     1      -5.226  -5.499   2.295  0.00  0.00    -0.267 OA
ATOM      4  H   UNL     1      -4.697  -2.457   2.418  0.00  0.00    +0.149 HD
ENDROOT
BRANCH   2   5
ATOM      5  C   UNL     1      -4.322  -4.384   4.127  0.00  0.00    +0.192 A 
ATOM      6  C   UNL     1      -4.151  -5.449   4.964  0.00  0.00    +0.056 A 
ATOM      7  C   UNL     1      -3.600  -4.943   6.152  0.00  0.00    +0.070 A 
ATOM      8  C   UNL     1      -3.461  -3.609   5.990  0.00  0.00    +0.246 A 
ATOM      9  O   UNL     1      -3.892  -3.276   4.766  0.00  0.00    -0.433 OA
BRANCH   8  10
ATOM     10  S   UNL     1      -2.814  -2.492   7.189  0.00  0.00    +0.058 S 
ATOM     11  O   UNL     1      -3.342  -1.210   6.876  0.00  0.00    -0.161 OA
ATOM     12  O   UNL     1      -3.002  -3.104   8.458  0.00  0.00    -0.161 OA
BRANCH  10  13
ATOM     13  C   UNL     1      -1.074  -2.398   6.928  0.00  0.00    +0.097 A 
ATOM     14  C   UNL     1      -0.229  -3.275   7.581  0.00  0.00    +0.029 A 
ATOM     15  C   UNL     1       1.136  -3.202   7.377  0.00  0.00    +0.022 A 
ATOM     16  C   UNL     1       1.657  -2.250   6.518  0.00  0.00    +0.041 A 
ATOM     17  C   UNL     1       0.810  -1.373   5.864  0.00  0.00    +0.022 A 
ATOM     18  C   UNL     1      -0.555  -1.450   6.065  0.00  0.00    +0.029 A 
ATOM     19 CL   UNL     1       3.371  -2.157   6.261  0.00  0.00    -0.084 Cl
ENDBRANCH  10  13
ENDBRANCH   8  10
ENDBRANCH   2   5
BRANCH   1  20
ATOM     20  C   UNL     1      -5.529  -3.357   0.684  0.00  0.00    +0.094 C 
BRANCH  20  21
ATOM     21  C   UNL     1      -5.422  -1.974   0.038  0.00  0.00    -0.021 C 
BRANCH  21  25
ATOM     22  C   UNL     1      -1.305  -0.942  -0.445  0.00  0.00    -0.045 A 
ATOM     23  C   UNL     1      -2.027  -0.428   0.616  0.00  0.00    +0.004 A 
ATOM     24  C   UNL     1      -3.359  -0.762   0.772  0.00  0.00    +0.002 A 
ATOM     25  C   UNL     1      -3.970  -1.609  -0.133  0.00  0.00    -0.059 A 
ATOM     26  C   UNL     1      -3.249  -2.123  -1.194  0.00  0.00    +0.002 A 
ATOM     27  C   UNL     1      -1.918  -1.786  -1.353  0.00  0.00    +0.004 A 
BRANCH  22  29
ATOM     28  C   UNL     1       0.278   0.938  -0.773  0.00  0.00    +0.012 C 
ATOM     29  C   UNL     1       0.147  -0.579  -0.616  0.00  0.00    +0.013 C 
ATOM     30  C   UNL     1       0.934  -1.034   0.615  0.00  0.00    +0.012 C 
ENDBRANCH  22  29
ENDBRANCH  21  25
BRANCH  21  31
ATOM     31  N   UNL     1      -6.080  -1.995  -1.275  0.00  0.00    +0.382 N 
ATOM     32  C   UNL     1      -7.500  -2.333  -1.107  0.00  0.00    -0.096 C 
ATOM     33  C   UNL     1      -5.963  -0.672  -1.903  0.00  0.00    -0.096 C 
ATOM     34  H   UNL     1      -5.637  -2.686  -1.862  0.00  0.00    -0.082 HD
ENDBRANCH  21  31
ENDBRANCH  20  21
ENDBRANCH   1  20
TORSDOF 8
