REMARK  Name = ZINC45350400
REMARK  9 active torsions:
REMARK  status: ('A' for Active; 'I' for Inactive)
REMARK    1  A    between atoms: C_1  and  C_2
REMARK    2  A    between atoms: C_4  and  C_26
REMARK    3  A    between atoms: C_7  and  C_8
REMARK    4  A    between atoms: C_14  and  S_17
REMARK    5  A    between atoms: S_17  and  C_18
REMARK    6  A    between atoms: C_26  and  N_27
REMARK    7  A    between atoms: N_27  and  C_28
REMARK    8  A    between atoms: C_28  and  C_29
REMARK    9  A    between atoms: C_29  and  O_30
REMARK                            x       y       z     vdW  Elec       q    Type
REMARK                         _______ _______ _______ _____ _____    ______ ____
ROOT
ATOM      1  C   UNL     1       0.148  -0.048   2.616  0.00  0.00    +0.169 A 
ATOM      2  N   UNL     1       0.919   0.967   2.955  0.00  0.00    -0.128 NA
ATOM      3  N   UNL     1       0.582   1.411   4.115  0.00  0.00    -0.129 NA
ATOM      4  C   UNL     1      -0.432   0.700   4.588  0.00  0.00    +0.161 A 
ATOM      5  N   UNL     1      -0.737  -0.245   3.641  0.00  0.00    -0.281 N 
ATOM      6  C   UNL     1      -1.754  -1.131   3.847  0.00  0.00    +0.109 A 
ATOM      7  C   UNL     1      -2.482  -1.087   4.992  0.00  0.00    +0.029 A 
ATOM      8  C   UNL     1      -2.191  -0.124   5.980  0.00  0.00    +0.020 A 
ATOM      9  C   UNL     1      -1.172   0.755   5.784  0.00  0.00    +0.050 A 
ENDROOT
BRANCH   1  16
ATOM     10  C   UNL     1       0.321   1.341   0.084  0.00  0.00    +0.044 C 
ATOM     11  C   UNL     1       0.306  -0.165   0.133  0.00  0.00    -0.040 A 
ATOM     12  C   UNL     1       0.381  -0.895  -1.034  0.00  0.00    +0.005 A 
ATOM     13  C   UNL     1       0.368  -2.278  -0.991  0.00  0.00    -0.064 A 
ATOM     14  C   UNL     1       0.279  -2.938   0.222  0.00  0.00    +0.002 A 
ATOM     15  C   UNL     1       0.203  -2.220   1.397  0.00  0.00    +0.012 A 
ATOM     16  C   UNL     1       0.223  -0.824   1.361  0.00  0.00    +0.023 A 
BRANCH  13  17
ATOM     17  C   UNL     1       0.450  -3.070  -2.271  0.00  0.00    -0.047 C 
BRANCH  17  18
ATOM     18  N   UNL     1       1.858  -3.337  -2.592  0.00  0.00    +0.383 N 
ATOM     19  H   UNL     1       2.349  -2.463  -2.705  0.00  0.00    -0.085 HD
ATOM     20  H   UNL     1       2.279  -3.865  -1.843  0.00  0.00    -0.085 HD
BRANCH  18  21
ATOM     21  C   UNL     1       1.937  -4.109  -3.840  0.00  0.00    -0.054 C 
BRANCH  21  22
ATOM     22  C   UNL     1       3.404  -4.388  -4.174  0.00  0.00    +0.137 C 
BRANCH  22  23
ATOM     23  O   UNL     1       3.969  -5.233  -3.170  0.00  0.00    -0.397 OA
ATOM     24  H   UNL     1       4.899  -5.452  -3.318  0.00  0.00    +0.209 HD
ENDBRANCH  22  23
ENDBRANCH  21  22
ENDBRANCH  18  21
ENDBRANCH  17  18
ENDBRANCH  13  17
ENDBRANCH   1  16
BRANCH   7  25
ATOM     25  S   UNL     1      -3.793  -2.237   5.244  0.00  0.00    -0.085 S 
BRANCH  25  26
ATOM     26  C   UNL     1      -5.242  -1.235   5.252  0.00  0.00    +0.048 A 
ATOM     27  C   UNL     1      -5.154   0.118   4.952  0.00  0.00    +0.021 A 
ATOM     28  C   UNL     1      -6.292   0.902   4.959  0.00  0.00    +0.039 A 
ATOM     29  C   UNL     1      -7.520   0.340   5.264  0.00  0.00    +0.126 A 
ATOM     30  C   UNL     1      -7.612  -1.009   5.564  0.00  0.00    +0.077 A 
ATOM     31  C   UNL     1      -6.478  -1.799   5.553  0.00  0.00    +0.140 A 
ATOM     32  F   UNL     1      -6.568  -3.117   5.839  0.00  0.00    -0.204 F 
ATOM     33  F   UNL     1      -8.631   1.109   5.270  0.00  0.00    -0.205 F 
ENDBRANCH  25  26
ENDBRANCH   7  25
TORSDOF 8
