REMARK  Name = ZINC35310941
REMARK  3 active torsions:
REMARK  status: ('A' for Active; 'I' for Inactive)
REMARK    1  A    between atoms: C_2  and  C_3
REMARK    2  A    between atoms: C_3  and  N_4
REMARK    3  A    between atoms: N_4  and  C_5
REMARK                            x       y       z     vdW  Elec       q    Type
REMARK                         _______ _______ _______ _____ _____    ______ ____
ROOT
ATOM      1  C   UNL     1       2.518  -2.385   1.360  0.00  0.00    +0.111 A 
ATOM      2  C   UNL     1       2.579  -3.276   2.415  0.00  0.00    +0.012 A 
ATOM      3  C   UNL     1       3.757  -3.983   2.640  0.00  0.00    +0.051 A 
ATOM      4  N   UNL     1       4.799  -3.800   1.852  0.00  0.00    -0.216 NA
ATOM      5  C   UNL     1       4.762  -2.940   0.824  0.00  0.00    +0.237 A 
ATOM      6  N   UNL     1       3.619  -2.225   0.563  0.00  0.00    -0.264 N 
ATOM      7  C   UNL     1       3.866  -1.431  -0.542  0.00  0.00    +0.077 A 
ATOM      8  C   UNL     1       3.111  -0.510  -1.254  0.00  0.00    +0.028 A 
ATOM      9  C   UNL     1       3.663   0.134  -2.341  0.00  0.00    +0.002 A 
ATOM     10  C   UNL     1       4.969  -0.133  -2.729  0.00  0.00    +0.002 A 
ATOM     11  C   UNL     1       5.729  -1.037  -2.041  0.00  0.00    +0.030 A 
ATOM     12  C   UNL     1       5.190  -1.702  -0.934  0.00  0.00    +0.092 A 
ATOM     13  N   UNL     1       5.687  -2.618  -0.070  0.00  0.00    -0.210 NA
ATOM     14  C   UNL     1       3.580  -4.888   3.841  0.00  0.00    +0.056 C 
ATOM     15  C   UNL     1       2.340  -4.343   4.581  0.00  0.00    +0.011 C 
ATOM     16  C   UNL     1       1.544  -3.663   3.447  0.00  0.00    +0.041 C 
ENDROOT
BRANCH   1  17
ATOM     17  N   UNL     1       1.367  -1.676   1.111  0.00  0.00    -0.326 N 
ATOM     18  H   UNL     1       1.308  -1.107   0.328  0.00  0.00    +0.148 HD
BRANCH  17  19
ATOM     19  C   UNL     1       0.231  -1.778   2.030  0.00  0.00    +0.130 C 
BRANCH  19  21
ATOM     20  C   UNL     1      -2.093  -1.595   1.303  0.00  0.00    +0.005 C 
ATOM     21  C   UNL     1      -0.936  -1.004   1.474  0.00  0.00    -0.016 C 
ENDBRANCH  19  21
ENDBRANCH  17  19
ENDBRANCH   1  17
TORSDOF 3
