REMARK  Name = ZINC67613109
REMARK  10 active torsions:
REMARK  status: ('A' for Active; 'I' for Inactive)
REMARK    1  A    between atoms: C_1  and  C_2
REMARK    2  A    between atoms: C_2  and  N_3
REMARK    3  A    between atoms: N_6  and  C_9
REMARK    4  A    between atoms: C_9  and  C_10
REMARK    5  A    between atoms: C_10  and  N_11
REMARK    6  A    between atoms: C_12  and  C_14
REMARK    7  A    between atoms: C_14  and  C_15
REMARK    8  A    between atoms: C_15  and  C_16
REMARK    9  A    between atoms: C_16  and  C_17
REMARK   10  A    between atoms: C_17  and  C_18
REMARK                            x       y       z     vdW  Elec       q    Type
REMARK                         _______ _______ _______ _____ _____    ______ ____
ROOT
ATOM      1  N   UNL     1       4.239  -4.540  -4.802  0.00  0.00    -0.314 N 
ATOM      2  C   UNL     1       4.438  -5.864  -4.956  0.00  0.00    +0.213 C 
ATOM      3  O   UNL     1       4.021  -6.640  -4.123  0.00  0.00    -0.276 OA
ATOM      4  H   UNL     1       4.573  -3.918  -5.468  0.00  0.00    +0.149 HD
ENDROOT
BRANCH   1   5
ATOM      5  C   UNL     1       3.520  -4.038  -3.629  0.00  0.00    +0.119 C 
BRANCH   5   6
ATOM      6  C   UNL     1       3.433  -2.512  -3.697  0.00  0.00    +0.103 C 
BRANCH   6  10
ATOM      7  N   UNL     1       0.690  -0.478  -1.207  0.00  0.00    +0.381 N 
ATOM      8  C   UNL     1       2.100  -0.069  -1.160  0.00  0.00    -0.063 C 
ATOM      9  C   UNL     1       2.812  -0.546  -2.427  0.00  0.00    +0.066 C 
ATOM     10  N   UNL     1       2.711  -2.009  -2.521  0.00  0.00    -0.304 NA
ATOM     11  C   UNL     1       1.305  -2.435  -2.544  0.00  0.00    +0.066 C 
ATOM     12  C   UNL     1       0.605  -1.943  -1.275  0.00  0.00    -0.063 C 
ATOM     13  H   UNL     1       0.251  -0.077  -2.022  0.00  0.00    -0.082 HD
BRANCH   7  15
ATOM     14  C   UNL     1      -0.019   1.526   0.010  0.00  0.00    -0.017 C 
ATOM     15  C   UNL     1       0.002  -0.004   0.002  0.00  0.00    -0.082 C 
ENDBRANCH   7  15
ENDBRANCH   6  10
ENDBRANCH   5   6
ENDBRANCH   1   5
BRANCH   2  16
ATOM     16  C   UNL     1       5.178  -6.380  -6.163  0.00  0.00    +0.096 C 
BRANCH  16  17
ATOM     17  C   UNL     1       5.265  -7.906  -6.094  0.00  0.00    +0.009 C 
BRANCH  17  18
ATOM     18  C   UNL     1       6.017  -8.429  -7.319  0.00  0.00    +0.002 C 
BRANCH  18  19
ATOM     19  C   UNL     1       6.103  -9.955  -7.251  0.00  0.00    +0.016 C 
BRANCH  19  20
ATOM     20  C   UNL     1       6.855 -10.479  -8.476  0.00  0.00    +0.069 C 
ATOM     21  C   UNL     1       6.992 -11.980  -8.431  0.00  0.00    +0.108 C 
ATOM     22  C   UNL     1       5.668 -12.615  -8.959  0.00  0.00    +0.105 C 
ATOM     23  C   UNL     1       5.498 -12.077 -10.378  0.00  0.00    +0.093 C 
ATOM     24  S   UNL     1       5.848 -10.273 -10.018  0.00  0.00    -0.154 S 
ATOM     25  N   UNL     1       5.963 -14.008  -8.710  0.00  0.00    -0.294 N 
ATOM     26  C   UNL     1       6.741 -14.021  -7.586  0.00  0.00    +0.300 C 
ATOM     27  O   UNL     1       6.974 -15.024  -6.940  0.00  0.00    -0.253 OA
ATOM     28  N   UNL     1       7.211 -12.784  -7.266  0.00  0.00    -0.294 N 
ATOM     29  H   UNL     1       5.670 -14.773  -9.230  0.00  0.00    +0.151 HD
ATOM     30  H   UNL     1       7.614 -12.511  -6.427  0.00  0.00    +0.151 HD
ENDBRANCH  19  20
ENDBRANCH  18  19
ENDBRANCH  17  18
ENDBRANCH  16  17
ENDBRANCH   2  16
TORSDOF 9
