REMARK  Name = ZINC04569584
REMARK  8 active torsions:
REMARK  status: ('A' for Active; 'I' for Inactive)
REMARK    1  A    between atoms: C_1  and  N_2
REMARK    2  A    between atoms: C_5  and  C_10
REMARK    3  A    between atoms: C_14  and  O_18
REMARK    4  A    between atoms: C_15  and  O_16
REMARK    5  A    between atoms: O_16  and  C_17
REMARK    6  A    between atoms: O_18  and  C_19
REMARK    7  A    between atoms: N_22  and  C_24
REMARK    8  A    between atoms: C_24  and  C_25
REMARK                            x       y       z     vdW  Elec       q    Type
REMARK                         _______ _______ _______ _____ _____    ______ ____
ROOT
ATOM      1  C   UNL     1       7.389   0.827  -1.533  0.00  0.00    +0.139 C 
ATOM      2  N   UNL     1       6.121   0.300  -1.022  0.00  0.00    -0.260 N 
ATOM      3  C   UNL     1       5.314  -0.388  -1.883  0.00  0.00    +0.042 C 
ATOM      4  C   UNL     1       4.135  -0.900  -1.477  0.00  0.00    +0.058 C 
ATOM      5  C   UNL     1       3.733  -0.685  -0.032  0.00  0.00    +0.145 C 
ATOM      6  N   UNL     1       4.672   0.071   0.815  0.00  0.00    -0.288 N 
ATOM      7  C   UNL     1       5.817   0.519   0.264  0.00  0.00    +0.307 C 
ATOM      8  O   UNL     1       6.598   1.143   0.955  0.00  0.00    -0.252 OA
ATOM      9  C   UNL     1       3.494  -1.561  -2.545  0.00  0.00    +0.247 C 
ATOM     10  O   UNL     1       2.413  -2.116  -2.461  0.00  0.00    -0.270 OA
ATOM     11  N   UNL     1       4.232  -1.500  -3.668  0.00  0.00    -0.288 N 
ATOM     12  C   UNL     1       5.454  -0.749  -3.345  0.00  0.00    +0.160 C 
ATOM     13  H   UNL     1       4.471   0.241   1.749  0.00  0.00    +0.151 HD
ENDROOT
BRANCH   5  14
ATOM     14  C   UNL     1       2.411   0.038  -0.019  0.00  0.00    +0.023 A 
ATOM     15  C   UNL     1       1.972   0.696  -1.154  0.00  0.00    +0.009 A 
ATOM     16  C   UNL     1       0.760   1.360  -1.146  0.00  0.00    +0.004 A 
ATOM     17  C   UNL     1      -0.019   1.370  -0.003  0.00  0.00    +0.049 A 
ATOM     18  C   UNL     1       0.415   0.714   1.137  0.00  0.00    +0.162 A 
ATOM     19  C   UNL     1       1.636   0.044   1.128  0.00  0.00    +0.167 A 
BRANCH  19  20
ATOM     20  O   UNL     1       2.066  -0.602   2.245  0.00  0.00    -0.491 OA
ATOM     21  C   UNL     1       1.592  -1.935   2.446  0.00  0.00    +0.277 C 
ENDBRANCH  19  20
BRANCH  18  22
ATOM     22  O   UNL     1      -0.349   0.723   2.261  0.00  0.00    -0.491 OA
ATOM     23  C   UNL     1      -1.589   1.430   2.197  0.00  0.00    +0.277 C 
ENDBRANCH  18  22
ENDBRANCH   5  14
BRANCH  11  24
ATOM     24  C   UNL     1       3.883  -2.074  -4.969  0.00  0.00    +0.143 C 
BRANCH  24  25
ATOM     25  C   UNL     1       4.413  -3.483  -5.056  0.00  0.00    -0.030 A 
ATOM     26  C   UNL     1       5.680  -3.714  -5.558  0.00  0.00    +0.008 A 
ATOM     27  C   UNL     1       6.169  -5.005  -5.632  0.00  0.00    +0.038 A 
ATOM     28  C   UNL     1       5.385  -6.067  -5.213  0.00  0.00    +0.123 A 
ATOM     29  C   UNL     1       4.114  -5.834  -4.715  0.00  0.00    +0.038 A 
ATOM     30  C   UNL     1       3.629  -4.542  -4.637  0.00  0.00    +0.008 A 
ATOM     31  F   UNL     1       5.860  -7.329  -5.290  0.00  0.00    -0.205 F 
ENDBRANCH  24  25
ENDBRANCH  11  24
TORSDOF 5
