REMARK  Name = ZINC59005226
REMARK  11 active torsions:
REMARK  status: ('A' for Active; 'I' for Inactive)
REMARK    1  A    between atoms: C_1  and  N_2
REMARK    2  A    between atoms: N_2  and  C_3
REMARK    3  A    between atoms: N_2  and  S_4
REMARK    4  A    between atoms: S_4  and  C_7
REMARK    5  A    between atoms: C_10  and  C_12
REMARK    6  A    between atoms: C_12  and  S_13
REMARK    7  A    between atoms: S_13  and  C_14
REMARK    8  A    between atoms: C_17  and  C_26
REMARK    9  A    between atoms: N_18  and  C_19
REMARK   10  A    between atoms: C_19  and  C_20
REMARK   11  A    between atoms: C_26  and  N_27
REMARK                            x       y       z     vdW  Elec       q    Type
REMARK                         _______ _______ _______ _____ _____    ______ ____
ROOT
ATOM      1  C   UNL     1      -6.064   0.052  -6.069  0.00  0.00    +0.192 A 
ATOM      2  N   UNL     1      -5.490   0.875  -6.916  0.00  0.00    -0.123 NA
ATOM      3  N   UNL     1      -6.349   1.278  -7.783  0.00  0.00    -0.135 NA
ATOM      4  C   UNL     1      -7.512   0.741  -7.543  0.00  0.00    +0.118 A 
ATOM      5  N   UNL     1      -7.371  -0.064  -6.447  0.00  0.00    -0.303 N 
ENDROOT
BRANCH   1   6
ATOM      6  S   UNL     1      -5.291  -0.756  -4.707  0.00  0.00    -0.078 S 
BRANCH   6   7
ATOM      7  C   UNL     1      -3.574  -0.175  -4.769  0.00  0.00    +0.151 C 
BRANCH   7  11
ATOM      8  C   UNL     1      -1.884  -1.109  -1.669  0.00  0.00    +0.258 A 
ATOM      9  C   UNL     1      -1.537  -2.164  -2.428  0.00  0.00    +0.071 A 
ATOM     10  C   UNL     1      -2.122  -1.964  -3.700  0.00  0.00    +0.047 A 
ATOM     11  C   UNL     1      -2.792  -0.799  -3.642  0.00  0.00    +0.118 A 
ATOM     12  O   UNL     1      -2.649  -0.288  -2.408  0.00  0.00    -0.441 OA
BRANCH   8  13
ATOM     13  S   UNL     1      -1.421  -0.852   0.011  0.00  0.00    +0.093 S 
ATOM     14  O   UNL     1      -1.127  -2.132   0.552  0.00  0.00    -0.150 OA
ATOM     15  O   UNL     1      -2.401   0.008   0.576  0.00  0.00    -0.150 OA
BRANCH  13  17
ATOM     16  C   UNL     1      -0.018   1.461   0.010  0.00  0.00    +0.131 C 
ATOM     17  N   UNL     1       0.002  -0.004   0.002  0.00  0.00    -0.180 NA
ATOM     18  C   UNL     1       1.281  -0.719  -0.014  0.00  0.00    +0.131 C 
ENDBRANCH  13  17
ENDBRANCH   8  13
ENDBRANCH   7  11
ENDBRANCH   6   7
ENDBRANCH   1   6
BRANCH   5  19
ATOM     19  C   UNL     1      -8.407  -0.878  -5.807  0.00  0.00    +0.160 C 
BRANCH  19  20
ATOM     20  C   UNL     1      -9.103  -0.064  -4.747  0.00  0.00    -0.028 A 
ATOM     21  C   UNL     1      -8.623  -0.062  -3.451  0.00  0.00    +0.005 A 
ATOM     22  C   UNL     1      -9.261   0.685  -2.478  0.00  0.00    +0.000 A 
ATOM     23  C   UNL     1     -10.379   1.431  -2.802  0.00  0.00    +0.000 A 
ATOM     24  C   UNL     1     -10.859   1.430  -4.099  0.00  0.00    +0.000 A 
ATOM     25  C   UNL     1     -10.218   0.686  -5.072  0.00  0.00    +0.005 A 
ENDBRANCH  19  20
ENDBRANCH   5  19
BRANCH   4  26
ATOM     26  C   UNL     1      -8.777   0.961  -8.333  0.00  0.00    -0.001 C 
BRANCH  26  27
ATOM     27  N   UNL     1      -8.863  -0.037  -9.407  0.00  0.00    +0.384 N 
ATOM     28  C   UNL     1      -7.763   0.171 -10.356  0.00  0.00    -0.078 C 
ATOM     29  C   UNL     1      -7.800  -0.915 -11.433  0.00  0.00    -0.019 C 
ATOM     30  C   UNL     1      -9.137  -0.844 -12.176  0.00  0.00    -0.004 C 
ATOM     31  C   UNL     1     -10.280  -0.988 -11.166  0.00  0.00    -0.019 C 
ATOM     32  C   UNL     1     -10.150   0.102 -10.099  0.00  0.00    -0.078 C 
ATOM     33  H   UNL     1      -8.793  -0.963  -9.012  0.00  0.00    -0.081 HD
ENDBRANCH  26  27
ENDBRANCH   4  26
TORSDOF 9
