REMARK  Name = ZINC14037930
REMARK  9 active torsions:
REMARK  status: ('A' for Active; 'I' for Inactive)
REMARK    1  A    between atoms: C_1  and  C_2
REMARK    2  A    between atoms: C_2  and  C_4
REMARK    3  A    between atoms: C_2  and  O_23
REMARK    4  A    between atoms: N_6  and  N_7
REMARK    5  A    between atoms: C_8  and  C_10
REMARK    6  A    between atoms: C_10  and  O_11
REMARK    7  A    between atoms: O_11  and  C_12
REMARK    8  A    between atoms: O_23  and  C_24
REMARK    9  A    between atoms: C_27  and  N_30
REMARK                            x       y       z     vdW  Elec       q    Type
REMARK                         _______ _______ _______ _____ _____    ______ ____
ROOT
ATOM      1  N   UNL     1       3.483  10.166   0.312  0.00  0.00    -0.231 N 
ATOM      2  C   UNL     1       2.503   9.258   0.490  0.00  0.00    +0.267 C 
ATOM      3  O   UNL     1       1.366   9.626   0.696  0.00  0.00    -0.271 OA
ATOM      4  H   UNL     1       4.393   9.872   0.148  0.00  0.00    +0.173 HD
ENDROOT
BRANCH   1   7
ATOM      5  C   UNL     1       4.168  12.443   0.186  0.00  0.00    +0.270 C 
ATOM      6  O   UNL     1       5.306  12.075  -0.019  0.00  0.00    -0.270 OA
ATOM      7  N   UNL     1       3.188  11.535   0.364  0.00  0.00    -0.231 N 
ATOM      8  H   UNL     1       2.279  11.829   0.528  0.00  0.00    +0.173 HD
BRANCH   5  10
ATOM      9  C   UNL     1       2.925  14.281  -0.920  0.00  0.00    +0.062 C 
ATOM     10  C   UNL     1       3.851  13.915   0.242  0.00  0.00    +0.257 C 
BRANCH  10  11
ATOM     11  O   UNL     1       5.061  14.668   0.141  0.00  0.00    -0.480 OA
BRANCH  11  12
ATOM     12  C   UNL     1       5.058  15.917   0.676  0.00  0.00    +0.122 A 
ATOM     13  C   UNL     1       6.230  16.657   0.721  0.00  0.00    +0.048 A 
ATOM     14  C   UNL     1       6.222  17.929   1.261  0.00  0.00    +0.036 A 
ATOM     15  C   UNL     1       5.049  18.460   1.765  0.00  0.00    +0.126 A 
ATOM     16  C   UNL     1       3.881  17.722   1.726  0.00  0.00    +0.036 A 
ATOM     17  C   UNL     1       3.882  16.452   1.183  0.00  0.00    +0.048 A 
BRANCH  15  18
ATOM     18  N   UNL     1       5.045  19.820   2.348  0.00  0.00    +0.056 N 
ATOM     19  O   UNL     1       4.013  20.289   2.793  0.00  0.00    -0.126 OA
ATOM     20  O   UNL     1       6.074  20.471   2.383  0.00  0.00    -0.126 OA
ENDBRANCH  15  18
ENDBRANCH  11  12
ENDBRANCH  10  11
ENDBRANCH   5  10
ENDBRANCH   1   7
BRANCH   2  21
ATOM     21  C   UNL     1       2.821   7.786   0.434  0.00  0.00    +0.326 C 
BRANCH  21  22
ATOM     22  O   UNL     1       1.626   7.033   0.651  0.00  0.00    -0.482 OA
BRANCH  22  23
ATOM     23  C   UNL     1       1.739   5.678   0.632  0.00  0.00    +0.136 A 
ATOM     24  C   UNL     1       2.988   5.093   0.406  0.00  0.00    +0.047 A 
ATOM     25  C   UNL     1       3.133   3.741   0.382  0.00  0.00    +0.012 A 
ATOM     26  C   UNL     1       2.013   2.916   0.586  0.00  0.00    -0.017 A 
ATOM     27  C   UNL     1       2.127   1.515   0.566  0.00  0.00    +0.008 A 
ATOM     28  C   UNL     1       1.022   0.747   0.766  0.00  0.00    +0.001 A 
ATOM     29  C   UNL     1      -0.226   1.327   0.986  0.00  0.00    +0.001 A 
ATOM     30  C   UNL     1      -0.374   2.680   1.017  0.00  0.00    +0.010 A 
ATOM     31  C   UNL     1       0.745   3.506   0.814  0.00  0.00    -0.000 A 
ATOM     32  C   UNL     1       0.629   4.907   0.834  0.00  0.00    +0.067 A 
ATOM     33 BR   UNL     1      -1.052   5.718   1.136  0.00  0.00    -0.046 Br
ENDBRANCH  22  23
ENDBRANCH  21  22
ENDBRANCH   2  21
TORSDOF 8
