REMARK  Name = ZINC36205440
REMARK  14 active torsions:
REMARK  status: ('A' for Active; 'I' for Inactive)
REMARK    1  A    between atoms: C_1  and  C_2
REMARK    2  A    between atoms: C_2  and  C_3
REMARK    3  A    between atoms: C_2  and  C_4
REMARK    4  A    between atoms: C_2  and  O_5
REMARK    5  A    between atoms: O_5  and  C_6
REMARK    6  A    between atoms: C_6  and  C_7
REMARK    7  A    between atoms: C_7  and  C_9
REMARK    8  A    between atoms: C_7  and  O_36
REMARK    9  A    between atoms: C_9  and  N_10
REMARK   10  A    between atoms: N_10  and  C_11
REMARK   11  A    between atoms: N_10  and  C_17
REMARK   12  A    between atoms: C_11  and  C_12
REMARK   13  A    between atoms: C_17  and  C_18
REMARK   14  A    between atoms: C_24  and  C_29
REMARK                            x       y       z     vdW  Elec       q    Type
REMARK                         _______ _______ _______ _____ _____    ______ ____
ROOT
ATOM      1  C   UNL     1       5.722  -0.380  -4.052  0.00  0.00    -0.003 C 
ENDROOT
BRANCH   1   2
ATOM      2  C   UNL     1       6.514  -1.304  -3.163  0.00  0.00    +0.094 A 
ATOM      3  N   UNL     1       7.869  -1.216  -3.146  0.00  0.00    -0.312 N 
ATOM      4  H   UNL     1       8.309  -0.558  -3.707  0.00  0.00    +0.170 HD
ATOM      5  C   UNL     1       8.612  -2.021  -2.366  0.00  0.00    +0.260 A 
ATOM      6  O   UNL     1       9.828  -1.929  -2.362  0.00  0.00    -0.267 OA
ATOM      7  C   UNL     1       7.954  -2.988  -1.541  0.00  0.00    +0.080 A 
ATOM      8  C   UNL     1       8.531  -3.962  -0.621  0.00  0.00    +0.005 A 
ATOM      9  C   UNL     1       7.699  -4.785   0.063  0.00  0.00    +0.056 A 
ATOM     10  S   UNL     1       6.080  -4.293  -0.497  0.00  0.00    -0.076 S 
ATOM     11  C   UNL     1       6.553  -3.006  -1.625  0.00  0.00    +0.116 A 
ATOM     12  N   UNL     1       5.885  -2.173  -2.418  0.00  0.00    -0.229 NA
BRANCH   8  13
ATOM     13  C   UNL     1       9.999  -4.049  -0.437  0.00  0.00    +0.002 A 
ATOM     14  C   UNL     1      10.686  -5.197  -0.830  0.00  0.00    +0.010 A 
ATOM     15  C   UNL     1      12.053  -5.273  -0.657  0.00  0.00    +0.001 A 
ATOM     16  C   UNL     1      12.743  -4.213  -0.095  0.00  0.00    +0.001 A 
ATOM     17  C   UNL     1      12.068  -3.072   0.297  0.00  0.00    +0.020 A 
ATOM     18  C   UNL     1      10.700  -2.981   0.123  0.00  0.00    +0.049 A 
ATOM     19 CL   UNL     1       9.855  -1.545   0.609  0.00  0.00    -0.083 Cl
ENDBRANCH   8  13
ENDBRANCH   1   2
BRANCH   1  20
ATOM     20  N   UNL     1       4.288  -0.561  -3.793  0.00  0.00    +0.391 N 
ATOM     21  H   UNL     1       4.052  -1.539  -3.874  0.00  0.00    -0.080 HD
BRANCH  20  22
ATOM     22  C   UNL     1       3.973  -0.092  -2.437  0.00  0.00    -0.044 C 
BRANCH  22  23
ATOM     23  C   UNL     1       2.506  -0.394  -2.120  0.00  0.00    +0.124 C 
BRANCH  23  24
ATOM     24  O   UNL     1       2.308  -1.809  -2.087  0.00  0.00    -0.391 OA
ATOM     25  H   UNL     1       2.843  -2.266  -1.423  0.00  0.00    +0.210 HD
ENDBRANCH  23  24
BRANCH  23  26
ATOM     26  C   UNL     1       2.145   0.204  -0.759  0.00  0.00    +0.189 C 
BRANCH  26  27
ATOM     27  O   UNL     1       0.748   0.024  -0.516  0.00  0.00    -0.372 OA
BRANCH  27  29
ATOM     28  C   UNL     1       0.580   2.054   0.784  0.00  0.00    +0.041 C 
ATOM     29  C   UNL     1       0.304   0.550   0.736  0.00  0.00    +0.061 C 
ATOM     30  C   UNL     1       1.054  -0.143   1.875  0.00  0.00    +0.041 C 
ATOM     31  C   UNL     1      -1.198   0.302   0.889  0.00  0.00    +0.041 C 
ENDBRANCH  27  29
ENDBRANCH  26  27
ENDBRANCH  23  26
ENDBRANCH  22  23
ENDBRANCH  20  22
BRANCH  20  32
ATOM     32  C   UNL     1       3.512   0.213  -4.771  0.00  0.00    -0.002 C 
BRANCH  32  33
ATOM     33  C   UNL     1       3.736  -0.352  -6.150  0.00  0.00    +0.089 A 
ATOM     34  C   UNL     1       3.074  -1.391  -6.691  0.00  0.00    +0.042 A 
ATOM     35  C   UNL     1       3.600  -1.579  -7.990  0.00  0.00    +0.041 A 
ATOM     36  C   UNL     1       4.552  -0.644  -8.165  0.00  0.00    +0.195 A 
ATOM     37  O   UNL     1       4.625   0.100  -7.049  0.00  0.00    -0.470 OA
ENDBRANCH  32  33
ENDBRANCH  20  32
ENDBRANCH   1  20
TORSDOF 11
