REMARK  Name = ZINC12752843
REMARK  9 active torsions:
REMARK  status: ('A' for Active; 'I' for Inactive)
REMARK    1  A    between atoms: C_1  and  C_2
REMARK    2  A    between atoms: C_5  and  C_9
REMARK    3  A    between atoms: C_7  and  C_8
REMARK    4  A    between atoms: C_9  and  C_11
REMARK    5  A    between atoms: C_9  and  N_12
REMARK    6  A    between atoms: C_13  and  C_15
REMARK    7  A    between atoms: C_15  and  N_64
REMARK    8  A    between atoms: C_18  and  C_21
REMARK    9  A    between atoms: C_21  and  C_23
REMARK                            x       y       z     vdW  Elec       q    Type
REMARK                         _______ _______ _______ _____ _____    ______ ____
ROOT
ATOM      1  C   UNL     1      -7.325   0.105  -0.541  0.00  0.00    -0.077 C 
ATOM      2  C   UNL     1      -5.983  -0.620  -0.671  0.00  0.00    -0.007 C 
ATOM      3  C   UNL     1      -4.930   0.112   0.165  0.00  0.00    +0.057 C 
ATOM      4  C   UNL     1      -5.398   0.177   1.621  0.00  0.00    -0.007 C 
ATOM      5  C   UNL     1      -6.757   0.878   1.684  0.00  0.00    -0.077 C 
ATOM      6  N   UNL     1      -7.732   0.110   0.880  0.00  0.00    +0.385 N 
ATOM      7  H   UNL     1      -7.758  -0.857   1.222  0.00  0.00    -0.081 HD
ENDROOT
BRANCH   3   8
ATOM      8  C   UNL     1      -3.621  -0.631   0.089  0.00  0.00    +0.166 C 
ATOM      9  O   UNL     1      -3.611  -1.819  -0.156  0.00  0.00    -0.292 OA
BRANCH   8  10
ATOM     10  C   UNL     1      -2.357   0.083   0.313  0.00  0.00    +0.021 A 
ATOM     11  C   UNL     1      -2.365   1.454   0.596  0.00  0.00    +0.015 A 
ATOM     12  C   UNL     1      -1.179   2.120   0.799  0.00  0.00    +0.050 A 
ATOM     13  C   UNL     1       0.031   1.436   0.733  0.00  0.00    +0.162 A 
ATOM     14  C   UNL     1       0.047   0.071   0.453  0.00  0.00    +0.163 A 
ATOM     15  C   UNL     1      -1.140  -0.605   0.243  0.00  0.00    +0.060 A 
ATOM     16  O   UNL     1       1.222  -0.612   0.385  0.00  0.00    -0.485 OA
ATOM     17  C   UNL     1       2.412   0.170   0.232  0.00  0.00    +0.270 C 
ATOM     18  C   UNL     1       2.353   1.335   1.229  0.00  0.00    +0.270 C 
ATOM     19  O   UNL     1       1.190   2.116   0.937  0.00  0.00    -0.485 OA
ENDBRANCH   8  10
ENDBRANCH   3   8
BRANCH   6  20
ATOM     20  C   UNL     1      -9.078   0.704   1.017  0.00  0.00    +0.019 C 
BRANCH  20  22
ATOM     21  N   UNL     1     -11.375   0.150   0.286  0.00  0.00    -0.310 N 
ATOM     22  C   UNL     1     -10.084  -0.223   0.384  0.00  0.00    +0.197 C 
ATOM     23  O   UNL     1      -9.731  -1.304  -0.036  0.00  0.00    -0.278 OA
ATOM     24  H   UNL     1     -11.657   1.015   0.622  0.00  0.00    +0.149 HD
BRANCH  21  25
ATOM     25  C   UNL     1     -12.353  -0.751  -0.329  0.00  0.00    +0.100 C 
ATOM     26  C   UNL     1     -12.335  -0.564  -1.847  0.00  0.00    +0.033 C 
BRANCH  25  31
ATOM     27  C   UNL     1     -17.627   0.454   1.700  0.00  0.00    +0.044 C 
ATOM     28  C   UNL     1     -16.251   0.140   1.171  0.00  0.00    -0.048 A 
ATOM     29  C   UNL     1     -15.372   1.166   0.880  0.00  0.00    +0.004 A 
ATOM     30  C   UNL     1     -14.109   0.877   0.398  0.00  0.00    +0.006 A 
ATOM     31  C   UNL     1     -13.728  -0.437   0.200  0.00  0.00    -0.027 A 
ATOM     32  C   UNL     1     -14.607  -1.463   0.493  0.00  0.00    +0.009 A 
ATOM     33  C   UNL     1     -15.869  -1.174   0.978  0.00  0.00    -0.047 A 
ATOM     34  C   UNL     1     -16.828  -2.293   1.296  0.00  0.00    +0.044 C 
ENDBRANCH  25  31
ENDBRANCH  21  25
ENDBRANCH  20  22
ENDBRANCH   6  20
TORSDOF 6
