REMARK  Name = ZINC67390322
REMARK  7 active torsions:
REMARK  status: ('A' for Active; 'I' for Inactive)
REMARK    1  A    between atoms: C_9  and  C_11
REMARK    2  A    between atoms: C_11  and  C_12
REMARK    3  A    between atoms: C_12  and  N_13
REMARK    4  A    between atoms: N_16  and  C_17
REMARK    5  A    between atoms: C_17  and  C_18
REMARK    6  A    between atoms: C_18  and  C_19
REMARK    7  A    between atoms: C_19  and  C_20
REMARK                            x       y       z     vdW  Elec       q    Type
REMARK                         _______ _______ _______ _____ _____    ______ ____
ROOT
ATOM      1  N   UNL     1       5.512  -4.526  -1.257  0.00  0.00    -0.299 N 
ATOM      2  C   UNL     1       6.431  -4.723  -2.224  0.00  0.00    +0.300 C 
ATOM      3  O   UNL     1       6.600  -3.881  -3.084  0.00  0.00    -0.253 OA
ATOM      4  N   UNL     1       7.162  -5.855  -2.237  0.00  0.00    -0.299 N 
ATOM      5  H   UNL     1       5.378  -5.198  -0.571  0.00  0.00    +0.150 HD
ATOM      6  H   UNL     1       7.028  -6.527  -1.550  0.00  0.00    +0.150 HD
ENDROOT
BRANCH   1   7
ATOM      7  C   UNL     1       4.717  -3.295  -1.243  0.00  0.00    +0.113 C 
BRANCH   7   8
ATOM      8  C   UNL     1       3.757  -3.322  -0.052  0.00  0.00    +0.093 C 
BRANCH   8  17
ATOM      9  C   UNL     1      -0.017   1.374   0.010  0.00  0.00    +0.002 A 
ATOM     10  C   UNL     1       1.170   2.094   0.002  0.00  0.00    +0.002 A 
ATOM     11  C   UNL     1       2.375   1.450  -0.013  0.00  0.00    +0.030 A 
ATOM     12  C   UNL     1       2.418   0.054  -0.021  0.00  0.00    +0.089 A 
ATOM     13  C   UNL     1       1.217  -0.675  -0.013  0.00  0.00    +0.066 A 
ATOM     14  C   UNL     1       0.002  -0.004   0.002  0.00  0.00    +0.028 A 
ATOM     15  N   UNL     1       1.580  -2.007  -0.024  0.00  0.00    -0.342 N 
ATOM     16  H   UNL     1       0.977  -2.767  -0.022  0.00  0.00    +0.167 HD
ATOM     17  C   UNL     1       2.939  -2.056  -0.038  0.00  0.00    +0.110 A 
ATOM     18  N   UNL     1       3.430  -0.852  -0.036  0.00  0.00    -0.232 NA
ENDBRANCH   8  17
ENDBRANCH   7   8
ENDBRANCH   1   7
BRANCH   4  19
ATOM     19  C   UNL     1       8.161  -6.070  -3.287  0.00  0.00    +0.106 C 
BRANCH  19  20
ATOM     20  C   UNL     1       8.845  -7.421  -3.072  0.00  0.00    +0.026 C 
BRANCH  20  21
ATOM     21  C   UNL     1       9.888  -7.646  -4.169  0.00  0.00    +0.078 C 
BRANCH  21  22
ATOM     22  C   UNL     1      10.562  -8.977  -3.956  0.00  0.00    +0.134 A 
ATOM     23  N   UNL     1      11.635  -9.199  -3.244  0.00  0.00    -0.134 NA
ATOM     24  N   UNL     1      11.925 -10.453  -3.276  0.00  0.00    -0.134 NA
ATOM     25  C   UNL     1      11.050 -11.084  -4.006  0.00  0.00    +0.133 A 
ATOM     26  N   UNL     1      10.166 -10.166  -4.462  0.00  0.00    -0.315 N 
ATOM     27  C   UNL     1       9.024 -10.418  -5.341  0.00  0.00    +0.125 C 
ATOM     28  C   UNL     1       8.529 -11.852  -5.133  0.00  0.00    +0.022 C 
ATOM     29  C   UNL     1       9.271 -12.796  -6.079  0.00  0.00    +0.002 C 
ATOM     30  C   UNL     1      10.768 -12.776  -5.788  0.00  0.00    +0.008 C 
ATOM     31  C   UNL     1      11.001 -12.562  -4.294  0.00  0.00    +0.076 C 
ENDBRANCH  21  22
ENDBRANCH  20  21
ENDBRANCH  19  20
ENDBRANCH   4  19
TORSDOF 7
