REMARK  Name = ZINC46835352
REMARK  8 active torsions:
REMARK  status: ('A' for Active; 'I' for Inactive)
REMARK    1  A    between atoms: C_1  and  C_2
REMARK    2  A    between atoms: C_4  and  C_7
REMARK    3  A    between atoms: C_7  and  S_8
REMARK    4  A    between atoms: S_8  and  C_9
REMARK    5  A    between atoms: C_11  and  C_25
REMARK    6  A    between atoms: C_12  and  C_24
REMARK    7  A    between atoms: C_16  and  C_18
REMARK    8  A    between atoms: C_18  and  N_19
REMARK                            x       y       z     vdW  Elec       q    Type
REMARK                         _______ _______ _______ _____ _____    ______ ____
ROOT
ATOM      1  C   UNL     1      -2.823  -5.322  -1.557  0.00  0.00    +0.109 A 
ATOM      2  C   UNL     1      -3.333  -5.980  -2.710  0.00  0.00    +0.043 A 
ATOM      3  C   UNL     1      -3.150  -5.666  -4.116  0.00  0.00    -0.029 A 
ATOM      4  C   UNL     1      -3.736  -6.440  -5.042  0.00  0.00    -0.008 A 
ATOM      5  S   UNL     1      -4.591  -7.670  -4.076  0.00  0.00    -0.074 S 
ATOM      6  C   UNL     1      -4.138  -7.111  -2.455  0.00  0.00    +0.113 A 
ATOM      7  N   UNL     1      -4.389  -7.513  -1.224  0.00  0.00    -0.227 NA
ATOM      8  C   UNL     1      -3.888  -6.860  -0.193  0.00  0.00    +0.115 A 
ATOM      9  N   UNL     1      -3.120  -5.798  -0.358  0.00  0.00    -0.227 NA
ATOM     10  C   UNL     1      -3.684  -6.301  -6.542  0.00  0.00    +0.052 C 
ATOM     11  C   UNL     1      -2.313  -4.483  -4.530  0.00  0.00    +0.045 C 
ENDROOT
BRANCH   1  12
ATOM     12  S   UNL     1      -1.802  -3.896  -1.722  0.00  0.00    -0.099 S 
BRANCH  12  13
ATOM     13  C   UNL     1      -1.407  -3.437  -0.011  0.00  0.00    +0.134 C 
BRANCH  13  17
ATOM     14  C   UNL     1       0.106   1.427   0.045  0.00  0.00    +0.089 C 
ATOM     15  C   UNL     1       0.117  -0.080   0.017  0.00  0.00    +0.134 A 
ATOM     16  C   UNL     1      -0.967  -0.879   0.027  0.00  0.00    +0.071 A 
ATOM     17  C   UNL     1      -0.527  -2.215  -0.009  0.00  0.00    +0.094 A 
ATOM     18  N   UNL     1       0.776  -2.210  -0.040  0.00  0.00    -0.082 NA
ATOM     19  O   UNL     1       1.207  -0.861  -0.029  0.00  0.00    -0.360 OA
ENDBRANCH  13  17
ENDBRANCH  12  13
ENDBRANCH   1  12
BRANCH   8  20
ATOM     20  C   UNL     1      -4.191  -7.342   1.202  0.00  0.00    -0.001 C 
BRANCH  20  21
ATOM     21  N   UNL     1      -3.166  -8.306   1.621  0.00  0.00    +0.384 N 
ATOM     22  C   UNL     1      -1.862  -7.620   1.808  0.00  0.00    -0.078 C 
ATOM     23  C   UNL     1      -1.089  -8.578   2.748  0.00  0.00    -0.020 C 
ATOM     24  C   UNL     1      -2.192  -9.092   3.701  0.00  0.00    -0.020 C 
ATOM     25  C   UNL     1      -3.513  -8.879   2.940  0.00  0.00    -0.078 C 
ATOM     26  H   UNL     1      -3.078  -9.041   0.935  0.00  0.00    -0.081 HD
ENDBRANCH  20  21
ENDBRANCH   8  20
TORSDOF 5
