REMARK  Name = ZINC36600878
REMARK  11 active torsions:
REMARK  status: ('A' for Active; 'I' for Inactive)
REMARK    1  A    between atoms: C_1  and  C_2
REMARK    2  A    between atoms: C_5  and  C_7
REMARK    3  A    between atoms: C_7  and  N_8
REMARK    4  A    between atoms: N_8  and  C_9
REMARK    5  A    between atoms: C_9  and  C_11
REMARK    6  A    between atoms: C_9  and  C_18
REMARK    7  A    between atoms: C_14  and  O_17
REMARK    8  A    between atoms: N_20  and  C_21
REMARK    9  A    between atoms: C_27  and  C_29
REMARK   10  A    between atoms: C_29  and  N_30
REMARK   11  A    between atoms: C_31  and  C_33
REMARK                            x       y       z     vdW  Elec       q    Type
REMARK                         _______ _______ _______ _____ _____    ______ ____
ROOT
ATOM      1  N   UNL     1       2.290  -4.105  -2.360  0.00  0.00    -0.277 N 
ATOM      2  C   UNL     1       1.031  -3.981  -2.824  0.00  0.00    +0.234 C 
ATOM      3  O   UNL     1       0.589  -2.883  -3.092  0.00  0.00    -0.274 OA
ENDROOT
BRANCH   1   4
ATOM      4  C   UNL     1       2.824  -5.430  -2.036  0.00  0.00    +0.183 C 
BRANCH   4   9
ATOM      5  C   UNL     1       2.298  -6.008   2.947  0.00  0.00    +0.086 C 
ATOM      6  C   UNL     1       2.055  -6.128   1.465  0.00  0.00    +0.102 A 
ATOM      7  C   UNL     1       1.066  -6.831   0.884  0.00  0.00    +0.045 A 
ATOM      8  C   UNL     1       1.213  -6.669  -0.512  0.00  0.00    +0.046 A 
ATOM      9  C   UNL     1       2.284  -5.877  -0.702  0.00  0.00    +0.122 A 
ATOM     10  O   UNL     1       2.786  -5.548   0.499  0.00  0.00    -0.463 OA
ENDBRANCH   4   9
ENDBRANCH   1   4
BRANCH   1  11
ATOM     11  C   UNL     1       3.125  -2.914  -2.179  0.00  0.00    +0.193 C 
BRANCH  11  12
ATOM     12  C   UNL     1       2.333  -1.849  -1.465  0.00  0.00    -0.018 A 
ATOM     13  C   UNL     1       1.620  -2.168  -0.324  0.00  0.00    +0.009 A 
ATOM     14  C   UNL     1       0.893  -1.193   0.332  0.00  0.00    +0.046 A 
ATOM     15  C   UNL     1       0.879   0.106  -0.155  0.00  0.00    +0.117 A 
ATOM     16  C   UNL     1       1.596   0.423  -1.300  0.00  0.00    +0.046 A 
ATOM     17  C   UNL     1       2.325  -0.554  -1.949  0.00  0.00    +0.009 A 
BRANCH  15  18
ATOM     18  O   UNL     1       0.164   1.066   0.488  0.00  0.00    -0.507 OA
ATOM     19  H   UNL     1       0.663   1.537   1.170  0.00  0.00    +0.292 HD
ENDBRANCH  15  18
ENDBRANCH  11  12
BRANCH  11  20
ATOM     20  C   UNL     1       4.338  -3.272  -1.360  0.00  0.00    +0.238 C 
ATOM     21  O   UNL     1       4.224  -3.986  -0.386  0.00  0.00    -0.273 OA
ATOM     22  N   UNL     1       5.551  -2.798  -1.710  0.00  0.00    -0.311 N 
ATOM     23  H   UNL     1       5.642  -2.227  -2.489  0.00  0.00    +0.149 HD
BRANCH  22  24
ATOM     24  C   UNL     1       6.731  -3.145  -0.914  0.00  0.00    +0.073 C 
ATOM     25  C   UNL     1       6.854  -2.177   0.264  0.00  0.00    +0.022 C 
ATOM     26  C   UNL     1       8.086  -2.539   1.095  0.00  0.00    +0.002 C 
ATOM     27  C   UNL     1       9.338  -2.442   0.221  0.00  0.00    +0.000 C 
ATOM     28  C   UNL     1       9.215  -3.410  -0.957  0.00  0.00    +0.002 C 
ATOM     29  C   UNL     1       7.982  -3.048  -1.788  0.00  0.00    +0.022 C 
ENDBRANCH  22  24
ENDBRANCH  11  20
ENDBRANCH   1  11
BRANCH   2  30
ATOM     30  C   UNL     1       0.172  -5.205  -3.010  0.00  0.00    +0.200 C 
BRANCH  30  31
ATOM     31  N   UNL     1      -1.141  -4.807  -3.522  0.00  0.00    -0.303 N 
ATOM     32  C   UNL     1      -2.081  -5.742  -3.766  0.00  0.00    +0.244 C 
ATOM     33  O   UNL     1      -1.839  -6.915  -3.562  0.00  0.00    -0.270 OA
ATOM     34  H   UNL     1      -1.335  -3.870  -3.685  0.00  0.00    +0.150 HD
BRANCH  32  35
ATOM     35  C   UNL     1      -3.407  -5.340  -4.282  0.00  0.00    +0.037 A 
ATOM     36  C   UNL     1      -3.687  -3.994  -4.523  0.00  0.00    +0.013 A 
ATOM     37  C   UNL     1      -4.926  -3.626  -5.005  0.00  0.00    +0.001 A 
ATOM     38  C   UNL     1      -5.890  -4.588  -5.249  0.00  0.00    +0.000 A 
ATOM     39  C   UNL     1      -5.620  -5.923  -5.012  0.00  0.00    +0.001 A 
ATOM     40  C   UNL     1      -4.382  -6.306  -4.536  0.00  0.00    +0.013 A 
ENDBRANCH  32  35
ENDBRANCH  30  31
ENDBRANCH   2  30
TORSDOF 10
