REMARK  Name = ZINC11560432
REMARK  7 active torsions:
REMARK  status: ('A' for Active; 'I' for Inactive)
REMARK    1  A    between atoms: C_1  and  C_2
REMARK    2  A    between atoms: C_3  and  C_28
REMARK    3  A    between atoms: C_4  and  C_17
REMARK    4  A    between atoms: N_9  and  C_10
REMARK    5  A    between atoms: N_20  and  C_22
REMARK    6  A    between atoms: C_28  and  O_30
REMARK    7  A    between atoms: O_30  and  C_31
REMARK                            x       y       z     vdW  Elec       q    Type
REMARK                         _______ _______ _______ _____ _____    ______ ____
ROOT
ATOM      1  C   UNL     1      -2.627   4.210   0.839  0.00  0.00    +0.062 C 
ATOM      2  C   UNL     1      -1.292   3.649   0.422  0.00  0.00    +0.027 C 
ATOM      3  C   UNL     1      -0.204   4.450   0.429  0.00  0.00    +0.080 C 
ATOM      4  C   UNL     1       1.119   3.846   0.002  0.00  0.00    +0.163 C 
ATOM      5  N   UNL     1       1.109   2.426  -0.388  0.00  0.00    -0.313 N 
ATOM      6  C   UNL     1      -0.060   1.756  -0.343  0.00  0.00    +0.142 C 
ATOM      7  S   UNL     1      -0.086   0.105  -0.794  0.00  0.00    -0.018 S 
ATOM      8  N   UNL     1      -1.202   2.341   0.037  0.00  0.00    -0.255 N 
ATOM      9  H   UNL     1       1.924   1.983  -0.671  0.00  0.00    +0.149 HD
ENDROOT
BRANCH   8  10
ATOM     10  C   UNL     1      -2.371   1.568   0.047  0.00  0.00    +0.040 A 
ATOM     11  C   UNL     1      -3.182   1.519  -1.079  0.00  0.00    +0.026 A 
ATOM     12  C   UNL     1      -4.329   0.751  -1.069  0.00  0.00    +0.040 A 
ATOM     13  C   UNL     1      -4.678   0.039   0.066  0.00  0.00    +0.124 A 
ATOM     14  C   UNL     1      -3.874   0.091   1.193  0.00  0.00    +0.040 A 
ATOM     15  C   UNL     1      -2.722   0.853   1.185  0.00  0.00    +0.026 A 
ATOM     16  F   UNL     1      -5.804  -0.708   0.076  0.00  0.00    -0.205 F 
ENDBRANCH   8  10
BRANCH   4  17
ATOM     17  C   UNL     1       1.638   4.644  -1.166  0.00  0.00    +0.108 A 
ATOM     18  C   UNL     1       2.819   5.389  -1.217  0.00  0.00    +0.162 A 
ATOM     19  N   UNL     1       2.864   5.910  -2.423  0.00  0.00    -0.155 NA
ATOM     20  N   UNL     1       1.815   5.542  -3.071  0.00  0.00    -0.150 N 
ATOM     21  N   UNL     1       1.071   4.788  -2.342  0.00  0.00    -0.150 NA
BRANCH  20  22
ATOM     22  C   UNL     1       1.524   5.913  -4.391  0.00  0.00    +0.086 A 
ATOM     23  C   UNL     1       0.364   5.455  -5.002  0.00  0.00    +0.029 A 
ATOM     24  C   UNL     1       0.076   5.827  -6.301  0.00  0.00    +0.002 A 
ATOM     25  C   UNL     1       0.948   6.644  -6.997  0.00  0.00    +0.000 A 
ATOM     26  C   UNL     1       2.107   7.097  -6.393  0.00  0.00    +0.002 A 
ATOM     27  C   UNL     1       2.397   6.734  -5.092  0.00  0.00    +0.029 A 
ENDBRANCH  20  22
ENDBRANCH   4  17
BRANCH   3  28
ATOM     28  C   UNL     1      -0.295   5.805   0.821  0.00  0.00    +0.339 C 
ATOM     29  O   UNL     1      -1.367   6.267   1.168  0.00  0.00    -0.245 OA
BRANCH  28  30
ATOM     30  O   UNL     1       0.805   6.587   0.812  0.00  0.00    -0.465 OA
ATOM     31  C   UNL     1       0.639   7.946   1.221  0.00  0.00    +0.280 C 
ENDBRANCH  28  30
ENDBRANCH   3  28
TORSDOF 5
