REMARK  Name = ZINC59932480
REMARK  7 active torsions:
REMARK  status: ('A' for Active; 'I' for Inactive)
REMARK    1  A    between atoms: C_1  and  C_2
REMARK    2  A    between atoms: N_5  and  C_8
REMARK    3  A    between atoms: C_8  and  C_10
REMARK    4  A    between atoms: C_8  and  C_27
REMARK    5  A    between atoms: C_10  and  N_11
REMARK    6  A    between atoms: N_11  and  S_12
REMARK    7  A    between atoms: S_12  and  C_15
REMARK                            x       y       z     vdW  Elec       q    Type
REMARK                         _______ _______ _______ _____ _____    ______ ____
ROOT
ATOM      1  N   UNL     1       0.238  -5.859   2.589  0.00  0.00    -0.191 NA
ATOM      2  H   UNL     1      -0.279  -6.388   1.961  0.00  0.00    +0.148 HD
ENDROOT
BRANCH   1   3
ATOM      3  S   UNL     1       1.295  -6.601   3.624  0.00  0.00    +0.060 S 
ATOM      4  O   UNL     1       1.200  -7.996   3.371  0.00  0.00    -0.153 OA
ATOM      5  O   UNL     1       2.523  -5.891   3.529  0.00  0.00    -0.153 OA
BRANCH   3   6
ATOM      6  C   UNL     1       0.691  -6.345   5.259  0.00  0.00    +0.127 A 
ATOM      7  C   UNL     1       0.275  -7.424   6.018  0.00  0.00    +0.077 A 
ATOM      8  C   UNL     1      -0.200  -7.223   7.302  0.00  0.00    +0.144 A 
ATOM      9  C   UNL     1      -0.259  -5.933   7.827  0.00  0.00    +0.077 A 
ATOM     10  C   UNL     1       0.159  -4.855   7.063  0.00  0.00    +0.049 A 
ATOM     11  C   UNL     1       0.638  -5.065   5.782  0.00  0.00    +0.069 A 
ATOM     12 CL   UNL     1       1.170  -3.717   4.825  0.00  0.00    -0.081 Cl
ATOM     13  N   UNL     1      -0.743  -5.743   9.129  0.00  0.00    -0.280 N 
ATOM     14  C   UNL     1      -0.843  -6.810   9.951  0.00  0.00    +0.255 C 
ATOM     15  O   UNL     1      -1.288  -6.676  11.072  0.00  0.00    -0.272 OA
ATOM     16  C   UNL     1      -0.399  -8.169   9.472  0.00  0.00    +0.325 C 
ATOM     17  O   UNL     1      -0.612  -8.273   8.061  0.00  0.00    -0.481 OA
ATOM     18  H   UNL     1      -1.003  -4.860   9.434  0.00  0.00    +0.155 HD
ENDBRANCH   3   6
ENDBRANCH   1   3
BRANCH   1  19
ATOM     19  C   UNL     1       0.082  -4.402   2.621  0.00  0.00    +0.095 C 
BRANCH  19  20
ATOM     20  C   UNL     1      -0.631  -3.938   1.349  0.00  0.00    -0.022 C 
BRANCH  20  25
ATOM     21  C   UNL     1      -0.383   1.664   0.307  0.00  0.00    +0.007 C 
ATOM     22  C   UNL     1      -0.231   0.145   0.197  0.00  0.00    -0.018 C 
ATOM     23  C   UNL     1      -1.616  -0.508   0.186  0.00  0.00    -0.015 C 
ATOM     24  C   UNL     1      -1.456  -2.030   0.156  0.00  0.00    -0.078 C 
ATOM     25  N   UNL     1      -0.715  -2.471   1.343  0.00  0.00    +0.385 N 
ATOM     26  C   UNL     1       0.640  -1.905   1.324  0.00  0.00    -0.078 C 
ATOM     27  C   UNL     1       0.560  -0.379   1.399  0.00  0.00    -0.015 C 
ATOM     28  H   UNL     1      -1.196  -2.160   2.174  0.00  0.00    -0.081 HD
ENDBRANCH  20  25
BRANCH  20  29
ATOM     29  C   UNL     1      -2.020  -4.520   1.311  0.00  0.00    -0.060 A 
ATOM     30  C   UNL     1      -3.035  -3.936   2.046  0.00  0.00    +0.002 A 
ATOM     31  C   UNL     1      -4.310  -4.470   2.010  0.00  0.00    +0.000 A 
ATOM     32  C   UNL     1      -4.569  -5.588   1.240  0.00  0.00    +0.000 A 
ATOM     33  C   UNL     1      -3.555  -6.172   0.504  0.00  0.00    +0.000 A 
ATOM     34  C   UNL     1      -2.281  -5.635   0.536  0.00  0.00    +0.002 A 
ENDBRANCH  20  29
ENDBRANCH  19  20
ENDBRANCH   1  19
TORSDOF 6
