REMARK  Name = ZINC36064050
REMARK  10 active torsions:
REMARK  status: ('A' for Active; 'I' for Inactive)
REMARK    1  A    between atoms: C_7  and  C_11
REMARK    2  A    between atoms: C_11  and  C_12
REMARK    3  A    between atoms: C_12  and  N_13
REMARK    4  A    between atoms: N_13  and  C_14
REMARK    5  A    between atoms: N_13  and  C_23
REMARK    6  A    between atoms: C_14  and  C_15
REMARK    7  A    between atoms: C_23  and  C_24
REMARK    8  A    between atoms: C_26  and  C_29
REMARK    9  A    between atoms: N_31  and  C_32
REMARK   10  A    between atoms: C_32  and  C_33
REMARK                            x       y       z     vdW  Elec       q    Type
REMARK                         _______ _______ _______ _____ _____    ______ ____
ROOT
ATOM      1  N   UNL     1      -0.553  -4.409  -1.379  0.00  0.00    -0.289 NA
ENDROOT
BRANCH   1   2
ATOM      2  C   UNL     1       0.394  -3.293  -1.258  0.00  0.00    +0.090 C 
BRANCH   2   3
ATOM      3  C   UNL     1       0.479  -2.853   0.205  0.00  0.00    +0.052 C 
BRANCH   3  10
ATOM      4  C   UNL     1       0.061   1.783  -0.342  0.00  0.00    +0.001 A 
ATOM      5  C   UNL     1       1.251   2.464  -0.120  0.00  0.00    +0.002 A 
ATOM      6  C   UNL     1       2.397   1.781   0.223  0.00  0.00    +0.026 A 
ATOM      7  C   UNL     1       2.365   0.396   0.348  0.00  0.00    +0.047 A 
ATOM      8  C   UNL     1       1.157  -0.289   0.122  0.00  0.00    +0.003 A 
ATOM      9  C   UNL     1       0.007   0.423  -0.225  0.00  0.00    +0.010 A 
ATOM     10  C   UNL     1       1.452  -1.709   0.329  0.00  0.00    -0.021 A 
ATOM     11  C   UNL     1       2.752  -1.797   0.652  0.00  0.00    +0.087 A 
ATOM     12  N   UNL     1       3.314  -0.550   0.668  0.00  0.00    -0.360 N 
ATOM     13  H   UNL     1       4.243  -0.359   0.874  0.00  0.00    +0.165 HD
ENDBRANCH   3  10
ENDBRANCH   2   3
ENDBRANCH   1   2
BRANCH   1  14
ATOM     14  C   UNL     1      -1.921  -3.975  -1.065  0.00  0.00    +0.121 C 
BRANCH  14  15
ATOM     15  C   UNL     1      -2.827  -5.177  -0.996  0.00  0.00    -0.014 A 
ATOM     16  C   UNL     1      -3.721  -5.428  -2.020  0.00  0.00    +0.006 A 
ATOM     17  C   UNL     1      -4.553  -6.531  -1.957  0.00  0.00    +0.002 A 
ATOM     18  C   UNL     1      -4.490  -7.384  -0.871  0.00  0.00    +0.021 A 
ATOM     19  C   UNL     1      -3.596  -7.134   0.154  0.00  0.00    +0.060 A 
ATOM     20  C   UNL     1      -2.759  -6.033   0.089  0.00  0.00    +0.064 A 
ATOM     21 CL   UNL     1      -1.631  -5.722   1.371  0.00  0.00    -0.082 Cl
ATOM     22 CL   UNL     1      -3.518  -8.204   1.519  0.00  0.00    -0.082 Cl
ENDBRANCH  14  15
ENDBRANCH   1  14
BRANCH   1  23
ATOM     23  C   UNL     1      -0.487  -5.013  -2.717  0.00  0.00    +0.181 C 
BRANCH  23  24
ATOM     24  C   UNL     1       0.759  -5.854  -2.828  0.00  0.00    +0.210 A 
ATOM     25  N   UNL     1       0.869  -7.090  -2.443  0.00  0.00    -0.208 NA
ATOM     26  C   UNL     1       2.136  -7.511  -2.703  0.00  0.00    +0.164 A 
ATOM     27  C   UNL     1       2.797  -6.465  -3.270  0.00  0.00    +0.230 A 
ATOM     28  O   UNL     1       1.927  -5.446  -3.344  0.00  0.00    -0.446 OA
BRANCH  26  29
ATOM     29  C   UNL     1       2.689  -8.849  -2.424  0.00  0.00    +0.266 C 
ATOM     30  O   UNL     1       3.868  -9.072  -2.621  0.00  0.00    -0.268 OA
ATOM     31  N   UNL     1       1.888  -9.824  -1.951  0.00  0.00    -0.308 N 
ATOM     32  H   UNL     1       0.936  -9.666  -1.857  0.00  0.00    +0.149 HD
BRANCH  31  33
ATOM     33  C   UNL     1       2.456 -11.122  -1.580  0.00  0.00    +0.136 C 
BRANCH  33  34
ATOM     34  C   UNL     1       1.340 -12.041  -1.077  0.00  0.00    +0.135 C 
ATOM     35  C   UNL     1       1.925 -13.410  -0.646  0.00  0.00    +0.035 C 
ATOM     36  C   UNL     1       0.849 -13.883   0.369  0.00  0.00    +0.031 C 
ATOM     37  C   UNL     1       0.399 -12.555   1.014  0.00  0.00    +0.160 C 
ATOM     38  O   UNL     1       0.742 -11.496   0.109  0.00  0.00    -0.375 OA
ENDBRANCH  33  34
ENDBRANCH  31  33
ENDBRANCH  26  29
ENDBRANCH  23  24
ENDBRANCH   1  23
TORSDOF 10
