REMARK  Name = ZINC02057967
REMARK  6 active torsions:
REMARK  status: ('A' for Active; 'I' for Inactive)
REMARK    1  A    between atoms: C_1  and  C_2
REMARK    2  A    between atoms: C_3  and  C_28
REMARK    3  A    between atoms: C_4  and  C_21
REMARK    4  A    between atoms: C_10  and  C_15
REMARK    5  A    between atoms: C_28  and  O_30
REMARK    6  A    between atoms: O_30  and  C_31
REMARK                            x       y       z     vdW  Elec       q    Type
REMARK                         _______ _______ _______ _____ _____    ______ ____
ROOT
ATOM      1  C   UNL     1       6.290   6.157   3.842  0.00  0.00    +0.061 C 
ATOM      2  C   UNL     1       5.630   6.277   2.493  0.00  0.00    +0.016 C 
ATOM      3  C   UNL     1       6.330   6.747   1.446  0.00  0.00    +0.065 C 
ATOM      4  C   UNL     1       5.704   6.886   0.090  0.00  0.00    +0.094 C 
ATOM      5  C   UNL     1       4.443   6.065  -0.011  0.00  0.00    +0.024 C 
ATOM      6  C   UNL     1       3.815   5.627   1.101  0.00  0.00    +0.016 C 
ATOM      7  N   UNL     1       4.322   5.907   2.342  0.00  0.00    -0.321 N 
ATOM      8  C   UNL     1       2.543   4.821   1.009  0.00  0.00    +0.059 C 
ATOM      9  C   UNL     1       2.552   3.994  -0.279  0.00  0.00    +0.032 C 
ATOM     10  C   UNL     1       2.694   4.948  -1.469  0.00  0.00    +0.088 C 
ATOM     11  C   UNL     1       3.941   5.771  -1.291  0.00  0.00    +0.162 C 
ATOM     12  O   UNL     1       4.524   6.190  -2.271  0.00  0.00    -0.292 OA
ATOM     13  H   UNL     1       3.667   5.831   3.222  0.00  0.00    +0.152 HD
ENDROOT
BRANCH   4  14
ATOM     14  C   UNL     1       5.370   8.335  -0.155  0.00  0.00    -0.017 A 
ATOM     15  C   UNL     1       4.470   8.986   0.667  0.00  0.00    +0.006 A 
ATOM     16  C   UNL     1       4.168  10.317   0.445  0.00  0.00    +0.000 A 
ATOM     17  C   UNL     1       4.758  10.995  -0.606  0.00  0.00    +0.001 A 
ATOM     18  C   UNL     1       5.655  10.343  -1.432  0.00  0.00    +0.020 A 
ATOM     19  C   UNL     1       5.961   9.013  -1.207  0.00  0.00    +0.045 A 
ATOM     20 CL   UNL     1       7.087   8.194  -2.244  0.00  0.00    -0.083 Cl
ENDBRANCH   4  14
BRANCH   9  21
ATOM     21  C   UNL     1       1.260   3.226  -0.397  0.00  0.00    -0.044 A 
ATOM     22  C   UNL     1       1.280   1.845  -0.456  0.00  0.00    +0.004 A 
ATOM     23  C   UNL     1       0.095   1.142  -0.563  0.00  0.00    +0.000 A 
ATOM     24  C   UNL     1      -1.109   1.819  -0.617  0.00  0.00    +0.000 A 
ATOM     25  C   UNL     1      -1.129   3.200  -0.553  0.00  0.00    +0.000 A 
ATOM     26  C   UNL     1       0.056   3.904  -0.445  0.00  0.00    +0.004 A 
ENDBRANCH   9  21
BRANCH   3  27
ATOM     27  C   UNL     1       7.683   7.117   1.627  0.00  0.00    +0.338 C 
ATOM     28  O   UNL     1       8.172   7.110   2.741  0.00  0.00    -0.245 OA
BRANCH  27  29
ATOM     29  O   UNL     1       8.432   7.478   0.563  0.00  0.00    -0.458 OA
BRANCH  29  30
ATOM     30  C   UNL     1       9.790   7.840   0.819  0.00  0.00    +0.177 C 
ATOM     31  C   UNL     1       9.875   9.342   1.095  0.00  0.00    +0.044 C 
ATOM     32  C   UNL     1      11.329   9.730   1.369  0.00  0.00    +0.004 C 
ATOM     33  C   UNL     1      12.187   9.386   0.149  0.00  0.00    +0.000 C 
ATOM     34  C   UNL     1      12.102   7.883  -0.126  0.00  0.00    +0.004 C 
ATOM     35  C   UNL     1      10.648   7.496  -0.400  0.00  0.00    +0.044 C 
ENDBRANCH  29  30
ENDBRANCH  27  29
ENDBRANCH   3  27
TORSDOF 5
