REMARK  Name = ZINC36813021
REMARK  4 active torsions:
REMARK  status: ('A' for Active; 'I' for Inactive)
REMARK    1  A    between atoms: C_3  and  C_8
REMARK    2  A    between atoms: C_8  and  N_9
REMARK    3  A    between atoms: N_9  and  C_10
REMARK    4  A    between atoms: C_19  and  N_20
REMARK                            x       y       z     vdW  Elec       q    Type
REMARK                         _______ _______ _______ _____ _____    ______ ____
ROOT
ATOM      1  C   UNL     1       5.348   3.008   1.593  0.00  0.00    +0.059 A 
ATOM      2  C   UNL     1       5.984   2.883   2.849  0.00  0.00    +0.022 A 
ATOM      3  C   UNL     1       5.421   2.113   3.877  0.00  0.00    +0.027 A 
ATOM      4  C   UNL     1       6.064   2.015   5.075  0.00  0.00    +0.019 A 
ATOM      5  C   UNL     1       7.274   2.671   5.291  0.00  0.00    +0.017 A 
ATOM      6  C   UNL     1       7.847   3.426   4.314  0.00  0.00    +0.027 A 
ATOM      7  C   UNL     1       7.214   3.551   3.065  0.00  0.00    +0.048 A 
ATOM      8  N   UNL     1       7.757   4.286   2.089  0.00  0.00    -0.359 N 
ATOM      9  C   UNL     1       7.180   4.413   0.917  0.00  0.00    +0.107 A 
ATOM     10  C   UNL     1       5.972   3.784   0.623  0.00  0.00    +0.062 A 
ATOM     11 BR   UNL     1       5.303   0.977   6.461  0.00  0.00    -0.050 Br
ATOM     12  H   UNL     1       8.600   4.738   2.252  0.00  0.00    +0.165 HD
ENDROOT
BRANCH  10  13
ATOM     13  N   UNL     1       5.387   3.937  -0.643  0.00  0.00    -0.355 N 
ATOM     14  H   UNL     1       4.500   3.582  -0.813  0.00  0.00    +0.142 HD
ATOM     15  H   UNL     1       5.869   4.396  -1.348  0.00  0.00    +0.142 HD
ENDBRANCH  10  13
BRANCH   1  16
ATOM     16  N   UNL     1       4.138   2.371   1.334  0.00  0.00    -0.338 N 
ATOM     17  H   UNL     1       3.301   2.821   1.529  0.00  0.00    +0.146 HD
BRANCH  16  18
ATOM     18  C   UNL     1       4.129   1.020   0.767  0.00  0.00    +0.137 C 
BRANCH  18  21
ATOM     19  C   UNL     1       1.151  -0.838   2.158  0.00  0.00    +0.003 A 
ATOM     20  C   UNL     1       1.930  -0.012   1.369  0.00  0.00    +0.005 A 
ATOM     21  C   UNL     1       3.281   0.119   1.628  0.00  0.00    -0.028 A 
ATOM     22  C   UNL     1       3.855  -0.575   2.676  0.00  0.00    +0.043 A 
ATOM     23  C   UNL     1       3.076  -1.402   3.467  0.00  0.00    +0.124 A 
ATOM     24  C   UNL     1       1.723  -1.533   3.207  0.00  0.00    +0.038 A 
ATOM     25  F   UNL     1       3.637  -2.081   4.492  0.00  0.00    -0.205 F 
ENDBRANCH  18  21
ENDBRANCH  16  18
ENDBRANCH   1  16
TORSDOF 4
