REMARK  Name = ZINC59782675
REMARK  11 active torsions:
REMARK  status: ('A' for Active; 'I' for Inactive)
REMARK    1  A    between atoms: C_1  and  O_2
REMARK    2  A    between atoms: O_2  and  C_3
REMARK    3  A    between atoms: C_8  and  C_9
REMARK    4  A    between atoms: C_9  and  C_11
REMARK    5  A    between atoms: C_9  and  N_26
REMARK    6  A    between atoms: C_11  and  N_12
REMARK    7  A    between atoms: C_13  and  C_15
REMARK    8  A    between atoms: C_15  and  C_16
REMARK    9  A    between atoms: C_16  and  C_17
REMARK   10  A    between atoms: C_20  and  O_24
REMARK   11  A    between atoms: O_24  and  C_25
REMARK                            x       y       z     vdW  Elec       q    Type
REMARK                         _______ _______ _______ _____ _____    ______ ____
ROOT
ATOM      1  C   UNL     1       0.038  -2.838  -0.041  0.00  0.00    -0.017 C 
ENDROOT
BRANCH   1   2
ATOM      2  N   UNL     1       0.698  -4.146  -0.155  0.00  0.00    +0.385 N 
ATOM      3  C   UNL     1       0.034  -5.106   0.734  0.00  0.00    -0.078 C 
ATOM      4  C   UNL     1       0.665  -6.489   0.559  0.00  0.00    -0.019 C 
ATOM      5  C   UNL     1       2.153  -6.413   0.909  0.00  0.00    -0.004 C 
ATOM      6  C   UNL     1       2.822  -5.355   0.028  0.00  0.00    -0.019 C 
ATOM      7  C   UNL     1       2.111  -4.014   0.222  0.00  0.00    -0.078 C 
ATOM      8  H   UNL     1       0.634  -4.471  -1.107  0.00  0.00    -0.081 HD
ENDBRANCH   1   2
BRANCH   1  14
ATOM      9  C   UNL     1       0.598  -0.513  -0.793  0.00  0.00    +0.122 A 
ATOM     10  C   UNL     1       1.167   0.368  -1.703  0.00  0.00    +0.046 A 
ATOM     11  C   UNL     1       1.779  -0.118  -2.842  0.00  0.00    +0.004 A 
ATOM     12  C   UNL     1       1.825  -1.480  -3.077  0.00  0.00    +0.000 A 
ATOM     13  C   UNL     1       1.259  -2.359  -2.173  0.00  0.00    +0.005 A 
ATOM     14  C   UNL     1       0.650  -1.879  -1.029  0.00  0.00    -0.018 A 
BRANCH   9  16
ATOM     15  C   UNL     1      -0.021   1.380   0.505  0.00  0.00    +0.277 C 
ATOM     16  O   UNL     1      -0.004  -0.038   0.328  0.00  0.00    -0.495 OA
ENDBRANCH   9  16
ENDBRANCH   1  14
BRANCH   1  17
ATOM     17  C   UNL     1      -1.455  -2.993  -0.337  0.00  0.00    +0.093 C 
BRANCH  17  18
ATOM     18  N   UNL     1      -1.629  -3.636  -1.642  0.00  0.00    -0.317 N 
ATOM     19  C   UNL     1      -2.865  -3.788  -2.159  0.00  0.00    +0.213 C 
ATOM     20  O   UNL     1      -3.832  -3.392  -1.543  0.00  0.00    -0.276 OA
ATOM     21  H   UNL     1      -0.856  -3.952  -2.134  0.00  0.00    +0.149 HD
BRANCH  19  22
ATOM     22  C   UNL     1      -3.044  -4.450  -3.500  0.00  0.00    +0.100 C 
BRANCH  22  23
ATOM     23  C   UNL     1      -4.533  -4.496  -3.851  0.00  0.00    +0.044 C 
BRANCH  23  24
ATOM     24  C   UNL     1      -4.712  -5.157  -5.193  0.00  0.00    -0.046 A 
ATOM     25  C   UNL     1      -4.695  -4.395  -6.347  0.00  0.00    +0.007 A 
ATOM     26  C   UNL     1      -4.860  -4.999  -7.578  0.00  0.00    +0.047 A 
ATOM     27  C   UNL     1      -5.042  -6.371  -7.658  0.00  0.00    +0.134 A 
ATOM     28  C   UNL     1      -5.059  -7.135  -6.499  0.00  0.00    +0.060 A 
ATOM     29  C   UNL     1      -4.888  -6.527  -5.269  0.00  0.00    +0.022 A 
ATOM     30 BR   UNL     1      -5.308  -9.007  -6.602  0.00  0.00    -0.047 Br
BRANCH  27  31
ATOM     31  O   UNL     1      -5.205  -6.968  -8.868  0.00  0.00    -0.494 OA
ATOM     32  C   UNL     1      -5.178  -6.119 -10.018  0.00  0.00    +0.277 C 
ENDBRANCH  27  31
ENDBRANCH  23  24
ENDBRANCH  22  23
ENDBRANCH  19  22
ENDBRANCH  17  18
ENDBRANCH   1  17
TORSDOF 9
