REMARK  Name = ZINC63400164
REMARK  6 active torsions:
REMARK  status: ('A' for Active; 'I' for Inactive)
REMARK    1  A    between atoms: C_1  and  C_2
REMARK    2  A    between atoms: C_5  and  N_8
REMARK    3  A    between atoms: C_14  and  C_17
REMARK    4  A    between atoms: N_19  and  C_20
REMARK    5  A    between atoms: C_20  and  C_21
REMARK    6  A    between atoms: C_21  and  C_22
REMARK                            x       y       z     vdW  Elec       q    Type
REMARK                         _______ _______ _______ _____ _____    ______ ____
ROOT
ATOM      1  N   UNL     1      -0.485  -3.898   3.651  0.00  0.00    -0.296 N 
ATOM      2  C   UNL     1      -1.235  -2.779   3.606  0.00  0.00    +0.302 C 
ATOM      3  O   UNL     1      -1.270  -2.112   2.590  0.00  0.00    -0.253 OA
ATOM      4  N   UNL     1      -1.946  -2.400   4.686  0.00  0.00    -0.286 N 
ATOM      5  C   UNL     1      -2.862  -1.253   4.614  0.00  0.00    +0.110 C 
ATOM      6  C   UNL     1      -2.512  -0.273   5.739  0.00  0.00    +0.032 C 
ATOM      7  C   UNL     1      -2.533  -1.011   7.079  0.00  0.00    +0.078 C 
ATOM      8  C   UNL     1      -1.484  -2.126   7.066  0.00  0.00    +0.032 C 
ATOM      9  C   UNL     1      -1.826  -3.130   5.955  0.00  0.00    +0.110 C 
ATOM     10  H   UNL     1      -0.399  -4.391   4.482  0.00  0.00    +0.151 HD
ENDROOT
BRANCH   1  15
ATOM     11  C   UNL     1      -0.468  -8.467   3.669  0.00  0.00    +0.007 C 
ATOM     12  C   UNL     1      -0.006  -7.266   2.842  0.00  0.00    -0.014 C 
ATOM     13  C   UNL     1       0.953  -6.412   3.673  0.00  0.00    +0.005 C 
ATOM     14  C   UNL     1       1.415  -5.211   2.846  0.00  0.00    +0.022 C 
ATOM     15  C   UNL     1       0.201  -4.370   2.446  0.00  0.00    +0.074 C 
ATOM     16  C   UNL     1      -0.759  -5.224   1.614  0.00  0.00    +0.022 C 
ATOM     17  C   UNL     1      -1.220  -6.425   2.442  0.00  0.00    +0.005 C 
ENDBRANCH   1  15
BRANCH   7  18
ATOM     18  C   UNL     1      -2.222  -0.043   8.191  0.00  0.00    +0.216 C 
ATOM     19  O   UNL     1      -2.006   1.123   7.936  0.00  0.00    -0.276 OA
ATOM     20  N   UNL     1      -2.186  -0.472   9.468  0.00  0.00    -0.315 N 
ATOM     21  H   UNL     1      -2.359  -1.404   9.671  0.00  0.00    +0.149 HD
BRANCH  20  22
ATOM     22  C   UNL     1      -1.884   0.470  10.549  0.00  0.00    +0.109 C 
BRANCH  22  23
ATOM     23  C   UNL     1      -1.905  -0.268  11.889  0.00  0.00    +0.061 C 
BRANCH  23  24
ATOM     24  C   UNL     1      -1.594   0.700  13.001  0.00  0.00    -0.009 A 
ATOM     25  C   UNL     1      -2.445   1.458  13.735  0.00  0.00    +0.011 A 
ATOM     26  C   UNL     1      -1.930   2.284  14.716  0.00  0.00    +0.008 A 
ATOM     27  C   UNL     1      -0.590   2.313  14.915  0.00  0.00    +0.045 A 
ATOM     28  S   UNL     1      -0.011   1.142  13.697  0.00  0.00    -0.102 S 
ENDBRANCH  23  24
ENDBRANCH  22  23
ENDBRANCH  20  22
ENDBRANCH   7  18
TORSDOF 5
