REMARK  Name = ZINC39546548
REMARK  6 active torsions:
REMARK  status: ('A' for Active; 'I' for Inactive)
REMARK    1  A    between atoms: C_1  and  C_2
REMARK    2  A    between atoms: C_6  and  C_28
REMARK    3  A    between atoms: C_21  and  O_27
REMARK    4  A    between atoms: C_23  and  C_24
REMARK    5  A    between atoms: C_23  and  C_25
REMARK    6  A    between atoms: C_25  and  O_26
REMARK                            x       y       z     vdW  Elec       q    Type
REMARK                         _______ _______ _______ _____ _____    ______ ____
ROOT
ATOM      1  C   UNL     1      -0.019   1.525   0.010  0.00  0.00    +0.010 C 
ATOM      2  C   UNL     1       0.002  -0.004   0.002  0.00  0.00    +0.018 C 
ATOM      3  C   UNL     1      -1.428  -0.537  -0.018  0.00  0.00    +0.006 C 
ATOM      4  C   UNL     1      -2.160  -0.161   1.270  0.00  0.00    +0.008 C 
ATOM      5  C   UNL     1      -1.429  -0.734   2.488  0.00  0.00    -0.017 C 
ATOM      6  C   UNL     1       0.009  -0.230   2.503  0.00  0.00    +0.028 C 
ATOM      7  C   UNL     1       0.758  -0.545   1.218  0.00  0.00    +0.076 C 
ATOM      8  C   UNL     1       2.164   0.097   1.240  0.00  0.00    +0.048 C 
ATOM      9  C   UNL     1       3.109  -1.109   1.304  0.00  0.00    +0.041 C 
ATOM     10  C   UNL     1       4.451  -0.840   0.624  0.00  0.00    +0.133 C 
ATOM     11  C   UNL     1       5.466  -1.048   1.746  0.00  0.00    +0.308 C 
ATOM     12  O   UNL     1       6.567  -0.556   1.840  0.00  0.00    -0.251 OA
ATOM     13  O   UNL     1       4.876  -1.907   2.618  0.00  0.00    -0.464 OA
ATOM     14  C   UNL     1       3.500  -1.475   2.738  0.00  0.00    +0.242 C 
ATOM     15  C   UNL     1       2.299  -2.215   0.622  0.00  0.00    +0.171 C 
ATOM     16  O   UNL     1       0.947  -1.960   1.055  0.00  0.00    -0.372 OA
ATOM     17  C   UNL     1       0.750  -0.794   3.716  0.00  0.00    +0.009 C 
ATOM     18  C   UNL     1       0.064  -0.307   4.993  0.00  0.00    +0.032 C 
ATOM     19  C   UNL     1      -1.391  -0.750   5.027  0.00  0.00    +0.123 C 
ATOM     20  C   UNL     1      -2.156  -0.341   3.774  0.00  0.00    +0.023 C 
ATOM     21  C   UNL     1      -3.522  -1.053   3.802  0.00  0.00    +0.016 C 
ATOM     22  C   UNL     1      -1.472  -2.266   2.375  0.00  0.00    +0.012 C 
ENDROOT
BRANCH  19  23
ATOM     23  O   UNL     1      -1.478  -2.158   5.248  0.00  0.00    -0.391 OA
ATOM     24  H   UNL     1      -1.079  -2.451   6.079  0.00  0.00    +0.210 HD
ENDBRANCH  19  23
BRANCH  20  25
ATOM     25  C   UNL     1      -2.407   1.170   3.821  0.00  0.00    +0.165 C 
BRANCH  25  26
ATOM     26  O   UNL     1      -3.086   1.503   5.033  0.00  0.00    -0.394 OA
ATOM     27  H   UNL     1      -3.278   2.445   5.130  0.00  0.00    +0.209 HD
ENDBRANCH  25  26
ENDBRANCH  20  25
TORSDOF 3
