REMARK  Name = ZINC01367494
REMARK  8 active torsions:
REMARK  status: ('A' for Active; 'I' for Inactive)
REMARK    1  A    between atoms: C_1  and  C_2
REMARK    2  A    between atoms: N_7  and  S_9
REMARK    3  A    between atoms: S_9  and  C_12
REMARK    4  A    between atoms: C_15  and  S_18
REMARK    5  A    between atoms: S_18  and  N_21
REMARK    6  A    between atoms: N_21  and  C_22
REMARK    7  A    between atoms: C_27  and  C_29
REMARK    8  A    between atoms: C_27  and  C_30
REMARK                            x       y       z     vdW  Elec       q    Type
REMARK                         _______ _______ _______ _____ _____    ______ ____
ROOT
ATOM      1  C   UNL     1       3.127  -1.293  -1.278  0.00  0.00    +0.106 A 
ATOM      2  C   UNL     1       3.005  -1.963  -0.075  0.00  0.00    +0.030 A 
ATOM      3  C   UNL     1       2.708  -3.313  -0.063  0.00  0.00    +0.030 A 
ATOM      4  C   UNL     1       2.544  -3.995  -1.254  0.00  0.00    +0.105 A 
ATOM      5  C   UNL     1       2.671  -3.326  -2.457  0.00  0.00    +0.030 A 
ATOM      6  C   UNL     1       2.963  -1.974  -2.469  0.00  0.00    +0.030 A 
ENDROOT
BRANCH   1   7
ATOM      7  S   UNL     1       3.500   0.430  -1.293  0.00  0.00    +0.061 S 
ATOM      8  O   UNL     1       4.105   0.703  -2.549  0.00  0.00    -0.153 OA
ATOM      9  O   UNL     1       4.143   0.717  -0.059  0.00  0.00    -0.153 OA
BRANCH   7  15
ATOM     10  C   UNL     1      -0.730   1.580   1.266  0.00  0.00    +0.009 C 
ATOM     11  C   UNL     1      -0.013   1.086   0.008  0.00  0.00    +0.002 C 
ATOM     12  C   UNL     1      -0.749   1.593  -1.234  0.00  0.00    +0.006 C 
ATOM     13  C   UNL     1      -0.051   1.072  -2.492  0.00  0.00    +0.017 C 
ATOM     14  C   UNL     1       1.385   1.603  -2.531  0.00  0.00    +0.109 C 
ATOM     15  N   UNL     1       2.057   1.242  -1.275  0.00  0.00    -0.176 NA
ATOM     16  C   UNL     1       1.424   1.617  -0.003  0.00  0.00    +0.112 C 
ENDBRANCH   7  15
ENDBRANCH   1   7
BRANCH   4  17
ATOM     17  S   UNL     1       2.171  -5.717  -1.240  0.00  0.00    +0.059 S 
ATOM     18  O   UNL     1       1.566  -5.991   0.017  0.00  0.00    -0.153 OA
ATOM     19  O   UNL     1       1.527  -6.004  -2.474  0.00  0.00    -0.153 OA
BRANCH  17  20
ATOM     20  N   UNL     1       3.613  -6.530  -1.258  0.00  0.00    -0.187 NA
ATOM     21  H   UNL     1       3.849  -7.082  -2.020  0.00  0.00    +0.148 HD
BRANCH  20  22
ATOM     22  C   UNL     1       4.532  -6.417  -0.122  0.00  0.00    +0.081 C 
ATOM     23  C   UNL     1       4.304  -7.586   0.841  0.00  0.00    +0.048 C 
ATOM     24  C   UNL     1       5.321  -7.503   1.982  0.00  0.00    +0.162 C 
ATOM     25  O   UNL     1       6.644  -7.517   1.442  0.00  0.00    -0.374 OA
ATOM     26  C   UNL     1       6.930  -6.421   0.571  0.00  0.00    +0.065 C 
ATOM     27  C   UNL     1       5.978  -6.460  -0.627  0.00  0.00    +0.055 C 
ATOM     28  C   UNL     1       6.742  -5.105   1.329  0.00  0.00    +0.041 C 
ATOM     29  C   UNL     1       8.375  -6.524   0.079  0.00  0.00    +0.041 C 
ENDBRANCH  20  22
ENDBRANCH  17  20
ENDBRANCH   4  17
TORSDOF 5
