REMARK  Name = ZINC20806784
REMARK  8 active torsions:
REMARK  status: ('A' for Active; 'I' for Inactive)
REMARK    1  A    between atoms: C_9  and  O_33
REMARK    2  A    between atoms: C_10  and  C_11
REMARK    3  A    between atoms: N_12  and  N_13
REMARK    4  A    between atoms: C_17  and  S_20
REMARK    5  A    between atoms: N_18  and  N_19
REMARK    6  A    between atoms: S_20  and  C_21
REMARK    7  A    between atoms: C_21  and  C_22
REMARK    8  A    between atoms: N_24  and  C_25
REMARK                            x       y       z     vdW  Elec       q    Type
REMARK                         _______ _______ _______ _____ _____    ______ ____
ROOT
ATOM      1  N   UNL     1      -2.576   8.058   0.131  0.00  0.00    -0.204 N 
ATOM      2  C   UNL     1      -2.566   9.445   0.128  0.00  0.00    +0.254 A 
ATOM      3  N   UNL     1      -1.500  10.208   0.126  0.00  0.00    -0.109 NA
ATOM      4  N   UNL     1      -1.924  11.543   0.120  0.00  0.00    -0.119 NA
ATOM      5  C   UNL     1      -3.236  11.552   0.127  0.00  0.00    +0.210 A 
ATOM      6  N   UNL     1      -3.667  10.256   0.133  0.00  0.00    -0.211 N 
ATOM      7  H   UNL     1      -3.532   7.514   0.138  0.00  0.00    +0.177 HD
ENDROOT
BRANCH   6   8
ATOM      8  N   UNL     1      -4.969   9.843   0.141  0.00  0.00    -0.294 N 
ATOM      9  H   UNL     1      -5.782  10.585   0.144  0.00  0.00    +0.163 HD
ATOM     10  H   UNL     1      -5.205   8.769   0.144  0.00  0.00    +0.163 HD
ENDBRANCH   6   8
BRANCH   1  12
ATOM     11  C   UNL     1      -1.377   6.049   0.129  0.00  0.00    +0.142 C 
ATOM     12  N   UNL     1      -1.367   7.349   0.126  0.00  0.00    -0.187 NA
BRANCH  11  22
ATOM     13  C   UNL     1      -0.018   1.074   0.131  0.00  0.00    +0.001 A 
ATOM     14  C   UNL     1      -1.239   1.744   0.132  0.00  0.00    +0.001 A 
ATOM     15  C   UNL     1      -1.291   3.106   0.135  0.00  0.00    +0.009 A 
ATOM     16  C   UNL     1      -0.100   3.844   0.126  0.00  0.00    -0.006 A 
ATOM     17  C   UNL     1       1.143   3.166   0.120  0.00  0.00    -0.017 A 
ATOM     18  C   UNL     1       1.158   1.760   0.123  0.00  0.00    +0.008 A 
ATOM     19  C   UNL     1       2.337   3.908   0.110  0.00  0.00    +0.012 A 
ATOM     20  C   UNL     1       2.311   5.268   0.108  0.00  0.00    +0.046 A 
ATOM     21  C   UNL     1       1.113   5.979   0.114  0.00  0.00    +0.126 A 
ATOM     22  C   UNL     1      -0.109   5.305   0.123  0.00  0.00    +0.044 A 
BRANCH  21  23
ATOM     23  O   UNL     1       1.134   7.337   0.111  0.00  0.00    -0.506 OA
ATOM     24  H   UNL     1       0.190   7.902   0.116  0.00  0.00    +0.292 HD
ENDBRANCH  21  23
ENDBRANCH  11  22
ENDBRANCH   1  12
BRANCH   5  25
ATOM     25  S   UNL     1      -4.262  12.985   0.130  0.00  0.00    -0.075 S 
BRANCH  25  26
ATOM     26  C   UNL     1      -3.087  14.367   0.120  0.00  0.00    +0.173 C 
BRANCH  26  27
ATOM     27  C   UNL     1      -3.843  15.670   0.122  0.00  0.00    +0.228 C 
ATOM     28  O   UNL     1      -5.056  15.667   0.129  0.00  0.00    -0.275 OA
ATOM     29  N   UNL     1      -3.172  16.839   0.115  0.00  0.00    -0.284 N 
ATOM     30  H   UNL     1      -2.074  16.843   0.183  0.00  0.00    +0.155 HD
BRANCH  29  31
ATOM     31  C   UNL     1      -3.872  18.047   0.022  0.00  0.00    +0.053 A 
ATOM     32  C   UNL     1      -5.116  18.179   0.625  0.00  0.00    +0.025 A 
ATOM     33  C   UNL     1      -5.805  19.372   0.532  0.00  0.00    +0.003 A 
ATOM     34  C   UNL     1      -5.258  20.437  -0.161  0.00  0.00    +0.021 A 
ATOM     35  C   UNL     1      -4.019  20.310  -0.764  0.00  0.00    +0.061 A 
ATOM     36  C   UNL     1      -3.322  19.119  -0.669  0.00  0.00    +0.080 A 
ATOM     37 CL   UNL     1      -1.764  18.962  -1.420  0.00  0.00    -0.080 Cl
ATOM     38 CL   UNL     1      -3.337  21.648  -1.633  0.00  0.00    -0.082 Cl
ENDBRANCH  29  31
ENDBRANCH  26  27
ENDBRANCH  25  26
ENDBRANCH   5  25
TORSDOF 8
