REMARK  Name = ZINC31053546
REMARK  9 active torsions:
REMARK  status: ('A' for Active; 'I' for Inactive)
REMARK    1  A    between atoms: C_3  and  C_8
REMARK    2  A    between atoms: C_10  and  C_13
REMARK    3  A    between atoms: C_13  and  N_14
REMARK    4  A    between atoms: C_18  and  C_21
REMARK    5  A    between atoms: N_23  and  C_24
REMARK    6  A    between atoms: C_24  and  C_25
REMARK    7  A    between atoms: C_25  and  C_26
REMARK    8  A    between atoms: C_26  and  S_27
REMARK    9  A    between atoms: S_27  and  C_28
REMARK                            x       y       z     vdW  Elec       q    Type
REMARK                         _______ _______ _______ _____ _____    ______ ____
ROOT
ATOM      1  N   UNL     1      -1.631   2.462   1.409  0.00  0.00    +0.386 N 
ATOM      2  C   UNL     1      -0.464   2.833   2.220  0.00  0.00    -0.078 C 
ATOM      3  C   UNL     1      -0.884   2.973   3.685  0.00  0.00    -0.018 C 
ATOM      4  C   UNL     1      -1.970   4.045   3.800  0.00  0.00    +0.009 C 
ATOM      5  C   UNL     1      -3.154   3.659   2.908  0.00  0.00    +0.058 C 
ATOM      6  C   UNL     1      -2.669   3.499   1.465  0.00  0.00    -0.065 C 
ATOM      7  H   UNL     1      -2.055   1.540   1.833  0.00  0.00    -0.081 HD
ENDROOT
BRANCH   5   8
ATOM      8  C   UNL     1      -4.203   4.739   2.970  0.00  0.00    +0.214 C 
ATOM      9  O   UNL     1      -4.531   5.324   1.959  0.00  0.00    -0.276 OA
ATOM     10  N   UNL     1      -4.777   5.055   4.147  0.00  0.00    -0.315 N 
ATOM     11  H   UNL     1      -4.479   4.524   5.064  0.00  0.00    +0.149 HD
BRANCH  10  12
ATOM     12  C   UNL     1      -5.797   6.104   4.207  0.00  0.00    +0.105 C 
BRANCH  12  13
ATOM     13  C   UNL     1      -6.282   6.263   5.650  0.00  0.00    +0.030 C 
BRANCH  13  14
ATOM     14  C   UNL     1      -7.347   7.360   5.712  0.00  0.00    +0.076 C 
BRANCH  14  15
ATOM     15  S   UNL     1      -7.921   7.548   7.422  0.00  0.00    -0.125 S 
BRANCH  15  16
ATOM     16  C   UNL     1      -9.128   8.829   7.328  0.00  0.00    +0.008 A 
ATOM     17  C   UNL     1      -9.413   9.428   6.107  0.00  0.00    +0.016 A 
ATOM     18  C   UNL     1     -10.363  10.428   6.036  0.00  0.00    +0.021 A 
ATOM     19  C   UNL     1     -11.022  10.841   7.180  0.00  0.00    +0.041 A 
ATOM     20  C   UNL     1     -10.736  10.250   8.399  0.00  0.00    +0.021 A 
ATOM     21  C   UNL     1      -9.792   9.246   8.476  0.00  0.00    +0.016 A 
ATOM     22 CL   UNL     1     -12.211  12.102   7.088  0.00  0.00    -0.084 Cl
ENDBRANCH  15  16
ENDBRANCH  14  15
ENDBRANCH  13  14
ENDBRANCH  12  13
ENDBRANCH  10  12
ENDBRANCH   5   8
BRANCH   1  23
ATOM     23  C   UNL     1      -1.240   2.184   0.020  0.00  0.00    +0.022 C 
BRANCH  23  26
ATOM     24  C   UNL     1       1.309  -0.349  -0.012  0.00  0.00    +0.202 A 
ATOM     25  N   UNL     1       0.002  -0.004   0.002  0.00  0.00    -0.193 NA
ATOM     26  C   UNL     1      -0.016   1.306   0.009  0.00  0.00    +0.211 A 
ATOM     27  O   UNL     1       1.256   1.716  -0.001  0.00  0.00    -0.340 OA
ATOM     28  N   UNL     1       2.002   0.760  -0.013  0.00  0.00    -0.056 NA
BRANCH  24  31
ATOM     29  C   UNL     1       3.737  -3.220  -0.051  0.00  0.00    +0.002 A 
ATOM     30  C   UNL     1       3.234  -1.935  -0.040  0.00  0.00    +0.012 A 
ATOM     31  C   UNL     1       1.856  -1.729  -0.025  0.00  0.00    +0.024 A 
ATOM     32  C   UNL     1       0.993  -2.823  -0.018  0.00  0.00    +0.031 A 
ATOM     33  C   UNL     1       1.507  -4.105  -0.034  0.00  0.00    +0.042 A 
ATOM     34  C   UNL     1       2.877  -4.303  -0.049  0.00  0.00    +0.020 A 
ATOM     35 CL   UNL     1       0.434  -5.470  -0.031  0.00  0.00    -0.084 Cl
ENDBRANCH  24  31
ENDBRANCH  23  26
ENDBRANCH   1  23
TORSDOF 9
