REMARK  Name = ZINC10053916
REMARK  6 active torsions:
REMARK  status: ('A' for Active; 'I' for Inactive)
REMARK    1  A    between atoms: C_3  and  C_6
REMARK    2  A    between atoms: C_6  and  C_8
REMARK    3  A    between atoms: C_6  and  N_15
REMARK    4  A    between atoms: C_16  and  C_18
REMARK    5  A    between atoms: C_18  and  N_57
REMARK    6  A    between atoms: C_22  and  C_24
REMARK                            x       y       z     vdW  Elec       q    Type
REMARK                         _______ _______ _______ _____ _____    ______ ____
ROOT
ATOM      1  N   UNL     1      -3.437   2.016  -0.859  0.00  0.00    -0.306 N 
ATOM      2  C   UNL     1      -3.477   1.758  -2.182  0.00  0.00    +0.197 C 
ATOM      3  O   UNL     1      -2.817   0.853  -2.644  0.00  0.00    -0.278 OA
ATOM      4  H   UNL     1      -3.965   2.740  -0.490  0.00  0.00    +0.150 HD
ENDROOT
BRANCH   1   5
ATOM      5  C   UNL     1      -2.594   1.202   0.020  0.00  0.00    +0.140 C 
BRANCH   5   6
ATOM      6  C   UNL     1      -3.146   1.241   1.422  0.00  0.00    -0.022 A 
ATOM      7  C   UNL     1      -3.636   2.426   1.938  0.00  0.00    +0.008 A 
ATOM      8  C   UNL     1      -4.148   2.462   3.221  0.00  0.00    +0.038 A 
ATOM      9  C   UNL     1      -4.157   1.313   3.995  0.00  0.00    +0.123 A 
ATOM     10  C   UNL     1      -3.660   0.129   3.479  0.00  0.00    +0.038 A 
ATOM     11  C   UNL     1      -3.155   0.093   2.193  0.00  0.00    +0.008 A 
ATOM     12  F   UNL     1      -4.651   1.349   5.252  0.00  0.00    -0.205 F 
ENDBRANCH   5   6
BRANCH   5  15
ATOM     13  C   UNL     1       1.169   1.793   0.001  0.00  0.00    +0.008 A 
ATOM     14  C   UNL     1      -0.013   1.076   0.008  0.00  0.00    +0.013 A 
ATOM     15  C   UNL     1      -1.190   1.748   0.017  0.00  0.00    +0.014 A 
ATOM     16  S   UNL     1      -0.644   3.448   0.027  0.00  0.00    -0.099 S 
ATOM     17  C   UNL     1       1.115   3.148   0.008  0.00  0.00    +0.045 A 
ENDBRANCH   5  15
ENDBRANCH   1   5
BRANCH   2  18
ATOM     18  C   UNL     1      -4.344   2.596  -3.086  0.00  0.00    +0.019 C 
BRANCH  18  23
ATOM     19  C   UNL     1      -4.849   0.798  -4.634  0.00  0.00    -0.077 C 
ATOM     20  C   UNL     1      -5.901   0.933  -5.755  0.00  0.00    -0.020 C 
ATOM     21  C   UNL     1      -5.408   2.171  -6.549  0.00  0.00    -0.013 C 
ATOM     22  C   UNL     1      -4.841   3.063  -5.417  0.00  0.00    -0.037 C 
ATOM     23  N   UNL     1      -4.204   2.113  -4.484  0.00  0.00    +0.390 N 
ATOM     24  H   UNL     1      -3.207   2.030  -4.712  0.00  0.00    -0.080 HD
BRANCH  22  25
ATOM     25  C   UNL     1      -3.811   4.016  -5.967  0.00  0.00    -0.057 A 
ATOM     26  C   UNL     1      -2.548   3.556  -6.289  0.00  0.00    +0.006 A 
ATOM     27  C   UNL     1      -1.601   4.426  -6.796  0.00  0.00    +0.049 A 
ATOM     28  C   UNL     1      -1.914   5.766  -6.974  0.00  0.00    +0.162 A 
ATOM     29  C   UNL     1      -3.183   6.229  -6.648  0.00  0.00    +0.162 A 
ATOM     30  C   UNL     1      -4.129   5.350  -6.143  0.00  0.00    +0.051 A 
ATOM     31  O   UNL     1      -3.513   7.538  -6.823  0.00  0.00    -0.485 OA
ATOM     32  C   UNL     1      -2.429   8.460  -6.979  0.00  0.00    +0.270 C 
ATOM     33  C   UNL     1      -1.432   7.865  -7.982  0.00  0.00    +0.270 C 
ATOM     34  O   UNL     1      -0.968   6.613  -7.465  0.00  0.00    -0.485 OA
ENDBRANCH  22  25
ENDBRANCH  18  23
ENDBRANCH   2  18
TORSDOF 6
