REMARK  Name = ZINC64931484
REMARK  9 active torsions:
REMARK  status: ('A' for Active; 'I' for Inactive)
REMARK    1  A    between atoms: C_1  and  C_2
REMARK    2  A    between atoms: C_5  and  C_8
REMARK    3  A    between atoms: C_8  and  C_9
REMARK    4  A    between atoms: C_8  and  N_15
REMARK    5  A    between atoms: N_15  and  C_16
REMARK    6  A    between atoms: C_16  and  C_17
REMARK    7  A    between atoms: C_19  and  C_22
REMARK    8  A    between atoms: C_22  and  C_23
REMARK    9  A    between atoms: C_22  and  C_24
REMARK                            x       y       z     vdW  Elec       q    Type
REMARK                         _______ _______ _______ _____ _____    ______ ____
ROOT
ATOM      1  C   UNL     1       0.059  -4.275  -0.021  0.00  0.00    -0.009 C 
ENDROOT
BRANCH   1   6
ATOM      2  C   UNL     1      -0.018   1.503   0.010  0.00  0.00    +0.044 C 
ATOM      3  C   UNL     1       0.002  -0.004   0.002  0.00  0.00    -0.050 A 
ATOM      4  C   UNL     1       0.006  -0.689  -1.199  0.00  0.00    +0.003 A 
ATOM      5  C   UNL     1       0.025  -2.071  -1.206  0.00  0.00    +0.002 A 
ATOM      6  C   UNL     1       0.040  -2.768  -0.013  0.00  0.00    -0.057 A 
ATOM      7  C   UNL     1       0.037  -2.084   1.188  0.00  0.00    +0.002 A 
ATOM      8  C   UNL     1       0.023  -0.702   1.195  0.00  0.00    +0.003 A 
ENDBRANCH   1   6
BRANCH   1   9
ATOM      9  C   UNL     1      -1.332  -4.797   0.230  0.00  0.00    -0.057 A 
ATOM     10  C   UNL     1      -1.831  -4.840   1.518  0.00  0.00    +0.002 A 
ATOM     11  C   UNL     1      -3.108  -5.318   1.749  0.00  0.00    +0.000 A 
ATOM     12  C   UNL     1      -3.884  -5.754   0.692  0.00  0.00    +0.000 A 
ATOM     13  C   UNL     1      -3.385  -5.710  -0.597  0.00  0.00    +0.000 A 
ATOM     14  C   UNL     1      -2.110  -5.228  -0.828  0.00  0.00    +0.002 A 
ENDBRANCH   1   9
BRANCH   1  15
ATOM     15  N   UNL     1       0.962  -4.759   1.032  0.00  0.00    +0.391 N 
ATOM     16  H   UNL     1       1.874  -4.344   0.910  0.00  0.00    -0.084 HD
ATOM     17  H   UNL     1       0.593  -4.502   1.935  0.00  0.00    -0.084 HD
BRANCH  15  18
ATOM     18  C   UNL     1       1.074  -6.221   0.947  0.00  0.00    -0.000 C 
BRANCH  18  19
ATOM     19  C   UNL     1       2.000  -6.718   2.028  0.00  0.00    +0.155 A 
ATOM     20  N   UNL     1       3.324  -6.865   1.910  0.00  0.00    -0.198 NA
ATOM     21  C   UNL     1       3.825  -7.314   3.027  0.00  0.00    +0.230 A 
ATOM     22  O   UNL     1       2.825  -7.469   3.903  0.00  0.00    -0.338 OA
ATOM     23  N   UNL     1       1.641  -7.068   3.229  0.00  0.00    -0.063 NA
BRANCH  21  24
ATOM     24  C   UNL     1       5.281  -7.607   3.287  0.00  0.00    +0.072 C 
ATOM     25  C   UNL     1       5.777  -6.738   4.445  0.00  0.00    +0.017 C 
ATOM     26  C   UNL     1       5.446  -9.084   3.651  0.00  0.00    +0.017 C 
ENDBRANCH  21  24
ENDBRANCH  18  19
ENDBRANCH  15  18
ENDBRANCH   1  15
TORSDOF 6
