REMARK  Name = ZINC32888267
REMARK  7 active torsions:
REMARK  status: ('A' for Active; 'I' for Inactive)
REMARK    1  A    between atoms: C_1  and  N_2
REMARK    2  A    between atoms: C_4  and  S_10
REMARK    3  A    between atoms: C_6  and  C_7
REMARK    4  A    between atoms: S_10  and  N_13
REMARK    5  A    between atoms: N_16  and  C_19
REMARK    6  A    between atoms: C_19  and  C_20
REMARK    7  A    between atoms: C_25  and  O_26
REMARK                            x       y       z     vdW  Elec       q    Type
REMARK                         _______ _______ _______ _____ _____    ______ ____
ROOT
ATOM      1  N   UNL     1      -6.965   0.375   1.549  0.00  0.00    -0.174 NA
ATOM      2  C   UNL     1      -7.326  -0.917   2.151  0.00  0.00    +0.125 C 
ATOM      3  C   UNL     1      -6.645  -1.015   3.525  0.00  0.00    +0.102 C 
ATOM      4  N   UNL     1      -6.999   0.164   4.327  0.00  0.00    -0.296 NA
ATOM      5  C   UNL     1      -6.495   1.398   3.711  0.00  0.00    +0.102 C 
ATOM      6  C   UNL     1      -7.164   1.595   2.346  0.00  0.00    +0.125 C 
ENDROOT
BRANCH   1   7
ATOM      7  S   UNL     1      -6.357   0.456   0.010  0.00  0.00    +0.062 S 
ATOM      8  O   UNL     1      -6.643   1.762  -0.471  0.00  0.00    -0.153 OA
ATOM      9  O   UNL     1      -6.797  -0.717  -0.662  0.00  0.00    -0.153 OA
BRANCH   7  13
ATOM     10  C   UNL     1      -1.457  -1.454   0.248  0.00  0.00    +0.149 C 
ATOM     11  N   UNL     1      -2.565  -0.495   0.232  0.00  0.00    -0.344 N 
ATOM     12  C   UNL     1      -3.878  -0.806   0.109  0.00  0.00    +0.114 A 
ATOM     13  C   UNL     1      -4.604   0.337   0.136  0.00  0.00    +0.124 A 
ATOM     14  C   UNL     1      -3.715   1.406   0.287  0.00  0.00    +0.061 A 
ATOM     15  C   UNL     1      -2.445   0.872   0.340  0.00  0.00    +0.106 A 
BRANCH  15  16
ATOM     16  C   UNL     1      -1.194   1.624   0.489  0.00  0.00    +0.258 C 
ATOM     17  O   UNL     1      -0.126   1.044   0.437  0.00  0.00    -0.269 OA
ATOM     18  N   UNL     1      -1.228   2.957   0.685  0.00  0.00    -0.324 N 
ATOM     19  H   UNL     1      -0.291   3.520   0.797  0.00  0.00    +0.145 HD
ATOM     20  H   UNL     1      -2.194   3.481   0.732  0.00  0.00    +0.145 HD
ENDBRANCH  15  16
ENDBRANCH   7  13
ENDBRANCH   1   7
BRANCH   4  21
ATOM     21  C   UNL     1      -6.513   0.028   5.707  0.00  0.00    +0.123 C 
BRANCH  21  22
ATOM     22  C   UNL     1      -6.841  -1.351   6.221  0.00  0.00    +0.008 A 
ATOM     23  C   UNL     1      -5.848  -2.303   6.327  0.00  0.00    +0.012 A 
ATOM     24  C   UNL     1      -6.143  -3.570   6.804  0.00  0.00    -0.044 A 
ATOM     25  C   UNL     1      -7.440  -3.886   7.165  0.00  0.00    -0.041 A 
ATOM     26  C   UNL     1      -8.439  -2.935   7.054  0.00  0.00    +0.049 A 
ATOM     27  C   UNL     1      -8.143  -1.666   6.582  0.00  0.00    +0.122 A 
ATOM     28  C   UNL     1      -7.502  -5.322   7.643  0.00  0.00    +0.036 C 
ATOM     29  C   UNL     1      -6.039  -5.709   7.949  0.00  0.00    +0.009 C 
ATOM     30  C   UNL     1      -5.246  -4.771   7.015  0.00  0.00    +0.036 C 
BRANCH  27  31
ATOM     31  O   UNL     1      -9.125  -0.733   6.474  0.00  0.00    -0.506 OA
ATOM     32  H   UNL     1     -10.157  -0.985   6.761  0.00  0.00    +0.292 HD
ENDBRANCH  27  31
ENDBRANCH  21  22
ENDBRANCH   4  21
TORSDOF 6
