REMARK  Name = ZINC35764114
REMARK  3 active torsions:
REMARK  status: ('A' for Active; 'I' for Inactive)
REMARK    1  A    between atoms: C_2  and  N_7
REMARK    2  A    between atoms: C_8  and  C_10
REMARK    3  A    between atoms: C_17  and  C_19
REMARK                            x       y       z     vdW  Elec       q    Type
REMARK                         _______ _______ _______ _____ _____    ______ ____
ROOT
ATOM      1  N   UNL     1       1.701   3.122   0.002  0.00  0.00    -0.283 N 
ATOM      2  C   UNL     1       3.018   3.408  -0.009  0.00  0.00    +0.222 C 
ATOM      3  O   UNL     1       3.834   2.510  -0.021  0.00  0.00    -0.275 OA
ATOM      4  H   UNL     1       1.049   3.840   0.012  0.00  0.00    +0.155 HD
ENDROOT
BRANCH   2   5
ATOM      5  C   UNL     1       3.477   4.843  -0.006  0.00  0.00    +0.096 C 
ATOM      6  C   UNL     1       5.036   4.921  -0.073  0.00  0.00    +0.025 C 
ATOM      7  C   UNL     1       5.262   4.752  -1.620  0.00  0.00    +0.016 C 
ATOM      8  C   UNL     1       4.357   5.987  -1.981  0.00  0.00    +0.027 C 
ATOM      9  C   UNL     1       3.014   5.566  -1.295  0.00  0.00    +0.121 C 
ATOM     10  C   UNL     1       4.950   7.031  -1.027  0.00  0.00    -0.027 C 
ATOM     11  C   UNL     1       5.342   6.415   0.095  0.00  0.00    -0.027 C 
BRANCH   9  12
ATOM     12  C   UNL     1       2.187   6.778  -0.955  0.00  0.00    +0.360 C 
ATOM     13  O   UNL     1       2.186   7.744  -1.700  0.00  0.00    -0.246 OA
ATOM     14  O   UNL     1       1.518   6.794   0.064  0.00  0.00    -0.246 OA
ENDBRANCH   9  12
ENDBRANCH   2   5
BRANCH   1  16
ATOM     15  C   UNL     1      -0.016   1.354   0.009  0.00  0.00    +0.128 A 
ATOM     16  C   UNL     1       1.272   1.781  -0.001  0.00  0.00    +0.071 A 
ATOM     17  C   UNL     1       2.100   0.649  -0.015  0.00  0.00    +0.157 A 
ATOM     18  N   UNL     1       1.341  -0.416  -0.013  0.00  0.00    -0.180 NA
ATOM     19  N   UNL     1       0.002  -0.004   0.002  0.00  0.00    -0.283 N 
ATOM     20  H   UNL     1      -0.774  -0.586   0.006  0.00  0.00    +0.188 HD
ENDBRANCH   1  16
TORSDOF 3
