REMARK  Name = ZINC13063782
REMARK  14 active torsions:
REMARK  status: ('A' for Active; 'I' for Inactive)
REMARK    1  A    between atoms: C_1  and  C_2
REMARK    2  A    between atoms: C_2  and  C_3
REMARK    3  A    between atoms: C_3  and  C_5
REMARK    4  A    between atoms: C_3  and  N_68
REMARK    5  A    between atoms: N_9  and  C_10
REMARK    6  A    between atoms: C_10  and  C_11
REMARK    7  A    between atoms: C_10  and  C_12
REMARK    8  A    between atoms: C_10  and  C_13
REMARK    9  A    between atoms: C_14  and  C_15
REMARK   10  A    between atoms: C_14  and  N_68
REMARK   11  A    between atoms: C_15  and  C_16
REMARK   12  A    between atoms: C_22  and  C_23
REMARK   13  A    between atoms: C_22  and  N_68
REMARK   14  A    between atoms: C_28  and  C_35
REMARK                            x       y       z     vdW  Elec       q    Type
REMARK                         _______ _______ _______ _____ _____    ______ ____
ROOT
ATOM      1  N   UNL     1      -1.885   1.055   1.806  0.00  0.00    +0.389 N 
ATOM      2  H   UNL     1      -1.959   2.074   1.704  0.00  0.00    -0.080 HD
ENDROOT
BRANCH   1   3
ATOM      3  C   UNL     1      -3.196   0.445   1.500  0.00  0.00    +0.003 C 
BRANCH   3   4
ATOM      4  C   UNL     1      -4.278   1.438   1.839  0.00  0.00    +0.139 A 
ATOM      5  N   UNL     1      -4.255   2.318   2.810  0.00  0.00    -0.115 NA
ATOM      6  N   UNL     1      -5.360   2.981   2.772  0.00  0.00    -0.023 NA
ATOM      7  N   UNL     1      -6.089   2.540   1.807  0.00  0.00    -0.043 NA
ATOM      8  N   UNL     1      -5.457   1.589   1.208  0.00  0.00    -0.226 N 
BRANCH   8   9
ATOM      9  C   UNL     1      -5.933   0.817   0.057  0.00  0.00    +0.059 C 
ATOM     10  C   UNL     1      -5.794  -0.677   0.352  0.00  0.00    +0.036 C 
ATOM     11  C   UNL     1      -7.402   1.151  -0.208  0.00  0.00    +0.036 C 
ATOM     12  C   UNL     1      -5.098   1.173  -1.175  0.00  0.00    +0.036 C 
ENDBRANCH   8   9
ENDBRANCH   3   4
BRANCH   3  14
ATOM     13  C   UNL     1      -2.411  -1.901   1.852  0.00  0.00    +0.002 C 
ATOM     14  C   UNL     1      -3.396  -0.829   2.323  0.00  0.00    -0.011 C 
ENDBRANCH   3  14
ENDBRANCH   1   3
BRANCH   1  15
ATOM     15  C   UNL     1      -1.494   0.739   3.196  0.00  0.00    -0.073 C 
BRANCH  15  16
ATOM     16  C   UNL     1      -2.414   1.500   4.152  0.00  0.00    +0.016 C 
BRANCH  16  17
ATOM     17  C   UNL     1      -1.922   1.327   5.566  0.00  0.00    -0.049 A 
ATOM     18  C   UNL     1      -2.305   0.221   6.301  0.00  0.00    +0.003 A 
ATOM     19  C   UNL     1      -1.851   0.060   7.597  0.00  0.00    +0.000 A 
ATOM     20  C   UNL     1      -1.020   1.010   8.161  0.00  0.00    +0.000 A 
ATOM     21  C   UNL     1      -0.641   2.120   7.428  0.00  0.00    +0.000 A 
ATOM     22  C   UNL     1      -1.092   2.278   6.131  0.00  0.00    +0.003 A 
ENDBRANCH  16  17
ENDBRANCH  15  16
ENDBRANCH   1  15
BRANCH   1  23
ATOM     23  C   UNL     1      -0.861   0.552   0.866  0.00  0.00    -0.037 C 
BRANCH  23  24
ATOM     24  C   UNL     1      -1.026   1.262  -0.453  0.00  0.00    +0.001 A 
ATOM     25  C   UNL     1      -0.335   2.403  -0.697  0.00  0.00    +0.017 A 
ATOM     26  C   UNL     1      -0.518   3.068  -1.988  0.00  0.00    -0.001 A 
ATOM     27  C   UNL     1       0.168   4.247  -2.298  0.00  0.00    +0.010 A 
ATOM     28  C   UNL     1      -0.024   4.844  -3.511  0.00  0.00    +0.004 A 
ATOM     29  C   UNL     1      -0.894   4.290  -4.441  0.00  0.00    -0.048 A 
ATOM     30  C   UNL     1      -1.580   3.129  -4.157  0.00  0.00    +0.029 A 
ATOM     31  C   UNL     1      -1.401   2.504  -2.928  0.00  0.00    +0.049 A 
ATOM     32  N   UNL     1      -2.074   1.341  -2.618  0.00  0.00    -0.322 N 
ATOM     33  H   UNL     1      -2.682   0.954  -3.267  0.00  0.00    +0.169 HD
ATOM     34  C   UNL     1      -1.896   0.734  -1.431  0.00  0.00    +0.251 A 
ATOM     35  O   UNL     1      -2.504  -0.295  -1.193  0.00  0.00    -0.268 OA
ATOM     36  C   UNL     1      -1.091   4.966  -5.774  0.00  0.00    +0.044 C 
ENDBRANCH  23  24
ENDBRANCH   1  23
TORSDOF 9
