REMARK  Name = ZINC33137996
REMARK  5 active torsions:
REMARK  status: ('A' for Active; 'I' for Inactive)
REMARK    1  A    between atoms: C_5  and  C_7
REMARK    2  A    between atoms: C_7  and  N_8
REMARK    3  A    between atoms: C_9  and  C_11
REMARK    4  A    between atoms: C_11  and  N_12
REMARK    5  A    between atoms: C_20  and  C_24
REMARK                            x       y       z     vdW  Elec       q    Type
REMARK                         _______ _______ _______ _____ _____    ______ ____
ROOT
ATOM      1  N   UNL     1       0.173  -0.103  -0.133  0.00  0.00    -0.260 N 
ATOM      2  C   UNL     1       1.387  -0.772  -0.258  0.00  0.00    +0.050 A 
ATOM      3  C   UNL     1       1.437  -2.140  -0.007  0.00  0.00    +0.024 A 
ATOM      4  C   UNL     1       2.631  -2.825  -0.118  0.00  0.00    +0.002 A 
ATOM      5  C   UNL     1       3.789  -2.162  -0.478  0.00  0.00    +0.001 A 
ATOM      6  C   UNL     1       3.754  -0.803  -0.733  0.00  0.00    +0.016 A 
ATOM      7  C   UNL     1       2.559  -0.112  -0.627  0.00  0.00    +0.030 A 
ATOM      8  S   UNL     1       2.504   1.621  -0.963  0.00  0.00    -0.101 S 
ATOM      9  C   UNL     1       1.141   2.185   0.102  0.00  0.00    +0.223 C 
ATOM     10  C   UNL     1      -0.000   1.210  -0.027  0.00  0.00    +0.243 C 
ATOM     11  O   UNL     1      -1.132   1.646  -0.041  0.00  0.00    -0.273 OA
ENDROOT
BRANCH   9  12
ATOM     12  C   UNL     1       1.606   2.233   1.535  0.00  0.00    +0.238 C 
ATOM     13  O   UNL     1       1.593   1.226   2.211  0.00  0.00    -0.274 OA
ATOM     14  N   UNL     1       2.035   3.395   2.066  0.00  0.00    -0.300 N 
ATOM     15  C   UNL     1       1.937   4.598   1.270  0.00  0.00    +0.108 C 
ATOM     16  C   UNL     1       3.219   4.778   0.429  0.00  0.00    +0.019 C 
ATOM     17  C   UNL     1       4.349   5.150   1.295  0.00  0.00    +0.002 C 
ATOM     18  C   UNL     1       4.720   4.095   2.332  0.00  0.00    +0.002 C 
ATOM     19  C   UNL     1       3.850   4.265   3.553  0.00  0.00    +0.019 C 
ATOM     20  C   UNL     1       2.592   3.386   3.433  0.00  0.00    +0.108 C 
ENDBRANCH   9  12
BRANCH   1  21
ATOM     21  C   UNL     1      -1.036  -0.930  -0.116  0.00  0.00    +0.209 C 
BRANCH  21  23
ATOM     22  N   UNL     1      -2.369  -2.184   1.548  0.00  0.00    -0.310 N 
ATOM     23  C   UNL     1      -1.302  -1.403   1.290  0.00  0.00    +0.231 C 
ATOM     24  O   UNL     1      -0.555  -1.080   2.189  0.00  0.00    -0.274 OA
ATOM     25  H   UNL     1      -3.046  -2.477   0.732  0.00  0.00    +0.149 HD
BRANCH  22  26
ATOM     26  C   UNL     1      -2.628  -2.643   2.915  0.00  0.00    +0.141 C 
BRANCH  26  31
ATOM     27  C   UNL     1      -4.908  -5.648   3.067  0.00  0.00    +0.000 A 
ATOM     28  C   UNL     1      -6.153  -5.056   2.965  0.00  0.00    +0.001 A 
ATOM     29  C   UNL     1      -6.258  -3.683   2.846  0.00  0.00    +0.020 A 
ATOM     30  C   UNL     1      -5.117  -2.901   2.835  0.00  0.00    +0.046 A 
ATOM     31  C   UNL     1      -3.871  -3.494   2.932  0.00  0.00    -0.012 A 
ATOM     32  C   UNL     1      -3.768  -4.867   3.050  0.00  0.00    +0.006 A 
ATOM     33 CL   UNL     1      -5.248  -1.175   2.694  0.00  0.00    -0.083 Cl
ENDBRANCH  26  31
ENDBRANCH  22  26
ENDBRANCH  21  23
ENDBRANCH   1  21
TORSDOF 5
