REMARK  Name = ZINC31917462
REMARK  11 active torsions:
REMARK  status: ('A' for Active; 'I' for Inactive)
REMARK    1  A    between atoms: C_1  and  C_2
REMARK    2  A    between atoms: N_6  and  C_20
REMARK    3  A    between atoms: C_9  and  C_14
REMARK    4  A    between atoms: C_14  and  C_16
REMARK    5  A    between atoms: C_14  and  N_19
REMARK    6  A    between atoms: C_16  and  C_17
REMARK    7  A    between atoms: C_16  and  C_18
REMARK    8  A    between atoms: C_20  and  C_21
REMARK    9  A    between atoms: C_21  and  N_22
REMARK   10  A    between atoms: N_22  and  C_23
REMARK   11  A    between atoms: N_22  and  C_24
REMARK                            x       y       z     vdW  Elec       q    Type
REMARK                         _______ _______ _______ _____ _____    ______ ____
ROOT
ATOM      1  C   UNL     1      -2.412   4.795   2.253  0.00  0.00    +0.062 C 
ATOM      2  C   UNL     1      -2.435   5.056   0.746  0.00  0.00    +0.256 C 
ATOM      3  C   UNL     1      -1.226   5.870   0.359  0.00  0.00    +0.260 C 
ATOM      4  O   UNL     1      -1.287   7.081   0.342  0.00  0.00    -0.271 OA
ATOM      5  N   UNL     1      -0.074   5.245   0.031  0.00  0.00    -0.267 N 
ATOM      6  C   UNL     1      -0.041   3.843   0.024  0.00  0.00    +0.078 A 
ATOM      7  C   UNL     1       1.166   3.164   0.008  0.00  0.00    +0.029 A 
ATOM      8  C   UNL     1       1.177   1.781   0.000  0.00  0.00    -0.060 A 
ATOM      9  C   UNL     1      -0.013   1.076   0.008  0.00  0.00    +0.005 A 
ATOM     10  C   UNL     1      -1.221   1.748   0.017  0.00  0.00    +0.048 A 
ATOM     11  C   UNL     1      -1.240   3.132   0.031  0.00  0.00    +0.143 A 
ATOM     12  O   UNL     1      -2.419   3.809   0.046  0.00  0.00    -0.478 OA
ENDROOT
BRANCH   8  13
ATOM     13  C   UNL     1       2.489   1.040  -0.016  0.00  0.00    -0.042 C 
BRANCH  13  14
ATOM     14  N   UNL     1       2.385  -0.120  -0.912  0.00  0.00    +0.383 N 
ATOM     15  H   UNL     1       3.343  -0.661  -0.924  0.00  0.00    -0.089 HD
ATOM     16  H   UNL     1       2.145   0.223  -1.929  0.00  0.00    -0.089 HD
ATOM     17  H   UNL     1       1.590  -0.790  -0.553  0.00  0.00    -0.089 HD
ENDBRANCH  13  14
BRANCH  13  18
ATOM     18  C   UNL     1       2.824   0.563   1.399  0.00  0.00    -0.028 C 
ATOM     19  C   UNL     1       4.156  -0.189   1.382  0.00  0.00    +0.006 C 
ATOM     20  C   UNL     1       2.932   1.771   2.332  0.00  0.00    +0.006 C 
ENDBRANCH  13  18
ENDBRANCH   8  13
BRANCH   5  21
ATOM     21  C   UNL     1       1.121   6.019  -0.311  0.00  0.00    +0.095 C 
BRANCH  21  22
ATOM     22  C   UNL     1       1.142   6.286  -1.817  0.00  0.00    -0.060 C 
BRANCH  22  23
ATOM     23  N   UNL     1       2.341   7.063  -2.161  0.00  0.00    +0.377 N 
ATOM     24  C   UNL     1       3.561   6.278  -1.928  0.00  0.00    -0.097 C 
ATOM     25  C   UNL     1       2.279   7.541  -3.548  0.00  0.00    -0.097 C 
ATOM     26  H   UNL     1       2.374   7.942  -1.501  0.00  0.00    -0.083 HD
ENDBRANCH  22  23
ENDBRANCH  21  22
ENDBRANCH   5  21
TORSDOF 6
