REMARK  Name = ZINC08845556
REMARK  14 active torsions:
REMARK  status: ('A' for Active; 'I' for Inactive)
REMARK    1  A    between atoms: C_1  and  C_2
REMARK    2  A    between atoms: C_4  and  C_40
REMARK    3  A    between atoms: C_5  and  O_39
REMARK    4  A    between atoms: C_6  and  C_8
REMARK    5  A    between atoms: N_16  and  C_29
REMARK    6  A    between atoms: C_17  and  C_19
REMARK    7  A    between atoms: C_22  and  O_27
REMARK    8  A    between atoms: C_23  and  O_25
REMARK    9  A    between atoms: O_25  and  C_26
REMARK   10  A    between atoms: O_27  and  C_28
REMARK   11  A    between atoms: C_29  and  C_30
REMARK   12  A    between atoms: C_30  and  C_31
REMARK   13  A    between atoms: C_34  and  O_37
REMARK   14  A    between atoms: O_37  and  C_38
REMARK                            x       y       z     vdW  Elec       q    Type
REMARK                         _______ _______ _______ _____ _____    ______ ____
ROOT
ATOM      1  C   UNL     1       0.052  -2.841   2.463  0.00  0.00    +0.075 A 
ATOM      2  C   UNL     1       1.054  -3.632   2.928  0.00  0.00    +0.035 A 
ATOM      3  C   UNL     1       0.613  -4.128   4.175  0.00  0.00    +0.153 A 
ATOM      4  N   UNL     1      -0.588  -3.625   4.385  0.00  0.00    -0.168 NA
ATOM      5  N   UNL     1      -0.936  -2.868   3.406  0.00  0.00    -0.276 N 
ATOM      6  H   UNL     1      -1.777  -2.389   3.345  0.00  0.00    +0.189 HD
ATOM      7  C   UNL     1       1.674  -4.994   4.719  0.00  0.00    +0.268 C 
ATOM      8  O   UNL     1       1.613  -5.581   5.782  0.00  0.00    -0.268 OA
ATOM      9  N   UNL     1       2.717  -5.045   3.874  0.00  0.00    -0.285 N 
ATOM     10  C   UNL     1       2.424  -4.212   2.702  0.00  0.00    +0.141 C 
ENDROOT
BRANCH   1  16
ATOM     11  C   UNL     1      -0.018   1.503   0.010  0.00  0.00    +0.044 C 
ATOM     12  C   UNL     1       0.002  -0.004   0.002  0.00  0.00    -0.049 A 
ATOM     13  C   UNL     1       0.006  -0.687  -1.202  0.00  0.00    +0.010 A 
ATOM     14  C   UNL     1       0.024  -2.069  -1.221  0.00  0.00    -0.008 A 
ATOM     15  C   UNL     1       0.040  -2.779  -0.031  0.00  0.00    +0.129 A 
ATOM     16  C   UNL     1       0.036  -2.092   1.188  0.00  0.00    +0.042 A 
ATOM     17  C   UNL     1       0.023  -0.698   1.195  0.00  0.00    +0.017 A 
ATOM     18  C   UNL     1       0.028  -2.804  -2.536  0.00  0.00    +0.047 C 
BRANCH  15  19
ATOM     19  O   UNL     1       0.058  -4.137  -0.049  0.00  0.00    -0.506 OA
ATOM     20  H   UNL     1       0.946  -4.519  -0.058  0.00  0.00    +0.292 HD
ENDBRANCH  15  19
ENDBRANCH   1  16
BRANCH  10  21
ATOM     21  C   UNL     1       3.441  -3.107   2.585  0.00  0.00    -0.019 A 
ATOM     22  C   UNL     1       3.937  -2.502   3.725  0.00  0.00    +0.009 A 
ATOM     23  C   UNL     1       4.870  -1.488   3.623  0.00  0.00    +0.050 A 
ATOM     24  C   UNL     1       5.311  -1.075   2.377  0.00  0.00    +0.162 A 
ATOM     25  C   UNL     1       4.813  -1.684   1.229  0.00  0.00    +0.162 A 
ATOM     26  C   UNL     1       3.881  -2.703   1.338  0.00  0.00    +0.055 A 
BRANCH  25  27
ATOM     27  O   UNL     1       5.243  -1.282   0.003  0.00  0.00    -0.491 OA
ATOM     28  C   UNL     1       4.688  -1.952  -1.131  0.00  0.00    +0.277 C 
ENDBRANCH  25  27
BRANCH  24  29
ATOM     29  O   UNL     1       6.229  -0.077   2.275  0.00  0.00    -0.491 OA
ATOM     30  C   UNL     1       6.696   0.502   3.495  0.00  0.00    +0.277 C 
ENDBRANCH  24  29
ENDBRANCH  10  21
BRANCH   9  31
ATOM     31  C   UNL     1       3.950  -5.808   4.088  0.00  0.00    +0.114 C 
BRANCH  31  32
ATOM     32  C   UNL     1       3.788  -7.212   3.502  0.00  0.00    +0.054 C 
BRANCH  32  33
ATOM     33  C   UNL     1       5.056  -7.997   3.722  0.00  0.00    -0.046 A 
ATOM     34  C   UNL     1       6.063  -7.962   2.775  0.00  0.00    +0.007 A 
ATOM     35  C   UNL     1       7.226  -8.681   2.975  0.00  0.00    +0.046 A 
ATOM     36  C   UNL     1       7.382  -9.438   4.126  0.00  0.00    +0.120 A 
ATOM     37  C   UNL     1       6.371  -9.471   5.075  0.00  0.00    +0.046 A 
ATOM     38  C   UNL     1       5.212  -8.746   4.873  0.00  0.00    +0.007 A 
BRANCH  36  39
ATOM     39  O   UNL     1       8.525 -10.147   4.325  0.00  0.00    -0.495 OA
ATOM     40  C   UNL     1       8.617 -10.904   5.533  0.00  0.00    +0.277 C 
ENDBRANCH  36  39
ENDBRANCH  32  33
ENDBRANCH  31  32
ENDBRANCH   9  31
TORSDOF 9
