REMARK  Name = ZINC39344531
REMARK  15 active torsions:
REMARK  status: ('A' for Active; 'I' for Inactive)
REMARK    1  A    between atoms: C_1  and  C_2
REMARK    2  A    between atoms: C_2  and  C_3
REMARK    3  A    between atoms: C_2  and  C_4
REMARK    4  A    between atoms: C_4  and  N_5
REMARK    5  A    between atoms: N_5  and  C_6
REMARK    6  A    between atoms: N_12  and  C_27
REMARK    7  A    between atoms: C_13  and  C_23
REMARK    8  A    between atoms: C_15  and  N_17
REMARK    9  A    between atoms: C_18  and  C_20
REMARK   10  A    between atoms: C_20  and  O_21
REMARK   11  A    between atoms: O_21  and  C_22
REMARK   12  A    between atoms: C_23  and  O_25
REMARK   13  A    between atoms: O_25  and  C_26
REMARK   14  A    between atoms: C_27  and  C_28
REMARK   15  A    between atoms: C_28  and  C_29
REMARK                            x       y       z     vdW  Elec       q    Type
REMARK                         _______ _______ _______ _____ _____    ______ ____
ROOT
ATOM      1  C   UNL     1       2.743  -1.046  -2.352  0.00  0.00    +0.044 A 
ATOM      2  C   UNL     1       4.008  -0.468  -2.256  0.00  0.00    +0.033 A 
ATOM      3  C   UNL     1       4.894  -0.646  -3.301  0.00  0.00    +0.015 A 
ATOM      4  C   UNL     1       4.518  -1.385  -4.413  0.00  0.00    +0.105 A 
ATOM      5  N   UNL     1       3.299  -1.921  -4.464  0.00  0.00    -0.348 N 
ATOM      6  C   UNL     1       2.429  -1.778  -3.486  0.00  0.00    +0.107 A 
ATOM      7  N   UNL     1       5.544  -1.450  -5.354  0.00  0.00    -0.301 N 
ATOM      8  C   UNL     1       6.716  -0.711  -4.877  0.00  0.00    +0.208 C 
ATOM      9  C   UNL     1       6.311  -0.159  -3.500  0.00  0.00    +0.138 C 
ATOM     10  H   UNL     1       3.046  -2.436  -5.246  0.00  0.00    +0.167 HD
ENDROOT
BRANCH   9  11
ATOM     11  N   UNL     1       7.188  -0.695  -2.455  0.00  0.00    -0.304 N 
ATOM     12  C   UNL     1       7.309  -0.047  -1.280  0.00  0.00    +0.239 C 
ATOM     13  O   UNL     1       6.693   0.979  -1.087  0.00  0.00    -0.273 OA
ATOM     14  H   UNL     1       7.681  -1.516  -2.610  0.00  0.00    +0.149 HD
BRANCH  12  15
ATOM     15  C   UNL     1       8.211  -0.598  -0.206  0.00  0.00    +0.255 C 
BRANCH  15  16
ATOM     16  O   UNL     1       8.171   0.260   0.936  0.00  0.00    -0.374 OA
ATOM     17  C   UNL     1       8.996  -0.175   2.019  0.00  0.00    +0.194 C 
ENDBRANCH  15  16
ENDBRANCH  12  15
ENDBRANCH   9  11
BRANCH   1  18
ATOM     18  N   UNL     1       1.809  -0.894  -1.319  0.00  0.00    -0.342 N 
ATOM     19  H   UNL     1       2.039  -0.380  -0.529  0.00  0.00    +0.146 HD
BRANCH  18  20
ATOM     20  C   UNL     1       0.486  -1.513  -1.432  0.00  0.00    +0.104 C 
BRANCH  20  22
ATOM     21  C   UNL     1      -0.595   0.309  -0.107  0.00  0.00    +0.009 C 
ATOM     22  C   UNL     1      -0.333  -1.196  -0.179  0.00  0.00    -0.000 C 
ATOM     23  C   UNL     1      -1.667  -1.944  -0.239  0.00  0.00    +0.009 C 
ENDBRANCH  20  22
ENDBRANCH  18  20
ENDBRANCH   1  18
BRANCH   8  24
ATOM     24  C   UNL     1       7.042   0.418  -5.820  0.00  0.00    +0.330 C 
ATOM     25  O   UNL     1       6.171   0.907  -6.501  0.00  0.00    -0.249 OA
BRANCH  24  26
ATOM     26  O   UNL     1       8.299   0.880  -5.904  0.00  0.00    -0.467 OA
ATOM     27  C   UNL     1       8.536   1.952  -6.819  0.00  0.00    +0.280 C 
ENDBRANCH  24  26
ENDBRANCH   8  24
BRANCH   7  28
ATOM     28  C   UNL     1       5.463  -2.156  -6.635  0.00  0.00    +0.112 C 
BRANCH  28  29
ATOM     29  C   UNL     1       5.874  -3.617  -6.439  0.00  0.00    +0.056 C 
BRANCH  29  30
ATOM     30  C   UNL     1       5.829  -4.333  -7.764  0.00  0.00    -0.021 A 
ATOM     31  C   UNL     1       6.893  -4.371  -8.771  0.00  0.00    +0.003 A 
ATOM     32  C   UNL     1       8.174  -3.823  -8.850  0.00  0.00    +0.010 A 
ATOM     33  C   UNL     1       8.943  -4.051  -9.957  0.00  0.00    +0.001 A 
ATOM     34  C   UNL     1       8.459  -4.823 -11.004  0.00  0.00    +0.002 A 
ATOM     35  C   UNL     1       7.197  -5.373 -10.947  0.00  0.00    +0.026 A 
ATOM     36  C   UNL     1       6.398  -5.155  -9.830  0.00  0.00    +0.047 A 
ATOM     37  N   UNL     1       5.128  -5.556  -9.479  0.00  0.00    -0.360 N 
ATOM     38  C   UNL     1       4.809  -5.062  -8.244  0.00  0.00    +0.087 A 
ATOM     39  H   UNL     1       4.548  -6.110 -10.025  0.00  0.00    +0.165 HD
ENDBRANCH  29  30
ENDBRANCH  28  29
ENDBRANCH   7  28
TORSDOF 11
