REMARK  Name = ZINC52094592
REMARK  6 active torsions:
REMARK  status: ('A' for Active; 'I' for Inactive)
REMARK    1  A    between atoms: C_1  and  C_2
REMARK    2  A    between atoms: C_2  and  N_3
REMARK    3  A    between atoms: N_3  and  C_4
REMARK    4  A    between atoms: C_4  and  C_6
REMARK    5  A    between atoms: C_4  and  C_19
REMARK    6  A    between atoms: C_20  and  C_24
REMARK                            x       y       z     vdW  Elec       q    Type
REMARK                         _______ _______ _______ _____ _____    ______ ____
ROOT
ATOM      1  C   UNL     1       1.672  -3.005  -1.762  0.00  0.00    -0.041 A 
ATOM      2  C   UNL     1       2.095  -2.911  -3.074  0.00  0.00    +0.031 A 
ATOM      3  C   UNL     1       2.959  -3.865  -3.591  0.00  0.00    +0.067 A 
ATOM      4  C   UNL     1       3.398  -4.916  -2.783  0.00  0.00    +0.068 A 
ATOM      5  C   UNL     1       2.968  -5.003  -1.468  0.00  0.00    +0.043 A 
ATOM      6  C   UNL     1       2.111  -4.044  -0.960  0.00  0.00    +0.022 A 
ATOM      7 BR   UNL     1       1.531  -4.157   0.837  0.00  0.00    -0.050 Br
ATOM      8  N   UNL     1       4.242  -5.700  -3.566  0.00  0.00    -0.306 N 
ATOM      9  H   UNL     1       4.700  -6.505  -3.276  0.00  0.00    +0.170 HD
ATOM     10  C   UNL     1       4.313  -5.152  -4.793  0.00  0.00    +0.325 A 
ATOM     11  O   UNL     1       4.967  -5.591  -5.720  0.00  0.00    -0.247 OA
ATOM     12  N   UNL     1       3.550  -4.043  -4.839  0.00  0.00    -0.306 N 
ATOM     13  H   UNL     1       3.432  -3.467  -5.611  0.00  0.00    +0.170 HD
ENDROOT
BRANCH   1  14
ATOM     14  C   UNL     1       0.733  -1.968  -1.201  0.00  0.00    -0.002 C 
BRANCH  14  15
ATOM     15  C   UNL     1      -0.689  -2.441  -1.358  0.00  0.00    -0.017 A 
ATOM     16  C   UNL     1      -1.633  -2.638  -0.406  0.00  0.00    -0.042 A 
ATOM     17  C   UNL     1      -2.886  -3.081  -0.786  0.00  0.00    +0.011 A 
ATOM     18  C   UNL     1      -3.134  -3.305  -2.099  0.00  0.00    +0.045 A 
ATOM     19  S   UNL     1      -1.570  -2.880  -2.848  0.00  0.00    -0.103 S 
ATOM     20  C   UNL     1      -1.321  -2.379   1.046  0.00  0.00    +0.044 C 
ENDBRANCH  14  15
BRANCH  14  21
ATOM     21  N   UNL     1       0.911  -0.703  -1.926  0.00  0.00    +0.386 N 
ATOM     22  H   UNL     1       0.632  -0.824  -2.888  0.00  0.00    -0.085 HD
ATOM     23  H   UNL     1       1.882  -0.428  -1.890  0.00  0.00    -0.085 HD
BRANCH  21  25
ATOM     24  C   UNL     1       0.270   1.657  -2.057  0.00  0.00    -0.017 C 
ATOM     25  C   UNL     1       0.085   0.339  -1.302  0.00  0.00    -0.085 C 
ENDBRANCH  21  25
ENDBRANCH  14  21
ENDBRANCH   1  14
TORSDOF 4
