REMARK  Name = ZINC24910543
REMARK  11 active torsions:
REMARK  status: ('A' for Active; 'I' for Inactive)
REMARK    1  A    between atoms: C_4  and  O_7
REMARK    2  A    between atoms: O_7  and  C_8
REMARK    3  A    between atoms: C_8  and  C_9
REMARK    4  A    between atoms: C_9  and  C_11
REMARK    5  A    between atoms: C_9  and  O_38
REMARK    6  A    between atoms: C_11  and  N_12
REMARK    7  A    between atoms: N_12  and  C_13
REMARK    8  A    between atoms: N_12  and  C_17
REMARK    9  A    between atoms: C_13  and  C_14
REMARK   10  A    between atoms: C_17  and  C_18
REMARK   11  A    between atoms: C_28  and  C_34
REMARK                            x       y       z     vdW  Elec       q    Type
REMARK                         _______ _______ _______ _____ _____    ______ ____
ROOT
ATOM      1  C   UNL     1      10.731  -0.559  -0.977  0.00  0.00    -0.025 C 
ATOM      2  C   UNL     1      11.885   0.445  -1.046  0.00  0.00    +0.020 C 
ATOM      3  C   UNL     1      13.200  -0.310  -1.257  0.00  0.00    +0.107 C 
ATOM      4  N   UNL     1      13.127  -1.087  -2.501  0.00  0.00    -0.315 N 
ATOM      5  C   UNL     1      12.056  -2.090  -2.438  0.00  0.00    +0.107 C 
ATOM      6  C   UNL     1      10.707  -1.388  -2.264  0.00  0.00    +0.020 C 
ATOM      7  C   UNL     1      14.344  -1.678  -2.788  0.00  0.00    +0.130 A 
ATOM      8  C   UNL     1      15.331  -0.961  -3.499  0.00  0.00    +0.040 A 
ATOM      9  C   UNL     1      15.126   0.356  -3.937  0.00  0.00    +0.015 A 
ATOM     10  C   UNL     1      16.140   0.972  -4.619  0.00  0.00    +0.033 A 
ATOM     11  C   UNL     1      17.330   0.292  -4.860  0.00  0.00    +0.144 A 
ATOM     12  N   UNL     1      17.521  -0.937  -4.439  0.00  0.00    -0.243 NA
ATOM     13  C   UNL     1      16.569  -1.593  -3.773  0.00  0.00    +0.076 A 
ATOM     14  C   UNL     1      16.748  -2.918  -3.329  0.00  0.00    +0.048 A 
ATOM     15  C   UNL     1      15.736  -3.529  -2.655  0.00  0.00    +0.115 A 
ATOM     16  N   UNL     1      14.586  -2.917  -2.404  0.00  0.00    -0.240 NA
ENDROOT
BRANCH  11  17
ATOM     17  C   UNL     1      18.433   0.989  -5.613  0.00  0.00    +0.434 C 
ATOM     18  F   UNL     1      19.264   1.659  -4.709  0.00  0.00    -0.164 F 
ATOM     19  F   UNL     1      19.182   0.044  -6.323  0.00  0.00    -0.164 F 
ATOM     20  F   UNL     1      17.878   1.911  -6.507  0.00  0.00    -0.164 F 
ENDBRANCH  11  17
BRANCH   1  21
ATOM     21  C   UNL     1       9.407   0.193  -0.828  0.00  0.00    -0.075 C 
BRANCH  21  22
ATOM     22  N   UNL     1       8.300  -0.771  -0.774  0.00  0.00    +0.382 N 
ATOM     23  H   UNL     1       8.431  -1.484  -1.602  0.00  0.00    -0.082 HD
BRANCH  22  24
ATOM     24  C   UNL     1       7.007  -0.099  -0.958  0.00  0.00    -0.044 C 
BRANCH  24  25
ATOM     25  C   UNL     1       5.947  -1.130  -1.351  0.00  0.00    +0.135 C 
BRANCH  25  26
ATOM     26  O   UNL     1       5.710  -2.012  -0.252  0.00  0.00    -0.390 OA
ATOM     27  H   UNL     1       6.533  -2.618   0.154  0.00  0.00    +0.210 HD
ENDBRANCH  25  26
BRANCH  25  28
ATOM     28  C   UNL     1       4.647  -0.411  -1.717  0.00  0.00    +0.258 C 
BRANCH  28  29
ATOM     29  O   UNL     1       3.695  -1.363  -2.195  0.00  0.00    -0.489 OA
BRANCH  29  33
ATOM     30  C   UNL     1       0.001   0.087  -3.322  0.00  0.00    +0.000 A 
ATOM     31  C   UNL     1       0.968   0.955  -2.851  0.00  0.00    +0.004 A 
ATOM     32  C   UNL     1       2.206   0.472  -2.472  0.00  0.00    +0.045 A 
ATOM     33  C   UNL     1       2.478  -0.885  -2.566  0.00  0.00    +0.121 A 
ATOM     34  C   UNL     1       1.505  -1.754  -3.039  0.00  0.00    +0.045 A 
ATOM     35  C   UNL     1       0.269  -1.266  -3.416  0.00  0.00    +0.004 A 
ENDBRANCH  29  33
ENDBRANCH  28  29
ENDBRANCH  25  28
ENDBRANCH  24  25
ENDBRANCH  22  24
BRANCH  22  36
ATOM     36  C   UNL     1       8.324  -1.530   0.483  0.00  0.00    -0.075 C 
BRANCH  36  37
ATOM     37  C   UNL     1       8.172  -0.568   1.663  0.00  0.00    -0.028 C 
ATOM     38  C   UNL     1       9.343  -0.462   2.643  0.00  0.00    +0.002 C 
ATOM     39  C   UNL     1       8.056  -1.178   3.062  0.00  0.00    +0.002 C 
ENDBRANCH  36  37
ENDBRANCH  22  36
ENDBRANCH  21  22
ENDBRANCH   1  21
TORSDOF 11
