REMARK  Name = ZINC05347063
REMARK  15 active torsions:
REMARK  status: ('A' for Active; 'I' for Inactive)
REMARK    1  A    between atoms: C_1  and  C_2
REMARK    2  A    between atoms: C_2  and  N_64
REMARK    3  A    between atoms: C_3  and  C_4
REMARK    4  A    between atoms: C_3  and  N_64
REMARK    5  A    between atoms: C_5  and  C_6
REMARK    6  A    between atoms: C_5  and  N_64
REMARK    7  A    between atoms: C_6  and  C_7
REMARK    8  A    between atoms: C_7  and  N_66
REMARK    9  A    between atoms: C_8  and  C_10
REMARK   10  A    between atoms: C_8  and  C_11
REMARK   11  A    between atoms: C_8  and  N_66
REMARK   12  A    between atoms: C_11  and  C_12
REMARK   13  A    between atoms: C_12  and  C_20
REMARK   14  A    between atoms: C_16  and  C_18
REMARK   15  A    between atoms: C_16  and  C_19
REMARK                            x       y       z     vdW  Elec       q    Type
REMARK                         _______ _______ _______ _____ _____    ______ ____
ROOT
ATOM      1  C   UNL     1      -0.973   0.784   3.352  0.00  0.00    -0.004 C 
ENDROOT
BRANCH   1   2
ATOM      2  C   UNL     1      -1.984  -0.302   2.978  0.00  0.00    -0.001 C 
ATOM      3  C   UNL     1      -3.177  -0.244   3.937  0.00  0.00    +0.039 C 
ATOM      4  C   UNL     1      -2.694  -0.545   5.358  0.00  0.00    +0.161 C 
ATOM      5  O   UNL     1      -2.060  -1.826   5.384  0.00  0.00    -0.374 OA
ATOM      6  C   UNL     1      -0.910  -1.924   4.542  0.00  0.00    +0.065 C 
ATOM      7  C   UNL     1      -1.321  -1.679   3.088  0.00  0.00    +0.046 C 
ATOM      8  C   UNL     1      -0.301  -3.322   4.671  0.00  0.00    +0.041 C 
ATOM      9  C   UNL     1       0.123  -0.877   4.964  0.00  0.00    +0.041 C 
BRANCH   2  10
ATOM     10  C   UNL     1      -2.459  -0.083   1.565  0.00  0.00    -0.041 A 
ATOM     11  C   UNL     1      -2.344  -1.097   0.632  0.00  0.00    +0.004 A 
ATOM     12  C   UNL     1      -2.784  -0.897  -0.663  0.00  0.00    +0.000 A 
ATOM     13  C   UNL     1      -3.332   0.319  -1.028  0.00  0.00    +0.000 A 
ATOM     14  C   UNL     1      -3.442   1.334  -0.096  0.00  0.00    +0.000 A 
ATOM     15  C   UNL     1      -3.006   1.133   1.200  0.00  0.00    +0.004 A 
ENDBRANCH   2  10
ENDBRANCH   1   2
BRANCH   1  16
ATOM     16  C   UNL     1       0.277   0.639   2.481  0.00  0.00    -0.074 C 
ATOM     17  C   UNL     1       1.359   1.598   2.980  0.00  0.00    -0.014 C 
BRANCH  16  18
ATOM     18  N   UNL     1      -0.066   0.966   1.085  0.00  0.00    +0.381 N 
ATOM     19  H   UNL     1      -1.027   0.661   0.891  0.00  0.00    -0.086 HD
ATOM     20  H   UNL     1       0.006   1.981   0.947  0.00  0.00    -0.086 HD
BRANCH  18  21
ATOM     21  C   UNL     1       0.857   0.284   0.158  0.00  0.00    -0.084 C 
BRANCH  21  22
ATOM     22  C   UNL     1       0.444   0.598  -1.282  0.00  0.00    -0.038 C 
BRANCH  22  23
ATOM     23  C   UNL     1       1.397  -0.106  -2.250  0.00  0.00    -0.081 C 
BRANCH  23  24
ATOM     24  N   UNL     1       0.973   0.189  -3.635  0.00  0.00    +0.379 N 
ATOM     25  H   UNL     1      -0.026  -0.027  -3.731  0.00  0.00    -0.082 HD
BRANCH  24  27
ATOM     26  C   UNL     1       2.673   1.970  -3.851  0.00  0.00    -0.017 C 
ATOM     27  C   UNL     1       1.186   1.620  -3.935  0.00  0.00    -0.082 C 
ENDBRANCH  24  27
BRANCH  24  28
ATOM     28  C   UNL     1       1.737  -0.645  -4.586  0.00  0.00    -0.082 C 
ATOM     29  C   UNL     1       1.194  -0.412  -5.997  0.00  0.00    -0.017 C 
ENDBRANCH  24  28
ENDBRANCH  23  24
ENDBRANCH  22  23
ENDBRANCH  21  22
ENDBRANCH  18  21
ENDBRANCH  16  18
ENDBRANCH   1  16
TORSDOF 10
