REMARK  Name = ZINC21707916
REMARK  13 active torsions:
REMARK  status: ('A' for Active; 'I' for Inactive)
REMARK    1  A    between atoms: C_1  and  C_2
REMARK    2  A    between atoms: C_2  and  O_3
REMARK    3  A    between atoms: O_3  and  C_4
REMARK    4  A    between atoms: C_6  and  C_15
REMARK    5  A    between atoms: C_7  and  N_12
REMARK    6  A    between atoms: C_9  and  O_10
REMARK    7  A    between atoms: O_10  and  C_11
REMARK    8  A    between atoms: N_17  and  N_18
REMARK    9  A    between atoms: C_19  and  C_21
REMARK   10  A    between atoms: C_28  and  C_31
REMARK   11  A    between atoms: C_31  and  C_32
REMARK   12  A    between atoms: C_31  and  C_33
REMARK   13  A    between atoms: C_31  and  C_34
REMARK                            x       y       z     vdW  Elec       q    Type
REMARK                         _______ _______ _______ _____ _____    ______ ____
ROOT
ATOM      1  C   UNL     1      -5.070  -0.579  -0.145  0.00  0.00    +0.262 C 
ATOM      2  O   UNL     1      -5.428   0.552   0.121  0.00  0.00    -0.269 OA
ATOM      3  N   UNL     1      -3.800  -0.811  -0.531  0.00  0.00    -0.230 N 
ATOM      4  H   UNL     1      -3.477  -1.834  -0.772  0.00  0.00    +0.173 HD
ENDROOT
BRANCH   1   7
ATOM      5  C   UNL     1      -7.142  -3.579  -1.047  0.00  0.00    +0.163 A 
ATOM      6  C   UNL     1      -6.246  -2.533  -1.145  0.00  0.00    +0.064 A 
ATOM      7  C   UNL     1      -6.027  -1.698  -0.046  0.00  0.00    +0.072 A 
ATOM      8  C   UNL     1      -6.713  -1.929   1.149  0.00  0.00    +0.142 A 
ATOM      9  C   UNL     1      -7.610  -2.971   1.239  0.00  0.00    +0.082 A 
ATOM     10  C   UNL     1      -7.827  -3.800   0.147  0.00  0.00    +0.164 A 
BRANCH   8  11
ATOM     11  N   UNL     1      -6.480  -1.050   2.318  0.00  0.00    +0.057 N 
ATOM     12  O   UNL     1      -7.165  -1.171   3.317  0.00  0.00    -0.126 OA
ATOM     13  O   UNL     1      -5.603  -0.206   2.279  0.00  0.00    -0.126 OA
ENDBRANCH   8  11
BRANCH  10  14
ATOM     14  O   UNL     1      -8.707  -4.830   0.243  0.00  0.00    -0.491 OA
ATOM     15  C   UNL     1      -9.374  -4.999   1.495  0.00  0.00    +0.277 C 
ENDBRANCH  10  14
BRANCH   5  16
ATOM     16  O   UNL     1      -7.357  -4.393  -2.115  0.00  0.00    -0.489 OA
BRANCH  16  18
ATOM     17  C   UNL     1      -6.993  -5.122  -4.390  0.00  0.00    +0.048 C 
ATOM     18  C   UNL     1      -6.622  -4.108  -3.306  0.00  0.00    +0.226 C 
ENDBRANCH  16  18
ENDBRANCH   5  16
ENDBRANCH   1   7
BRANCH   3  19
ATOM     19  N   UNL     1      -2.892   0.252  -0.626  0.00  0.00    -0.230 N 
ATOM     20  C   UNL     1      -1.621   0.019  -1.012  0.00  0.00    +0.267 C 
ATOM     21  O   UNL     1      -1.263  -1.113  -1.278  0.00  0.00    -0.268 OA
ATOM     22  H   UNL     1      -3.215   1.275  -0.385  0.00  0.00    +0.173 HD
BRANCH  20  23
ATOM     23  C   UNL     1      -0.671   1.131  -1.111  0.00  0.00    +0.076 A 
ATOM     24  C   UNL     1       0.661   1.109  -1.483  0.00  0.00    +0.024 A 
ATOM     25  C   UNL     1       1.355   2.308  -1.499  0.00  0.00    -0.036 A 
ATOM     26  C   UNL     1       0.659   3.427  -1.142  0.00  0.00    -0.006 A 
ATOM     27  S   UNL     1      -0.930   2.866  -0.784  0.00  0.00    -0.088 S 
ATOM     28  C   UNL     1       1.176   4.831  -1.080  0.00  0.00    +0.043 C 
ATOM     29  C   UNL     1       2.512   4.889  -1.835  0.00  0.00    +0.009 C 
ATOM     30  C   UNL     1       3.392   3.725  -1.369  0.00  0.00    -0.001 C 
ATOM     31  C   UNL     1       2.828   2.404  -1.891  0.00  0.00    +0.040 C 
BRANCH  30  32
ATOM     32  C   UNL     1       4.812   3.917  -1.903  0.00  0.00    -0.035 C 
ATOM     33  C   UNL     1       5.383   5.234  -1.372  0.00  0.00    +0.011 C 
ATOM     34  C   UNL     1       5.693   2.756  -1.438  0.00  0.00    +0.011 C 
ATOM     35  C   UNL     1       4.782   3.954  -3.432  0.00  0.00    +0.011 C 
ENDBRANCH  30  32
ENDBRANCH  20  23
ENDBRANCH   3  19
TORSDOF 8
