REMARK  Name = ZINC33384304
REMARK  6 active torsions:
REMARK  status: ('A' for Active; 'I' for Inactive)
REMARK    1  A    between atoms: C_4  and  C_7
REMARK    2  A    between atoms: N_9  and  C_10
REMARK    3  A    between atoms: C_10  and  C_17
REMARK    4  A    between atoms: C_11  and  C_12
REMARK    5  A    between atoms: N_19  and  N_20
REMARK    6  A    between atoms: C_21  and  C_22
REMARK                            x       y       z     vdW  Elec       q    Type
REMARK                         _______ _______ _______ _____ _____    ______ ____
ROOT
ATOM      1  C   UNL     1       3.101  -2.847  -0.334  0.00  0.00    +0.099 C 
ATOM      2  C   UNL     1       3.938  -1.784  -0.194  0.00  0.00    +0.043 C 
ENDROOT
BRANCH   2   3
ATOM      3  C   UNL     1       5.328  -1.995  -0.025  0.00  0.00    +0.014 A 
ATOM      4  C   UNL     1       6.330  -1.068   0.229  0.00  0.00    +0.015 A 
ATOM      5  C   UNL     1       7.620  -1.520   0.355  0.00  0.00    +0.008 A 
ATOM      6  C   UNL     1       7.875  -2.851   0.228  0.00  0.00    +0.046 A 
ATOM      7  S   UNL     1       6.249  -3.524  -0.074  0.00  0.00    -0.097 S 
ENDBRANCH   2   3
BRANCH   1  10
ATOM      8  C   UNL     1       0.887  -3.685  -0.587  0.00  0.00    +0.248 C 
ATOM      9  O   UNL     1       1.319  -4.819  -0.504  0.00  0.00    -0.270 OA
ATOM     10  N   UNL     1       1.735  -2.638  -0.561  0.00  0.00    -0.277 N 
ATOM     11  H   UNL     1       1.399  -1.738  -0.700  0.00  0.00    +0.155 HD
BRANCH   8  15
ATOM     12  C   UNL     1      -3.292  -3.028  -0.960  0.00  0.00    +0.000 A 
ATOM     13  C   UNL     1      -2.804  -4.319  -0.866  0.00  0.00    +0.001 A 
ATOM     14  C   UNL     1      -1.447  -4.540  -0.745  0.00  0.00    +0.013 A 
ATOM     15  C   UNL     1      -0.567  -3.457  -0.717  0.00  0.00    +0.037 A 
ATOM     16  C   UNL     1      -1.066  -2.156  -0.813  0.00  0.00    +0.013 A 
ATOM     17  C   UNL     1      -2.425  -1.950  -0.934  0.00  0.00    +0.001 A 
ENDBRANCH   8  15
ENDBRANCH   1  10
BRANCH   1  18
ATOM     18  C   UNL     1       3.627  -4.210  -0.247  0.00  0.00    +0.277 C 
ATOM     19  O   UNL     1       3.729  -4.756   0.837  0.00  0.00    -0.267 OA
ATOM     20  N   UNL     1       4.000  -4.861  -1.367  0.00  0.00    -0.202 N 
ATOM     21  H   UNL     1       3.986  -4.403  -2.222  0.00  0.00    +0.178 HD
BRANCH  20  22
ATOM     22  N   UNL     1       4.408  -6.199  -1.297  0.00  0.00    -0.187 NA
ATOM     23  C   UNL     1       4.872  -6.793  -2.354  0.00  0.00    +0.139 C 
BRANCH  23  24
ATOM     24  C   UNL     1       5.155  -6.014  -3.572  0.00  0.00    +0.013 A 
ATOM     25  C   UNL     1       5.452  -4.651  -3.481  0.00  0.00    +0.012 A 
ATOM     26  C   UNL     1       5.717  -3.928  -4.624  0.00  0.00    +0.021 A 
ATOM     27  C   UNL     1       5.689  -4.548  -5.863  0.00  0.00    +0.042 A 
ATOM     28  C   UNL     1       5.395  -5.897  -5.962  0.00  0.00    +0.040 A 
ATOM     29  C   UNL     1       5.135  -6.635  -4.824  0.00  0.00    +0.051 A 
ATOM     30 CL   UNL     1       4.775  -8.329  -4.949  0.00  0.00    -0.083 Cl
ATOM     31 CL   UNL     1       6.022  -3.629  -7.297  0.00  0.00    -0.083 Cl
ENDBRANCH  23  24
ENDBRANCH  20  22
ENDBRANCH   1  18
TORSDOF 6
