REMARK  Name = ZINC59825164
REMARK  11 active torsions:
REMARK  status: ('A' for Active; 'I' for Inactive)
REMARK    1  A    between atoms: C_1  and  C_2
REMARK    2  A    between atoms: C_2  and  C_3
REMARK    3  A    between atoms: C_2  and  C_4
REMARK    4  A    between atoms: C_4  and  C_6
REMARK    5  A    between atoms: C_4  and  N_18
REMARK    6  A    between atoms: C_12  and  C_14
REMARK    7  A    between atoms: C_14  and  C_15
REMARK    8  A    between atoms: C_14  and  C_16
REMARK    9  A    between atoms: C_14  and  C_17
REMARK   10  A    between atoms: C_19  and  C_21
REMARK   11  A    between atoms: C_24  and  N_28
REMARK                            x       y       z     vdW  Elec       q    Type
REMARK                         _______ _______ _______ _____ _____    ______ ____
ROOT
ATOM      1  C   UNL     1      -1.420  -0.587  -0.162  0.00  0.00    +0.162 C 
ENDROOT
BRANCH   1   2
ATOM      2  C   UNL     1      -2.344   0.017   0.864  0.00  0.00    +0.239 C 
ATOM      3  O   UNL     1      -3.368   0.562   0.511  0.00  0.00    -0.273 OA
ATOM      4  N   UNL     1      -2.033  -0.049   2.174  0.00  0.00    -0.262 N 
ATOM      5  C   UNL     1      -2.829   0.600   3.111  0.00  0.00    +0.188 A 
ATOM      6  N   UNL     1      -3.919   1.317   2.922  0.00  0.00    -0.126 NA
ATOM      7  N   UNL     1      -4.542   1.851   3.883  0.00  0.00    -0.144 NA
ATOM      8  C   UNL     1      -4.089   1.688   5.110  0.00  0.00    +0.109 A 
ATOM      9  S   UNL     1      -2.656   0.670   4.787  0.00  0.00    -0.035 S 
ATOM     10  H   UNL     1      -1.253  -0.549   2.462  0.00  0.00    +0.157 HD
BRANCH   8  11
ATOM     11  C   UNL     1      -4.630   2.208   6.417  0.00  0.00    +0.013 C 
ATOM     12  C   UNL     1      -6.050   1.678   6.628  0.00  0.00    +0.018 C 
ATOM     13  C   UNL     1      -3.734   1.736   7.564  0.00  0.00    +0.018 C 
ATOM     14  C   UNL     1      -4.655   3.737   6.387  0.00  0.00    +0.018 C 
ENDBRANCH   8  11
ENDBRANCH   1   2
BRANCH   1  15
ATOM     15  N   UNL     1      -2.172  -0.884  -1.383  0.00  0.00    -0.300 N 
ATOM     16  C   UNL     1      -1.741  -1.845  -2.223  0.00  0.00    +0.246 C 
ATOM     17  O   UNL     1      -0.727  -2.465  -1.968  0.00  0.00    -0.270 OA
ATOM     18  H   UNL     1      -2.982  -0.390  -1.586  0.00  0.00    +0.150 HD
BRANCH  16  19
ATOM     19  C   UNL     1      -2.500  -2.145  -3.455  0.00  0.00    +0.055 A 
ATOM     20  C   UNL     1      -3.662  -1.431  -3.754  0.00  0.00    +0.017 A 
ATOM     21  C   UNL     1      -4.366  -1.716  -4.905  0.00  0.00    +0.033 A 
ATOM     22  C   UNL     1      -3.924  -2.707  -5.764  0.00  0.00    +0.128 A 
ATOM     23  C   UNL     1      -2.774  -3.419  -5.475  0.00  0.00    +0.053 A 
ATOM     24  C   UNL     1      -2.055  -3.140  -4.329  0.00  0.00    +0.055 A 
ATOM     25 CL   UNL     1      -0.608  -4.030  -3.971  0.00  0.00    -0.083 Cl
BRANCH  22  26
ATOM     26  N   UNL     1      -4.685  -3.007  -6.998  0.00  0.00    +0.056 N 
ATOM     27  O   UNL     1      -5.691  -2.386  -7.253  0.00  0.00    -0.126 OA
ATOM     28  O   UNL     1      -4.301  -3.872  -7.750  0.00  0.00    -0.126 OA
ENDBRANCH  22  26
ENDBRANCH  16  19
ENDBRANCH   1  15
BRANCH   1  30
ATOM     29  C   UNL     1       0.716  -0.261  -1.417  0.00  0.00    +0.009 C 
ATOM     30  C   UNL     1      -0.298   0.403  -0.482  0.00  0.00    +0.012 C 
ATOM     31  C   UNL     1      -0.888   1.639  -1.165  0.00  0.00    +0.009 C 
ENDBRANCH   1  30
TORSDOF 6
