REMARK  Name = ZINC09283325
REMARK  9 active torsions:
REMARK  status: ('A' for Active; 'I' for Inactive)
REMARK    1  A    between atoms: C_1  and  C_2
REMARK    2  A    between atoms: C_5  and  N_9
REMARK    3  A    between atoms: C_6  and  C_8
REMARK    4  A    between atoms: C_10  and  C_12
REMARK    5  A    between atoms: C_12  and  O_13
REMARK    6  A    between atoms: O_13  and  C_14
REMARK    7  A    between atoms: C_14  and  C_16
REMARK    8  A    between atoms: C_20  and  S_22
REMARK    9  A    between atoms: S_22  and  N_25
REMARK                            x       y       z     vdW  Elec       q    Type
REMARK                         _______ _______ _______ _____ _____    ______ ____
ROOT
ATOM      1  C   UNL     1      -1.302   0.855   0.501  0.00  0.00    +0.061 A 
ATOM      2  C   UNL     1      -1.155   2.243   0.558  0.00  0.00    +0.016 A 
ATOM      3  C   UNL     1      -2.233   3.059   0.287  0.00  0.00    +0.023 A 
ATOM      4  C   UNL     1      -3.462   2.504  -0.032  0.00  0.00    +0.068 A 
ATOM      5  C   UNL     1      -3.615   1.129  -0.085  0.00  0.00    +0.128 A 
ATOM      6  C   UNL     1      -2.543   0.302   0.179  0.00  0.00    +0.045 A 
ATOM      7 CL   UNL     1      -4.816   3.538  -0.366  0.00  0.00    -0.082 Cl
ENDROOT
BRANCH   5   8
ATOM      8  S   UNL     1      -5.182   0.434  -0.492  0.00  0.00    +0.076 S 
ATOM      9  O   UNL     1      -5.661   1.146  -1.624  0.00  0.00    -0.150 OA
ATOM     10  O   UNL     1      -5.012  -0.977  -0.495  0.00  0.00    -0.150 OA
BRANCH   8  11
ATOM     11  N   UNL     1      -6.212   0.783   0.757  0.00  0.00    -0.202 N 
ATOM     12  C   UNL     1      -7.162   1.899   0.775  0.00  0.00    +0.136 C 
ATOM     13  C   UNL     1      -7.878   1.797   2.131  0.00  0.00    +0.058 C 
ATOM     14  C   UNL     1      -7.251   0.595   2.802  0.00  0.00    -0.023 A 
ATOM     15  C   UNL     1      -6.298   0.062   1.949  0.00  0.00    +0.054 A 
ATOM     16  C   UNL     1      -5.579  -1.064   2.355  0.00  0.00    +0.025 A 
ATOM     17  C   UNL     1      -5.818  -1.634   3.588  0.00  0.00    +0.002 A 
ATOM     18  C   UNL     1      -6.771  -1.094   4.431  0.00  0.00    +0.000 A 
ATOM     19  C   UNL     1      -7.487   0.021   4.036  0.00  0.00    +0.005 A 
ENDBRANCH   8  11
ENDBRANCH   5   8
BRANCH   1  20
ATOM     20  C   UNL     1      -0.150  -0.025   0.785  0.00  0.00    +0.340 C 
ATOM     21  O   UNL     1      -0.282  -1.231   0.740  0.00  0.00    -0.245 OA
BRANCH  20  22
ATOM     22  O   UNL     1       1.047   0.511   1.090  0.00  0.00    -0.452 OA
BRANCH  22  23
ATOM     23  C   UNL     1       2.136  -0.413   1.352  0.00  0.00    +0.328 C 
BRANCH  23  25
ATOM     24  N   UNL     1       4.533  -0.291   1.951  0.00  0.00    -0.282 N 
ATOM     25  C   UNL     1       3.388   0.362   1.672  0.00  0.00    +0.255 C 
ATOM     26  O   UNL     1       3.365   1.575   1.679  0.00  0.00    -0.272 OA
ATOM     27  H   UNL     1       4.530  -1.257   2.042  0.00  0.00    +0.155 HD
BRANCH  24  32
ATOM     28  C   UNL     1       9.368   2.605   2.597  0.00  0.00    +0.044 C 
ATOM     29  C   UNL     1       8.084   1.835   2.426  0.00  0.00    -0.050 A 
ATOM     30  C   UNL     1       7.022   2.408   1.749  0.00  0.00    +0.005 A 
ATOM     31  C   UNL     1       5.843   1.705   1.590  0.00  0.00    +0.024 A 
ATOM     32  C   UNL     1       5.725   0.423   2.111  0.00  0.00    +0.036 A 
ATOM     33  C   UNL     1       6.791  -0.146   2.795  0.00  0.00    -0.029 A 
ATOM     34  C   UNL     1       7.969   0.559   2.946  0.00  0.00    +0.008 A 
ATOM     35  C   UNL     1       6.665  -1.535   3.367  0.00  0.00    +0.045 C 
ENDBRANCH  24  32
ENDBRANCH  23  25
ENDBRANCH  22  23
ENDBRANCH  20  22
ENDBRANCH   1  20
TORSDOF 7
