REMARK  Name = ZINC20751458
REMARK  5 active torsions:
REMARK  status: ('A' for Active; 'I' for Inactive)
REMARK    1  A    between atoms: C_4  and  N_7
REMARK    2  A    between atoms: N_7  and  S_8
REMARK    3  A    between atoms: S_8  and  C_11
REMARK    4  A    between atoms: C_24  and  C_27
REMARK    5  A    between atoms: C_36  and  O_37
REMARK                            x       y       z     vdW  Elec       q    Type
REMARK                         _______ _______ _______ _____ _____    ______ ____
ROOT
ATOM      1  C   UNL     1       3.214  -1.728   2.045  0.00  0.00    +0.109 A 
ATOM      2  C   UNL     1       3.864  -0.544   1.747  0.00  0.00    +0.030 A 
ATOM      3  C   UNL     1       3.153   0.535   1.263  0.00  0.00    +0.025 A 
ATOM      4  C   UNL     1       1.780   0.442   1.072  0.00  0.00    +0.031 A 
ATOM      5  C   UNL     1       1.127  -0.755   1.387  0.00  0.00    -0.018 A 
ATOM      6  C   UNL     1       1.847  -1.829   1.864  0.00  0.00    +0.034 A 
ATOM      7  C   UNL     1      -0.338  -0.807   1.188  0.00  0.00    +0.049 C 
ATOM      8  C   UNL     1      -1.050  -2.083   0.922  0.00  0.00    -0.023 C 
ATOM      9  C   UNL     1      -2.105  -1.829   0.158  0.00  0.00    -0.030 C 
ATOM     10  C   UNL     1      -2.159  -0.330  -0.205  0.00  0.00    +0.033 C 
ATOM     11  C   UNL     1      -0.682   0.060  -0.060  0.00  0.00    +0.029 C 
ATOM     12  C   UNL     1      -0.380   1.492   0.346  0.00  0.00    +0.109 C 
ATOM     13  N   UNL     1       1.083   1.543   0.561  0.00  0.00    -0.336 N 
ATOM     14  H   UNL     1       1.643   2.459   0.319  0.00  0.00    +0.147 HD
ENDROOT
BRANCH  12  15
ATOM     15  C   UNL     1      -1.106   1.836   1.621  0.00  0.00    +0.022 A 
ATOM     16  C   UNL     1      -2.407   2.363   1.572  0.00  0.00    -0.009 A 
ATOM     17  C   UNL     1      -3.064   2.570   0.347  0.00  0.00    +0.009 A 
ATOM     18  C   UNL     1      -4.327   3.077   0.337  0.00  0.00    +0.001 A 
ATOM     19  C   UNL     1      -4.983   3.390   1.526  0.00  0.00    +0.001 A 
ATOM     20  C   UNL     1      -4.380   3.198   2.731  0.00  0.00    +0.008 A 
ATOM     21  C   UNL     1      -3.076   2.676   2.781  0.00  0.00    -0.017 A 
ATOM     22  C   UNL     1      -2.423   2.465   4.008  0.00  0.00    +0.012 A 
ATOM     23  C   UNL     1      -1.161   1.958   4.021  0.00  0.00    +0.046 A 
ATOM     24  C   UNL     1      -0.501   1.643   2.830  0.00  0.00    +0.122 A 
BRANCH  24  25
ATOM     25  O   UNL     1       0.760   1.137   2.875  0.00  0.00    -0.506 OA
ATOM     26  H   UNL     1       1.254   0.979   3.845  0.00  0.00    +0.292 HD
ENDBRANCH  24  25
ENDBRANCH  12  15
BRANCH   1  27
ATOM     27  S   UNL     1       4.127  -3.106   2.655  0.00  0.00    +0.072 S 
ATOM     28  O   UNL     1       3.407  -4.270   2.276  0.00  0.00    -0.150 OA
ATOM     29  O   UNL     1       5.482  -2.893   2.281  0.00  0.00    -0.150 OA
BRANCH  27  30
ATOM     30  N   UNL     1       4.075  -3.034   4.309  0.00  0.00    -0.216 N 
ATOM     31  H   UNL     1       5.002  -2.885   4.882  0.00  0.00    +0.174 HD
BRANCH  30  35
ATOM     32  C   UNL     1       0.437  -3.418   6.296  0.00  0.00    +0.000 A 
ATOM     33  C   UNL     1       1.041  -4.531   5.742  0.00  0.00    +0.002 A 
ATOM     34  C   UNL     1       2.248  -4.408   5.082  0.00  0.00    +0.024 A 
ATOM     35  C   UNL     1       2.854  -3.163   4.975  0.00  0.00    +0.048 A 
ATOM     36  C   UNL     1       2.247  -2.047   5.537  0.00  0.00    +0.024 A 
ATOM     37  C   UNL     1       1.038  -2.177   6.191  0.00  0.00    +0.002 A 
ENDBRANCH  30  35
ENDBRANCH  27  30
ENDBRANCH   1  27
TORSDOF 5
