REMARK  Name = ZINC24829661
REMARK  8 active torsions:
REMARK  status: ('A' for Active; 'I' for Inactive)
REMARK    1  A    between atoms: C_1  and  C_2
REMARK    2  A    between atoms: C_2  and  C_26
REMARK    3  A    between atoms: N_5  and  C_9
REMARK    4  A    between atoms: C_9  and  C_10
REMARK    5  A    between atoms: C_10  and  C_12
REMARK    6  A    between atoms: C_10  and  O_25
REMARK    7  A    between atoms: C_12  and  O_13
REMARK    8  A    between atoms: O_13  and  C_14
REMARK                            x       y       z     vdW  Elec       q    Type
REMARK                         _______ _______ _______ _____ _____    ______ ____
ROOT
ATOM      1  C   UNL     1       2.521   4.172  -0.320  0.00  0.00    +0.151 C 
ENDROOT
BRANCH   1   6
ATOM      2  C   UNL     1       3.145   8.726  -1.287  0.00  0.00    +0.050 C 
ATOM      3  C   UNL     1       2.102   7.853  -0.586  0.00  0.00    +0.168 C 
ATOM      4  C   UNL     1       2.088   6.461  -1.187  0.00  0.00    +0.254 C 
ATOM      5  O   UNL     1       1.831   6.162  -2.334  0.00  0.00    -0.272 OA
ATOM      6  N   UNL     1       2.417   5.627  -0.182  0.00  0.00    -0.221 N 
ATOM      7  C   UNL     1       2.642   6.291   0.957  0.00  0.00    +0.310 C 
ATOM      8  O   UNL     1       2.958   5.755   2.001  0.00  0.00    -0.252 OA
ATOM      9  N   UNL     1       2.481   7.620   0.818  0.00  0.00    -0.279 N 
ATOM     10  H   UNL     1       2.575   8.469   1.510  0.00  0.00    +0.152 HD
BRANCH   3  11
ATOM     11  C   UNL     1       0.739   8.489  -0.669  0.00  0.00    +0.137 A 
ATOM     12  C   UNL     1       0.203   9.323   0.240  0.00  0.00    +0.047 A 
ATOM     13  C   UNL     1      -1.081   9.678  -0.236  0.00  0.00    +0.041 A 
ATOM     14  C   UNL     1      -1.255   9.033  -1.404  0.00  0.00    +0.195 A 
ATOM     15  O   UNL     1      -0.150   8.314  -1.661  0.00  0.00    -0.465 OA
ENDBRANCH   3  11
ENDBRANCH   1   6
BRANCH   1  16
ATOM     16  C   UNL     1       1.165   3.532  -0.015  0.00  0.00    +0.158 C 
BRANCH  16  17
ATOM     17  O   UNL     1       0.775   3.857   1.320  0.00  0.00    -0.388 OA
ATOM     18  H   UNL     1      -0.179   3.483   1.721  0.00  0.00    +0.210 HD
ENDBRANCH  16  17
BRANCH  16  19
ATOM     19  C   UNL     1       1.274   2.013  -0.160  0.00  0.00    +0.193 C 
BRANCH  19  20
ATOM     20  O   UNL     1      -0.017   1.425   0.010  0.00  0.00    -0.369 OA
BRANCH  20  21
ATOM     21  C   UNL     1      -0.013  -0.004  -0.019  0.00  0.00    +0.149 C 
ATOM     22  C   UNL     1      -0.135  -0.478  -1.466  0.00  0.00    +0.037 C 
ATOM     23  C   UNL     1      -0.348  -1.997  -1.460  0.00  0.00    +0.007 C 
ATOM     24  C   UNL     1      -1.744  -2.285  -0.910  0.00  0.00    +0.035 C 
ATOM     25  C   UNL     1      -1.954  -1.571   0.399  0.00  0.00    -0.042 A 
ATOM     26  C   UNL     1      -1.162  -0.521   0.806  0.00  0.00    -0.016 A 
ATOM     27  C   UNL     1      -1.415   0.100   2.023  0.00  0.00    +0.006 A 
ATOM     28  C   UNL     1      -2.450  -0.330   2.828  0.00  0.00    +0.000 A 
ATOM     29  C   UNL     1      -3.242  -1.387   2.421  0.00  0.00    +0.000 A 
ATOM     30  C   UNL     1      -2.994  -2.004   1.212  0.00  0.00    +0.004 A 
ENDBRANCH  20  21
ENDBRANCH  19  20
ENDBRANCH  16  19
ENDBRANCH   1  16
TORSDOF 7
