REMARK  Name = ZINC39227939
REMARK  6 active torsions:
REMARK  status: ('A' for Active; 'I' for Inactive)
REMARK    1  A    between atoms: C_1  and  O_2
REMARK    2  A    between atoms: O_2  and  C_3
REMARK    3  A    between atoms: C_3  and  C_4
REMARK    4  A    between atoms: C_4  and  C_5
REMARK    5  A    between atoms: C_20  and  C_22
REMARK    6  A    between atoms: C_25  and  N_29
REMARK                            x       y       z     vdW  Elec       q    Type
REMARK                         _______ _______ _______ _____ _____    ______ ____
ROOT
ATOM      1  C   UNL     1       1.438  -2.513  -2.474  0.00  0.00    +0.219 C 
ATOM      2  O   UNL     1       1.889  -1.925  -3.434  0.00  0.00    -0.275 OA
ATOM      3  N   UNL     1       1.471  -3.860  -2.431  0.00  0.00    -0.289 N 
ATOM      4  C   UNL     1       0.923  -4.592  -1.280  0.00  0.00    +0.113 C 
ATOM      5  C   UNL     1      -0.273  -5.430  -1.746  0.00  0.00    +0.056 C 
ATOM      6  C   UNL     1       0.091  -6.134  -3.028  0.00  0.00    -0.015 A 
ATOM      7  C   UNL     1      -0.557  -7.276  -3.640  0.00  0.00    +0.003 A 
ATOM      8  C   UNL     1      -1.658  -8.053  -3.269  0.00  0.00    +0.010 A 
ATOM      9  C   UNL     1      -2.002  -9.084  -4.108  0.00  0.00    +0.001 A 
ATOM     10  C   UNL     1      -1.300  -9.352  -5.271  0.00  0.00    +0.002 A 
ATOM     11  C   UNL     1      -0.206  -8.599  -5.663  0.00  0.00    +0.026 A 
ATOM     12  C   UNL     1       0.167  -7.546  -4.831  0.00  0.00    +0.047 A 
ATOM     13  N   UNL     1       1.171  -6.625  -4.913  0.00  0.00    -0.356 N 
ATOM     14  C   UNL     1       1.119  -5.786  -3.832  0.00  0.00    +0.046 A 
ATOM     15  H   UNL     1       1.823  -6.572  -5.630  0.00  0.00    +0.166 HD
ATOM     16  C   UNL     1       2.051  -4.636  -3.540  0.00  0.00    +0.153 C 
ENDROOT
BRANCH  16  17
ATOM     17  C   UNL     1       3.404  -5.167  -3.140  0.00  0.00    -0.020 A 
ATOM     18  C   UNL     1       3.511  -6.070  -2.099  0.00  0.00    +0.008 A 
ATOM     19  C   UNL     1       4.751  -6.558  -1.731  0.00  0.00    +0.034 A 
ATOM     20  C   UNL     1       5.885  -6.143  -2.405  0.00  0.00    +0.144 A 
ATOM     21  C   UNL     1       5.778  -5.240  -3.448  0.00  0.00    +0.071 A 
ATOM     22  C   UNL     1       4.535  -4.756  -3.818  0.00  0.00    +0.028 A 
ATOM     23 CL   UNL     1       7.201  -4.718  -4.294  0.00  0.00    -0.081 Cl
BRANCH  20  24
ATOM     24  N   UNL     1       7.213  -6.665  -2.011  0.00  0.00    +0.058 N 
ATOM     25  O   UNL     1       7.306  -7.454  -1.100  0.00  0.00    -0.126 OA
ATOM     26  O   UNL     1       8.204  -6.302  -2.601  0.00  0.00    -0.126 OA
ENDBRANCH  20  24
ENDBRANCH  16  17
BRANCH   1  27
ATOM     27  C   UNL     1       0.839  -1.738  -1.328  0.00  0.00    +0.124 C 
BRANCH  27  28
ATOM     28  C   UNL     1       0.926  -0.239  -1.626  0.00  0.00    +0.168 C 
BRANCH  28  30
ATOM     29  C   UNL     1       0.390   1.913  -0.718  0.00  0.00    +0.194 C 
ATOM     30  O   UNL     1       0.359   0.496  -0.540  0.00  0.00    -0.382 OA
ENDBRANCH  28  30
ENDBRANCH  27  28
ENDBRANCH   1  27
TORSDOF 5
