REMARK  Name = ZINC01883323
REMARK  9 active torsions:
REMARK  status: ('A' for Active; 'I' for Inactive)
REMARK    1  A    between atoms: C_1  and  C_2
REMARK    2  A    between atoms: C_5  and  O_8
REMARK    3  A    between atoms: O_8  and  C_9
REMARK    4  A    between atoms: C_9  and  C_10
REMARK    5  A    between atoms: N_12  and  C_13
REMARK    6  A    between atoms: C_13  and  C_14
REMARK    7  A    between atoms: N_16  and  N_17
REMARK    8  A    between atoms: N_25  and  C_28
REMARK    9  A    between atoms: C_28  and  C_29
REMARK                            x       y       z     vdW  Elec       q    Type
REMARK                         _______ _______ _______ _____ _____    ______ ____
ROOT
ATOM      1  N   UNL     1       2.430   1.745  -0.012  0.00  0.00    -0.174 NA
ATOM      2  C   UNL     1       1.168   2.098   0.002  0.00  0.00    +0.153 C 
ATOM      3  C   UNL     1       0.615   3.473   0.014  0.00  0.00    +0.028 A 
ATOM      4  C   UNL     1       1.201   4.734   0.015  0.00  0.00    +0.012 A 
ATOM      5  C   UNL     1       0.402   5.860   0.029  0.00  0.00    +0.001 A 
ATOM      6  C   UNL     1      -0.977   5.732   0.041  0.00  0.00    +0.002 A 
ATOM      7  C   UNL     1      -1.567   4.485   0.040  0.00  0.00    +0.024 A 
ATOM      8  C   UNL     1      -0.779   3.339   0.027  0.00  0.00    +0.046 A 
ATOM      9  N   UNL     1      -1.111   1.989   0.018  0.00  0.00    -0.261 N 
ATOM     10  C   UNL     1      -0.014   1.213   0.009  0.00  0.00    +0.272 C 
ATOM     11  O   UNL     1       0.002  -0.004   0.002  0.00  0.00    -0.268 OA
ENDROOT
BRANCH   1  14
ATOM     12  C   UNL     1       4.075   0.025  -0.037  0.00  0.00    +0.249 C 
ATOM     13  O   UNL     1       4.942   0.873  -0.041  0.00  0.00    -0.272 OA
ATOM     14  N   UNL     1       2.777   0.388  -0.022  0.00  0.00    -0.205 N 
ATOM     15  H   UNL     1       2.084  -0.290  -0.019  0.00  0.00    +0.177 HD
BRANCH  12  16
ATOM     16  C   UNL     1       4.449  -1.435  -0.048  0.00  0.00    +0.202 C 
BRANCH  16  19
ATOM     17  C   UNL     1       6.476  -2.788  -0.075  0.00  0.00    +0.251 C 
ATOM     18  O   UNL     1       5.778  -3.780  -0.073  0.00  0.00    -0.272 OA
ATOM     19  N   UNL     1       5.908  -1.565  -0.063  0.00  0.00    -0.304 N 
ATOM     20  H   UNL     1       6.466  -0.772  -0.065  0.00  0.00    +0.149 HD
BRANCH  17  21
ATOM     21  C   UNL     1       7.976  -2.922  -0.090  0.00  0.00    +0.324 C 
BRANCH  21  22
ATOM     22  O   UNL     1       8.331  -4.306  -0.101  0.00  0.00    -0.483 OA
BRANCH  22  27
ATOM     23  C   UNL     1      13.827  -5.538  -0.161  0.00  0.00    +0.044 C 
ATOM     24  C   UNL     1      12.356  -5.208  -0.145  0.00  0.00    -0.050 A 
ATOM     25  C   UNL     1      11.421  -6.226  -0.141  0.00  0.00    +0.007 A 
ATOM     26  C   UNL     1      10.072  -5.927  -0.126  0.00  0.00    +0.046 A 
ATOM     27  C   UNL     1       9.657  -4.603  -0.116  0.00  0.00    +0.121 A 
ATOM     28  C   UNL     1      10.598  -3.584  -0.125  0.00  0.00    +0.046 A 
ATOM     29  C   UNL     1      11.945  -3.888  -0.134  0.00  0.00    +0.007 A 
ENDBRANCH  22  27
ENDBRANCH  21  22
ENDBRANCH  17  21
ENDBRANCH  16  19
ENDBRANCH  12  16
ENDBRANCH   1  14
BRANCH   9  30
ATOM     30  C   UNL     1      -2.484   1.477   0.020  0.00  0.00    +0.149 C 
BRANCH  30  31
ATOM     31  C   UNL     1      -2.949   1.295   1.442  0.00  0.00    -0.028 A 
ATOM     32  C   UNL     1      -3.581   2.333   2.101  0.00  0.00    +0.007 A 
ATOM     33  C   UNL     1      -4.008   2.167   3.405  0.00  0.00    +0.022 A 
ATOM     34  C   UNL     1      -3.803   0.961   4.052  0.00  0.00    +0.059 A 
ATOM     35  C   UNL     1      -3.171  -0.079   3.392  0.00  0.00    +0.060 A 
ATOM     36  C   UNL     1      -2.749   0.087   2.084  0.00  0.00    +0.026 A 
ATOM     37 CL   UNL     1      -2.914  -1.593   4.201  0.00  0.00    -0.082 Cl
ATOM     38 CL   UNL     1      -4.339   0.752   5.690  0.00  0.00    -0.082 Cl
ENDBRANCH  30  31
ENDBRANCH   9  30
TORSDOF 8
