REMARK  Name = ZINC09225333
REMARK  7 active torsions:
REMARK  status: ('A' for Active; 'I' for Inactive)
REMARK    1  A    between atoms: C_1  and  C_2
REMARK    2  A    between atoms: C_2  and  N_49
REMARK    3  A    between atoms: C_12  and  C_22
REMARK    4  A    between atoms: C_14  and  C_17
REMARK    5  A    between atoms: C_22  and  O_24
REMARK    6  A    between atoms: O_24  and  C_25
REMARK    7  A    between atoms: C_25  and  C_26
REMARK                            x       y       z     vdW  Elec       q    Type
REMARK                         _______ _______ _______ _____ _____    ______ ____
ROOT
ATOM      1  C   UNL     1       4.514   3.602   1.174  0.00  0.00    -0.060 C 
ATOM      2  C   UNL     1       3.646   3.061   0.033  0.00  0.00    +0.089 C 
ATOM      3  N   UNL     1       2.393   3.829  -0.005  0.00  0.00    -0.309 N 
ATOM      4  C   UNL     1       2.477   5.298  -0.034  0.00  0.00    +0.089 C 
ATOM      5  C   UNL     1       3.391   5.750   1.115  0.00  0.00    -0.060 C 
ATOM      6  C   UNL     1       1.186   3.198  -0.020  0.00  0.00    +0.175 C 
ATOM      7  N   UNL     1       1.132   1.876   0.001  0.00  0.00    -0.151 NA
ATOM      8  C   UNL     1      -0.014   1.211   0.009  0.00  0.00    +0.255 C 
ATOM      9  O   UNL     1       0.002  -0.004   0.002  0.00  0.00    -0.273 OA
ATOM     10  C   UNL     1      -1.338   1.931   0.019  0.00  0.00    +0.210 C 
ATOM     11  C   UNL     1      -1.164   3.305  -0.639  0.00  0.00    +0.132 C 
ATOM     12  N   UNL     1       0.034   3.932  -0.055  0.00  0.00    -0.310 N 
ATOM     13  H   UNL     1       0.006   4.837   0.294  0.00  0.00    +0.149 HD
ATOM     14  N   UNL     1       4.692   5.058   0.986  0.00  0.00    +0.382 N 
ATOM     15  H   UNL     1       5.068   5.229   0.046  0.00  0.00    -0.082 HD
ENDROOT
BRANCH  11  16
ATOM     16  C   UNL     1      -0.981   3.137  -2.125  0.00  0.00    +0.011 A 
ATOM     17  C   UNL     1      -1.881   3.315  -3.122  0.00  0.00    +0.013 A 
ATOM     18  C   UNL     1      -1.485   3.105  -4.429  0.00  0.00    +0.008 A 
ATOM     19  C   UNL     1      -0.210   2.715  -4.675  0.00  0.00    +0.045 A 
ATOM     20  S   UNL     1       0.478   2.643  -3.029  0.00  0.00    -0.100 S 
ENDBRANCH  11  16
BRANCH  14  22
ATOM     21  C   UNL     1       5.979   7.034   1.635  0.00  0.00    -0.017 C 
ATOM     22  C   UNL     1       5.644   5.583   1.987  0.00  0.00    -0.082 C 
ENDBRANCH  14  22
BRANCH  10  23
ATOM     23  C   UNL     1      -2.356   1.128  -0.749  0.00  0.00    +0.321 C 
ATOM     24  O   UNL     1      -2.896   1.605  -1.719  0.00  0.00    -0.250 OA
BRANCH  23  25
ATOM     25  O   UNL     1      -2.663  -0.118  -0.354  0.00  0.00    -0.464 OA
BRANCH  25  26
ATOM     26  C   UNL     1      -3.652  -0.833  -1.141  0.00  0.00    +0.229 C 
ATOM     27  C   UNL     1      -3.870  -2.225  -0.543  0.00  0.00    +0.048 C 
ENDBRANCH  25  26
ENDBRANCH  23  25
ENDBRANCH  10  23
TORSDOF 5
