REMARK  Name = ZINC12428554
REMARK  7 active torsions:
REMARK  status: ('A' for Active; 'I' for Inactive)
REMARK    1  A    between atoms: C_3  and  O_26
REMARK    2  A    between atoms: C_4  and  C_10
REMARK    3  A    between atoms: C_6  and  N_7
REMARK    4  A    between atoms: N_11  and  N_12
REMARK    5  A    between atoms: C_13  and  C_15
REMARK    6  A    between atoms: C_15  and  N_16
REMARK    7  A    between atoms: N_16  and  C_17
REMARK                            x       y       z     vdW  Elec       q    Type
REMARK                         _______ _______ _______ _____ _____    ______ ____
ROOT
ATOM      1  N   UNL     1       6.328   0.510   1.582  0.00  0.00    -0.206 N 
ATOM      2  C   UNL     1       7.321   0.530   0.672  0.00  0.00    +0.249 C 
ATOM      3  O   UNL     1       7.097   0.896  -0.463  0.00  0.00    -0.272 OA
ATOM      4  H   UNL     1       6.507   0.218   2.490  0.00  0.00    +0.177 HD
ENDROOT
BRANCH   1   6
ATOM      5  C   UNL     1       4.079   0.891   2.095  0.00  0.00    +0.142 C 
ATOM      6  N   UNL     1       5.036   0.911   1.218  0.00  0.00    -0.188 NA
BRANCH   5  10
ATOM      7  C   UNL     1       0.161   2.106   0.992  0.00  0.00    +0.036 A 
ATOM      8  C   UNL     1       1.175   2.130   0.052  0.00  0.00    +0.048 A 
ATOM      9  C   UNL     1       2.456   1.736   0.402  0.00  0.00    +0.126 A 
ATOM     10  C   UNL     1       2.720   1.313   1.712  0.00  0.00    +0.038 A 
ATOM     11  C   UNL     1       1.687   1.294   2.652  0.00  0.00    +0.045 A 
ATOM     12  C   UNL     1       0.417   1.689   2.287  0.00  0.00    +0.127 A 
BRANCH  12  13
ATOM     13  N   UNL     1      -0.676   1.667   3.284  0.00  0.00    +0.056 N 
ATOM     14  O   UNL     1      -1.791   2.013   2.967  0.00  0.00    -0.126 OA
ATOM     15  O   UNL     1      -0.456   1.303   4.416  0.00  0.00    -0.126 OA
ENDBRANCH  12  13
BRANCH   9  16
ATOM     16  O   UNL     1       3.452   1.759  -0.521  0.00  0.00    -0.506 OA
ATOM     17  H   UNL     1       3.933   2.597  -0.559  0.00  0.00    +0.292 HD
ENDBRANCH   9  16
ENDBRANCH   5  10
ENDBRANCH   1   6
BRANCH   2  18
ATOM     18  C   UNL     1       8.711   0.099   1.063  0.00  0.00    +0.199 C 
BRANCH  18  19
ATOM     19  N   UNL     1       9.602   0.211  -0.095  0.00  0.00    -0.334 N 
ATOM     20  H   UNL     1       9.274   0.594  -0.923  0.00  0.00    +0.147 HD
BRANCH  19  21
ATOM     21  C   UNL     1      10.924  -0.234  -0.005  0.00  0.00    +0.056 A 
ATOM     22  C   UNL     1      11.240  -1.547  -0.329  0.00  0.00    +0.041 A 
ATOM     23  C   UNL     1      12.549  -1.984  -0.240  0.00  0.00    +0.037 A 
ATOM     24  C   UNL     1      13.543  -1.115   0.172  0.00  0.00    +0.043 A 
ATOM     25  C   UNL     1      13.232   0.194   0.495  0.00  0.00    +0.037 A 
ATOM     26  C   UNL     1      11.926   0.638   0.402  0.00  0.00    +0.041 A 
ATOM     27 BR   UNL     1      11.503   2.430   0.837  0.00  0.00    -0.048 Br
ATOM     28 CL   UNL     1      15.185  -1.667   0.283  0.00  0.00    -0.083 Cl
ATOM     29 BR   UNL     1       9.882  -2.737  -0.890  0.00  0.00    -0.048 Br
ENDBRANCH  19  21
ENDBRANCH  18  19
ENDBRANCH   2  18
TORSDOF 7
