REMARK  Name = ZINC14461335
REMARK  6 active torsions:
REMARK  status: ('A' for Active; 'I' for Inactive)
REMARK    1  A    between atoms: C_4  and  C_7
REMARK    2  A    between atoms: C_7  and  C_8
REMARK    3  A    between atoms: C_8  and  C_9
REMARK    4  A    between atoms: N_11  and  C_12
REMARK    5  A    between atoms: C_25  and  C_28
REMARK    6  A    between atoms: C_33  and  O_34
REMARK                            x       y       z     vdW  Elec       q    Type
REMARK                         _______ _______ _______ _____ _____    ______ ____
ROOT
ATOM      1  C   UNL     1      -0.071   0.248  -4.703  0.00  0.00    +0.034 A 
ATOM      2  C   UNL     1       1.294   0.002  -4.634  0.00  0.00    +0.025 A 
ATOM      3  C   UNL     1       1.989   0.276  -3.474  0.00  0.00    +0.025 A 
ATOM      4  C   UNL     1       1.332   0.800  -2.368  0.00  0.00    +0.031 A 
ATOM      5  C   UNL     1      -0.041   1.058  -2.445  0.00  0.00    -0.018 A 
ATOM      6  C   UNL     1      -0.733   0.777  -3.603  0.00  0.00    +0.029 A 
ATOM      7  C   UNL     1      -0.692   1.654  -1.258  0.00  0.00    +0.049 C 
ATOM      8  C   UNL     1      -2.137   1.441  -0.987  0.00  0.00    -0.023 C 
ATOM      9  C   UNL     1      -2.326   1.437   0.327  0.00  0.00    -0.030 C 
ATOM     10  C   UNL     1      -0.968   1.617   1.068  0.00  0.00    +0.033 C 
ATOM     11  C   UNL     1      -0.002   1.068   0.010  0.00  0.00    +0.029 C 
ATOM     12  C   UNL     1       1.408   1.631   0.000  0.00  0.00    +0.108 C 
ATOM     13  N   UNL     1       2.059   1.054  -1.196  0.00  0.00    -0.336 N 
ATOM     14  H   UNL     1       3.007   0.847  -1.169  0.00  0.00    +0.147 HD
ENDROOT
BRANCH  12  15
ATOM     15  C   UNL     1       1.367   3.134  -0.101  0.00  0.00    +0.015 A 
ATOM     16  C   UNL     1       1.482   3.748  -1.334  0.00  0.00    +0.024 A 
ATOM     17  C   UNL     1       1.440   5.127  -1.427  0.00  0.00    +0.018 A 
ATOM     18  C   UNL     1       1.293   5.896  -0.286  0.00  0.00    +0.019 A 
ATOM     19  C   UNL     1       1.184   5.287   0.948  0.00  0.00    +0.047 A 
ATOM     20  C   UNL     1       1.220   3.903   1.044  0.00  0.00    +0.122 A 
ATOM     21 BR   UNL     1       1.591   5.964  -3.117  0.00  0.00    -0.050 Br
BRANCH  20  22
ATOM     22  O   UNL     1       1.113   3.302   2.258  0.00  0.00    -0.506 OA
ATOM     23  H   UNL     1       1.960   3.158   2.702  0.00  0.00    +0.292 HD
ENDBRANCH  20  22
ENDBRANCH  12  15
BRANCH   1  26
ATOM     24  C   UNL     1      -0.188   0.140  -7.078  0.00  0.00    +0.218 C 
ATOM     25  O   UNL     1       0.980   0.462  -7.139  0.00  0.00    -0.275 OA
ATOM     26  N   UNL     1      -0.777  -0.036  -5.879  0.00  0.00    -0.285 N 
ATOM     27  H   UNL     1      -1.691  -0.359  -5.830  0.00  0.00    +0.155 HD
BRANCH  24  28
ATOM     28  C   UNL     1      -0.980  -0.065  -8.344  0.00  0.00    +0.101 C 
BRANCH  28  29
ATOM     29  C   UNL     1      -0.082   0.195  -9.555  0.00  0.00    +0.044 C 
BRANCH  29  33
ATOM     30  C   UNL     1      -2.325  -0.386 -13.144  0.00  0.00    +0.000 A 
ATOM     31  C   UNL     1      -2.281   0.862 -12.550  0.00  0.00    +0.000 A 
ATOM     32  C   UNL     1      -1.555   1.050 -11.389  0.00  0.00    +0.003 A 
ATOM     33  C   UNL     1      -0.874  -0.010 -10.821  0.00  0.00    -0.047 A 
ATOM     34  C   UNL     1      -0.914  -1.256 -11.417  0.00  0.00    +0.003 A 
ATOM     35  C   UNL     1      -1.643  -1.445 -12.576  0.00  0.00    +0.000 A 
ENDBRANCH  29  33
ENDBRANCH  28  29
ENDBRANCH  24  28
ENDBRANCH   1  26
TORSDOF 6
