REMARK  Name = ZINC65284267
REMARK  5 active torsions:
REMARK  status: ('A' for Active; 'I' for Inactive)
REMARK    1  A    between atoms: C_1  and  C_2
REMARK    2  A    between atoms: C_5  and  N_11
REMARK    3  A    between atoms: N_11  and  C_12
REMARK    4  A    between atoms: N_20  and  C_21
REMARK    5  A    between atoms: C_21  and  C_22
REMARK                            x       y       z     vdW  Elec       q    Type
REMARK                         _______ _______ _______ _____ _____    ______ ____
ROOT
ATOM      1  C   UNL     1       0.050  -4.456  -3.642  0.00  0.00    +0.073 C 
ATOM      2  C   UNL     1       1.492  -4.942  -3.806  0.00  0.00    +0.041 C 
ATOM      3  C   UNL     1       1.496  -6.265  -4.579  0.00  0.00    +0.111 C 
ATOM      4  N   UNL     1       0.775  -6.075  -5.845  0.00  0.00    -0.286 N 
ATOM      5  C   UNL     1      -0.587  -5.527  -5.807  0.00  0.00    +0.111 C 
ATOM      6  C   UNL     1      -0.567  -4.212  -5.021  0.00  0.00    +0.041 C 
ATOM      7  C   UNL     1       1.353  -6.398  -7.019  0.00  0.00    +0.303 C 
ATOM      8  O   UNL     1       2.514  -6.761  -7.046  0.00  0.00    -0.253 OA
ATOM      9  N   UNL     1       0.645  -6.319  -8.163  0.00  0.00    -0.292 N 
ATOM     10  H   UNL     1      -0.256  -5.961  -8.152  0.00  0.00    +0.151 HD
ENDROOT
BRANCH   1  11
ATOM     11  N   UNL     1       0.040  -3.208  -2.875  0.00  0.00    -0.338 N 
ATOM     12  H   UNL     1       0.030  -2.355  -3.337  0.00  0.00    +0.146 HD
BRANCH  11  17
ATOM     13  C   UNL     1       0.005   1.497   0.021  0.00  0.00    +0.090 C 
ATOM     14  C   UNL     1       0.019  -0.010   0.011  0.00  0.00    +0.149 A 
ATOM     15  N   UNL     1       0.023  -0.766  -1.077  0.00  0.00    -0.210 NA
ATOM     16  C   UNL     1       0.037  -2.048  -0.731  0.00  0.00    +0.177 A 
ATOM     17  C   UNL     1       0.046  -3.246  -1.480  0.00  0.00    +0.072 A 
ATOM     18  C   UNL     1       0.061  -4.444  -0.819  0.00  0.00    +0.028 A 
ATOM     19  C   UNL     1       0.066  -4.461   0.583  0.00  0.00    +0.022 A 
ATOM     20  C   UNL     1       0.056  -3.302   1.278  0.00  0.00    +0.115 A 
ATOM     21  N   UNL     1       0.042  -2.104   0.633  0.00  0.00    -0.218 N 
ATOM     22  N   UNL     1       0.036  -0.774   1.078  0.00  0.00    -0.150 NA
ENDBRANCH  11  17
ENDBRANCH   1  11
BRANCH   9  23
ATOM     23  C   UNL     1       1.238  -6.773  -9.424  0.00  0.00    +0.180 C 
BRANCH  23  24
ATOM     24  C   UNL     1       0.247  -6.577 -10.543  0.00  0.00    +0.122 A 
ATOM     25  C   UNL     1       0.129  -5.476 -11.306  0.00  0.00    +0.046 A 
ATOM     26  C   UNL     1      -0.917  -5.723 -12.223  0.00  0.00    +0.041 A 
ATOM     27  C   UNL     1      -1.376  -6.962 -11.967  0.00  0.00    +0.195 A 
ATOM     28  O   UNL     1      -0.663  -7.476 -10.952  0.00  0.00    -0.466 OA
ENDBRANCH  23  24
ENDBRANCH   9  23
TORSDOF 4
