REMARK  Name = ZINC40384235
REMARK  11 active torsions:
REMARK  status: ('A' for Active; 'I' for Inactive)
REMARK    1  A    between atoms: C_1  and  C_2
REMARK    2  A    between atoms: C_2  and  O_3
REMARK    3  A    between atoms: O_3  and  N_4
REMARK    4  A    between atoms: C_5  and  C_7
REMARK    5  A    between atoms: C_7  and  N_8
REMARK    6  A    between atoms: C_11  and  C_15
REMARK    7  A    between atoms: N_13  and  C_14
REMARK    8  A    between atoms: C_15  and  C_16
REMARK    9  A    between atoms: C_15  and  C_17
REMARK   10  A    between atoms: C_15  and  C_18
REMARK   11  A    between atoms: C_19  and  C_25
REMARK                            x       y       z     vdW  Elec       q    Type
REMARK                         _______ _______ _______ _____ _____    ______ ____
ROOT
ATOM      1  N   UNL     1       5.249  -4.206   0.349  0.00  0.00    -0.246 N 
ATOM      2  C   UNL     1       5.941  -4.550   1.521  0.00  0.00    +0.131 A 
ATOM      3  C   UNL     1       5.952  -3.788   2.639  0.00  0.00    +0.033 A 
ATOM      4  C   UNL     1       6.729  -4.442   3.595  0.00  0.00    +0.075 A 
ATOM      5  N   UNL     1       7.172  -5.557   3.065  0.00  0.00    -0.174 NA
ATOM      6  N   UNL     1       6.687  -5.646   1.751  0.00  0.00    -0.253 N 
ATOM      7  C   UNL     1       6.946  -6.732   0.803  0.00  0.00    +0.174 C 
ATOM      8  C   UNL     1       5.242  -2.467   2.788  0.00  0.00    +0.112 C 
ATOM      9  S   UNL     1       3.446  -2.782   2.934  0.00  0.00    -0.138 S 
ATOM     10  C   UNL     1       3.196  -4.104   1.701  0.00  0.00    +0.166 C 
ATOM     11  C   UNL     1       3.975  -3.813   0.453  0.00  0.00    +0.231 C 
ATOM     12  O   UNL     1       3.448  -3.223  -0.467  0.00  0.00    -0.274 OA
ENDROOT
BRANCH   8  13
ATOM     13  C   UNL     1       5.737  -1.762   4.025  0.00  0.00    -0.023 A 
ATOM     14  C   UNL     1       5.083  -1.920   5.232  0.00  0.00    +0.012 A 
ATOM     15  C   UNL     1       5.554  -1.273   6.325  0.00  0.00    +0.045 A 
ATOM     16  S   UNL     1       6.966  -0.406   5.660  0.00  0.00    -0.105 S 
ATOM     17  C   UNL     1       6.835  -0.969   3.971  0.00  0.00    +0.050 A 
ENDBRANCH   8  13
BRANCH   4  18
ATOM     18  C   UNL     1       7.012  -3.953   4.992  0.00  0.00    +0.007 C 
ATOM     19  C   UNL     1       5.691  -3.722   5.729  0.00  0.00    +0.017 C 
ATOM     20  C   UNL     1       7.838  -5.000   5.742  0.00  0.00    +0.017 C 
ATOM     21  C   UNL     1       7.793  -2.639   4.924  0.00  0.00    +0.017 C 
ENDBRANCH   4  18
BRANCH   1  22
ATOM     22  C   UNL     1       5.909  -4.271  -0.957  0.00  0.00    +0.212 C 
BRANCH  22  24
ATOM     23  N   UNL     1       7.234  -2.772  -2.411  0.00  0.00    -0.193 N 
ATOM     24  C   UNL     1       6.563  -2.946  -1.256  0.00  0.00    +0.253 C 
ATOM     25  O   UNL     1       6.485  -2.038  -0.456  0.00  0.00    -0.272 OA
ATOM     26  H   UNL     1       7.296  -3.498  -3.051  0.00  0.00    +0.182 HD
BRANCH  23  27
ATOM     27  O   UNL     1       7.849  -1.527  -2.692  0.00  0.00    -0.280 OA
BRANCH  27  29
ATOM     28  C   UNL     1       9.148  -0.100  -4.146  0.00  0.00    +0.036 C 
ATOM     29  C   UNL     1       8.525  -1.483  -3.950  0.00  0.00    +0.187 C 
ENDBRANCH  27  29
ENDBRANCH  23  27
ENDBRANCH  22  24
ENDBRANCH   1  22
TORSDOF 6
