REMARK  Name = ZINC12630316
REMARK  2 active torsions:
REMARK  status: ('A' for Active; 'I' for Inactive)
REMARK    1  A    between atoms: C_10  and  C_11
REMARK    2  A    between atoms: C_14  and  C_23
REMARK                            x       y       z     vdW  Elec       q    Type
REMARK                         _______ _______ _______ _____ _____    ______ ____
ROOT
ATOM      1  C   UNL     1       4.960   0.161  -0.046  0.00  0.00    +0.143 C 
ATOM      2  C   UNL     1       5.819  -0.285  -1.236  0.00  0.00    +0.058 C 
ATOM      3  C   UNL     1       7.233   0.290  -1.099  0.00  0.00    +0.106 C 
ATOM      4  N   UNL     1       7.846  -0.256   0.127  0.00  0.00    -0.307 N 
ATOM      5  C   UNL     1       7.036  -0.293   1.255  0.00  0.00    +0.216 A 
ATOM      6  N   UNL     1       5.696  -0.097   1.192  0.00  0.00    -0.224 N 
ATOM      7  N   UNL     1       5.213  -0.197   2.498  0.00  0.00    -0.132 NA
ATOM      8  C   UNL     1       6.251  -0.441   3.267  0.00  0.00    +0.233 A 
ATOM      9  N   UNL     1       7.358  -0.502   2.503  0.00  0.00    -0.180 NA
ATOM     10  N   UNL     1       6.210  -0.613   4.652  0.00  0.00    -0.326 N 
ATOM     11  H   UNL     1       8.763  -0.572   0.145  0.00  0.00    +0.149 HD
ATOM     12  H   UNL     1       5.365  -0.555   5.123  0.00  0.00    +0.145 HD
ATOM     13  H   UNL     1       7.028  -0.790   5.143  0.00  0.00    +0.145 HD
ENDROOT
BRANCH   1  23
ATOM     14  C   UNL     1       0.007   1.310  -0.632  0.00  0.00    +0.001 A 
ATOM     15  C   UNL     1       1.192   2.044  -0.643  0.00  0.00    +0.001 A 
ATOM     16  C   UNL     1       2.394   1.436  -0.452  0.00  0.00    +0.009 A 
ATOM     17  C   UNL     1       2.446   0.048  -0.239  0.00  0.00    -0.013 A 
ATOM     18  C   UNL     1       1.241  -0.698  -0.227  0.00  0.00    -0.018 A 
ATOM     19  C   UNL     1       0.018  -0.035  -0.429  0.00  0.00    +0.008 A 
ATOM     20  C   UNL     1       1.292  -2.086  -0.014  0.00  0.00    +0.008 A 
ATOM     21  C   UNL     1       2.494  -2.694   0.178  0.00  0.00    +0.001 A 
ATOM     22  C   UNL     1       3.679  -1.960   0.167  0.00  0.00    +0.006 A 
ATOM     23  C   UNL     1       3.668  -0.615  -0.037  0.00  0.00    -0.015 A 
ENDBRANCH   1  23
BRANCH   3  24
ATOM     24  C   UNL     1       7.161   1.793  -1.007  0.00  0.00    -0.027 A 
ATOM     25  C   UNL     1       6.843   2.397   0.195  0.00  0.00    +0.006 A 
ATOM     26  C   UNL     1       6.778   3.775   0.280  0.00  0.00    +0.015 A 
ATOM     27  C   UNL     1       7.031   4.549  -0.838  0.00  0.00    +0.018 A 
ATOM     28  C   UNL     1       7.349   3.944  -2.040  0.00  0.00    +0.015 A 
ATOM     29  C   UNL     1       7.419   2.566  -2.123  0.00  0.00    +0.006 A 
ATOM     30 BR   UNL     1       6.941   6.435  -0.722  0.00  0.00    -0.050 Br
ENDBRANCH   3  24
TORSDOF 2
