REMARK  Name = ZINC23153572
REMARK  4 active torsions:
REMARK  status: ('A' for Active; 'I' for Inactive)
REMARK    1  A    between atoms: C_3  and  C_19
REMARK    2  A    between atoms: C_6  and  C_7
REMARK    3  A    between atoms: C_7  and  N_8
REMARK    4  A    between atoms: C_12  and  C_14
REMARK                            x       y       z     vdW  Elec       q    Type
REMARK                         _______ _______ _______ _____ _____    ______ ____
ROOT
ATOM      1  C   UNL     1       1.230  -2.068  -0.036  0.00  0.00    +0.002 A 
ATOM      2  C   UNL     1       1.219  -0.689  -0.025  0.00  0.00    +0.012 A 
ATOM      3  C   UNL     1       0.002  -0.004  -0.010  0.00  0.00    +0.017 A 
ATOM      4  C   UNL     1      -1.196  -0.722  -0.001  0.00  0.00    +0.012 A 
ATOM      5  C   UNL     1      -1.170  -2.101  -0.018  0.00  0.00    +0.002 A 
ATOM      6  C   UNL     1       0.040  -2.773  -0.034  0.00  0.00    -0.064 A 
ENDROOT
BRANCH   3   7
ATOM      7  C   UNL     1      -0.018   1.473   0.002  0.00  0.00    +0.141 A 
ATOM      8  N   UNL     1      -1.214   2.127   0.017  0.00  0.00    -0.307 N 
ATOM      9  C   UNL     1      -1.233   3.476   0.040  0.00  0.00    +0.253 A 
ATOM     10  O   UNL     1      -2.293   4.080   0.061  0.00  0.00    -0.268 OA
ATOM     11  C   UNL     1      -0.007   4.178   0.027  0.00  0.00    +0.021 A 
ATOM     12  C   UNL     1       1.153   3.472   0.006  0.00  0.00    +0.048 A 
ATOM     13  N   UNL     1       1.118   2.135  -0.001  0.00  0.00    -0.234 NA
ATOM     14  C   UNL     1       2.496   4.155   0.008  0.00  0.00    +0.037 C 
ATOM     15  C   UNL     1       2.337   5.621  -0.394  0.00  0.00    -0.076 C 
ATOM     16  N   UNL     1       1.272   6.218   0.427  0.00  0.00    +0.382 N 
ATOM     17  C   UNL     1      -0.035   5.681   0.030  0.00  0.00    -0.039 C 
ATOM     18  H   UNL     1       1.451   5.984   1.487  0.00  0.00    -0.085 HD
ATOM     19  H   UNL     1       1.270   7.310   0.288  0.00  0.00    -0.085 HD
ATOM     20  H   UNL     1      -2.154   1.556   0.010  0.00  0.00    +0.170 HD
ENDBRANCH   3   7
BRANCH   6  21
ATOM     21  C   UNL     1       0.060  -4.280  -0.046  0.00  0.00    -0.042 C 
BRANCH  21  22
ATOM     22  N   UNL     1       0.077  -4.781   1.335  0.00  0.00    +0.388 N 
ATOM     23  C   UNL     1       1.416  -4.598   1.951  0.00  0.00    -0.077 C 
ATOM     24  C   UNL     1       1.448  -5.608   3.118  0.00  0.00    -0.020 C 
ATOM     25  C   UNL     1       0.422  -6.694   2.736  0.00  0.00    -0.010 C 
ATOM     26  C   UNL     1      -0.144  -6.250   1.371  0.00  0.00    -0.011 C 
ATOM     27  H   UNL     1      -0.712  -4.219   1.856  0.00  0.00    -0.080 HD
BRANCH  26  28
ATOM     28  C   UNL     1      -1.615  -6.562   1.285  0.00  0.00    +0.065 A 
ATOM     29  N   UNL     1      -2.616  -6.006   1.929  0.00  0.00    -0.254 NA
ATOM     30  C   UNL     1      -3.858  -6.396   1.735  0.00  0.00    +0.118 A 
ATOM     31  C   UNL     1      -4.089  -7.404   0.856  0.00  0.00    +0.066 A 
ATOM     32  S   UNL     1      -2.422  -7.755   0.315  0.00  0.00    -0.082 S 
ENDBRANCH  26  28
ENDBRANCH  21  22
ENDBRANCH   6  21
TORSDOF 4
