REMARK  Name = ZINC31040360
REMARK  6 active torsions:
REMARK  status: ('A' for Active; 'I' for Inactive)
REMARK    1  A    between atoms: C_4  and  C_7
REMARK    2  A    between atoms: C_7  and  C_8
REMARK    3  A    between atoms: C_8  and  C_10
REMARK    4  A    between atoms: C_8  and  N_20
REMARK    5  A    between atoms: C_21  and  C_23
REMARK    6  A    between atoms: C_23  and  N_24
REMARK                            x       y       z     vdW  Elec       q    Type
REMARK                         _______ _______ _______ _____ _____    ______ ____
ROOT
ATOM      1  N   UNL     1      -1.570  -4.266  -3.538  0.00  0.00    -0.304 N 
ATOM      2  C   UNL     1      -1.217  -3.413  -2.557  0.00  0.00    +0.232 C 
ATOM      3  O   UNL     1      -0.420  -3.758  -1.710  0.00  0.00    -0.274 OA
ATOM      4  H   UNL     1      -2.293  -3.954  -4.306  0.00  0.00    +0.149 HD
ENDROOT
BRANCH   1   5
ATOM      5  C   UNL     1      -0.990  -5.611  -3.582  0.00  0.00    +0.143 C 
BRANCH   5   6
ATOM      6  C   UNL     1      -1.787  -6.531  -2.693  0.00  0.00    +0.129 A 
ATOM      7  N   UNL     1      -1.313  -7.131  -1.568  0.00  0.00    -0.340 N 
ATOM      8  H   UNL     1      -0.275  -6.958  -1.248  0.00  0.00    +0.167 HD
ATOM      9  C   UNL     1      -2.341  -7.886  -1.041  0.00  0.00    +0.066 A 
ATOM     10  C   UNL     1      -2.467  -8.706   0.073  0.00  0.00    +0.028 A 
ATOM     11  C   UNL     1      -3.667  -9.336   0.325  0.00  0.00    +0.002 A 
ATOM     12  C   UNL     1      -4.748  -9.157  -0.526  0.00  0.00    +0.002 A 
ATOM     13  C   UNL     1      -4.643  -8.354  -1.626  0.00  0.00    +0.030 A 
ATOM     14  C   UNL     1      -3.437  -7.705  -1.902  0.00  0.00    +0.089 A 
ATOM     15  N   UNL     1      -3.030  -6.863  -2.887  0.00  0.00    -0.231 NA
ENDBRANCH   5   6
BRANCH   5  16
ATOM     16  C   UNL     1      -1.026  -6.135  -5.019  0.00  0.00    +0.065 C 
BRANCH  16  20
ATOM     17  C   UNL     1       1.513  -3.730  -7.473  0.00  0.00    +0.000 A 
ATOM     18  C   UNL     1       2.023  -4.845  -6.835  0.00  0.00    +0.000 A 
ATOM     19  C   UNL     1       1.202  -5.623  -6.040  0.00  0.00    +0.004 A 
ATOM     20  C   UNL     1      -0.130  -5.286  -5.885  0.00  0.00    -0.045 A 
ATOM     21  C   UNL     1      -0.642  -4.175  -6.528  0.00  0.00    +0.004 A 
ATOM     22  C   UNL     1       0.181  -3.394  -7.318  0.00  0.00    +0.000 A 
ENDBRANCH  16  20
ENDBRANCH   5  16
ENDBRANCH   1   5
BRANCH   2  23
ATOM     23  C   UNL     1      -1.813  -2.029  -2.511  0.00  0.00    +0.213 C 
BRANCH  23  24
ATOM     24  N   UNL     1      -1.273  -1.303  -1.359  0.00  0.00    -0.215 N 
ATOM     25  C   UNL     1      -0.155  -0.544  -1.395  0.00  0.00    +0.251 C 
ATOM     26  O   UNL     1       0.566  -0.342  -2.348  0.00  0.00    -0.272 OA
ATOM     27  C   UNL     1       0.002  -0.004   0.002  0.00  0.00    +0.138 C 
ATOM     28  C   UNL     1      -0.019   1.530   0.011  0.00  0.00    +0.045 C 
ATOM     29  C   UNL     1       1.487   1.876  -0.002  0.00  0.00    +0.038 C 
ATOM     30  C   UNL     1       2.177   0.676   0.613  0.00  0.00    -0.042 A 
ATOM     31  C   UNL     1       1.317  -0.410   0.610  0.00  0.00    -0.012 A 
ATOM     32  C   UNL     1       1.744  -1.624   1.124  0.00  0.00    +0.006 A 
ATOM     33  C   UNL     1       3.018  -1.753   1.640  0.00  0.00    +0.000 A 
ATOM     34  C   UNL     1       3.874  -0.668   1.644  0.00  0.00    +0.000 A 
ATOM     35  C   UNL     1       3.453   0.543   1.131  0.00  0.00    +0.004 A 
ATOM     36  N   UNL     1      -1.133  -0.558   0.742  0.00  0.00    -0.281 N 
ATOM     37  C   UNL     1      -1.826  -1.307  -0.139  0.00  0.00    +0.310 C 
ATOM     38  O   UNL     1      -2.838  -1.919   0.142  0.00  0.00    -0.252 OA
ATOM     39  H   UNL     1      -1.264  -0.319   1.807  0.00  0.00    +0.152 HD
ENDBRANCH  23  24
ENDBRANCH   2  23
TORSDOF 6
