REMARK  Name = ZINC38691082
REMARK  9 active torsions:
REMARK  status: ('A' for Active; 'I' for Inactive)
REMARK    1  A    between atoms: C_1  and  C_2
REMARK    2  A    between atoms: C_2  and  C_4
REMARK    3  A    between atoms: C_2  and  N_23
REMARK    4  A    between atoms: N_6  and  C_7
REMARK    5  A    between atoms: C_11  and  C_13
REMARK    6  A    between atoms: C_13  and  O_15
REMARK    7  A    between atoms: O_15  and  C_16
REMARK    8  A    between atoms: C_20  and  O_21
REMARK    9  A    between atoms: O_21  and  C_22
REMARK                            x       y       z     vdW  Elec       q    Type
REMARK                         _______ _______ _______ _____ _____    ______ ____
ROOT
ATOM      1  C   UNL     1       0.755  -0.009   1.657  0.00  0.00    +0.203 C 
ATOM      2  O   UNL     1       1.469  -0.885   1.218  0.00  0.00    -0.277 OA
ATOM      3  N   UNL     1       0.721   0.233   2.982  0.00  0.00    -0.287 N 
ATOM      4  H   UNL     1       0.094   0.881   3.341  0.00  0.00    +0.155 HD
ENDROOT
BRANCH   3   5
ATOM      5  C   UNL     1       1.567  -0.432   3.818  0.00  0.00    +0.056 C 
ATOM      6  C   UNL     1       1.575  -0.393   5.197  0.00  0.00    +0.059 A 
ATOM      7  C   UNL     1       2.658  -1.263   5.692  0.00  0.00    +0.048 A 
ATOM      8  N   UNL     1       3.296  -1.819   4.682  0.00  0.00    -0.367 N 
ATOM      9  C   UNL     1       2.687  -1.370   3.426  0.00  0.00    +0.234 C 
ATOM     10  C   UNL     1       2.841  -1.367   7.093  0.00  0.00    +0.026 A 
ATOM     11  C   UNL     1       2.039  -0.683   7.945  0.00  0.00    +0.006 A 
ATOM     12  C   UNL     1       1.010   0.146   7.506  0.00  0.00    +0.046 A 
ATOM     13  C   UNL     1       0.749   0.316   6.176  0.00  0.00    +0.131 A 
ATOM     14  H   UNL     1       4.046  -2.430   4.757  0.00  0.00    +0.161 HD
BRANCH   9  15
ATOM     15  C   UNL     1       3.706  -0.641   2.589  0.00  0.00    +0.335 C 
ATOM     16  O   UNL     1       4.628  -0.070   3.122  0.00  0.00    -0.248 OA
BRANCH  15  17
ATOM     17  O   UNL     1       3.590  -0.625   1.252  0.00  0.00    -0.466 OA
ATOM     18  C   UNL     1       4.592   0.086   0.522  0.00  0.00    +0.280 C 
ENDBRANCH  15  17
ENDBRANCH   9  15
BRANCH  13  19
ATOM     19  O   UNL     1      -0.258   1.126   5.770  0.00  0.00    -0.494 OA
ATOM     20  C   UNL     1      -1.016   1.781   6.789  0.00  0.00    +0.277 C 
ENDBRANCH  13  19
ENDBRANCH   3   5
BRANCH   1  22
ATOM     21  C   UNL     1       0.293   2.285   0.836  0.00  0.00    -0.004 C 
ATOM     22  C   UNL     1      -0.095   0.810   0.719  0.00  0.00    +0.017 C 
BRANCH  22  23
ATOM     23  N   UNL     1       0.120   0.354  -0.661  0.00  0.00    +0.390 N 
ATOM     24  C   UNL     1      -0.599   1.240  -1.589  0.00  0.00    -0.073 C 
ATOM     25  C   UNL     1      -0.122   0.945  -3.012  0.00  0.00    +0.017 C 
ATOM     26  C   UNL     1      -0.201  -0.536  -3.280  0.00  0.00    -0.048 A 
ATOM     27  C   UNL     1      -0.149  -0.978  -4.593  0.00  0.00    +0.004 A 
ATOM     28  C   UNL     1      -0.214  -2.328  -4.876  0.00  0.00    +0.000 A 
ATOM     29  C   UNL     1      -0.332  -3.242  -3.846  0.00  0.00    +0.000 A 
ATOM     30  C   UNL     1      -0.385  -2.803  -2.538  0.00  0.00    +0.002 A 
ATOM     31  C   UNL     1      -0.321  -1.447  -2.252  0.00  0.00    -0.061 A 
ATOM     32  C   UNL     1      -0.391  -1.011  -0.812  0.00  0.00    -0.042 C 
ATOM     33  H   UNL     1       1.107   0.371  -0.872  0.00  0.00    -0.080 HD
ENDBRANCH  22  23
ENDBRANCH   1  22
TORSDOF 6
