REMARK  Name = ZINC36576536
REMARK  9 active torsions:
REMARK  status: ('A' for Active; 'I' for Inactive)
REMARK    1  A    between atoms: C_1  and  O_2
REMARK    2  A    between atoms: O_2  and  C_3
REMARK    3  A    between atoms: C_3  and  C_5
REMARK    4  A    between atoms: C_5  and  C_7
REMARK    5  A    between atoms: C_5  and  N_11
REMARK    6  A    between atoms: C_7  and  C_8
REMARK    7  A    between atoms: C_8  and  S_9
REMARK    8  A    between atoms: S_9  and  C_10
REMARK    9  A    between atoms: C_23  and  C_25
REMARK                            x       y       z     vdW  Elec       q    Type
REMARK                         _______ _______ _______ _____ _____    ______ ____
ROOT
ATOM      1  N   UNL     1       3.343  -2.298  -1.286  0.00  0.00    -0.286 N 
ATOM      2  C   UNL     1       2.668  -2.583  -2.417  0.00  0.00    +0.304 C 
ATOM      3  O   UNL     1       1.452  -2.605  -2.411  0.00  0.00    -0.253 OA
ATOM      4  N   UNL     1       3.341  -2.844  -3.555  0.00  0.00    -0.273 N 
ATOM      5  C   UNL     1       2.626  -3.040  -4.825  0.00  0.00    +0.116 C 
ATOM      6  C   UNL     1       3.013  -1.919  -5.798  0.00  0.00    +0.074 C 
ATOM      7  C   UNL     1       4.506  -1.730  -5.751  0.00  0.00    +0.040 A 
ATOM      8  C   UNL     1       5.310  -2.175  -4.761  0.00  0.00    +0.062 A 
ATOM      9  N   UNL     1       6.564  -1.823  -5.053  0.00  0.00    -0.348 N 
ATOM     10  C   UNL     1       6.572  -1.178  -6.191  0.00  0.00    +0.171 A 
ATOM     11  N   UNL     1       5.305  -1.101  -6.657  0.00  0.00    -0.349 N 
ATOM     12  H   UNL     1       5.019  -0.677  -7.482  0.00  0.00    +0.166 HD
ATOM     13  C   UNL     1       4.812  -2.934  -3.559  0.00  0.00    +0.158 C 
ATOM     14  H   UNL     1       4.311  -2.358  -1.270  0.00  0.00    +0.151 HD
ATOM     15  H   UNL     1       7.343  -2.016  -4.510  0.00  0.00    +0.167 HD
ENDROOT
BRANCH  13  16
ATOM     16  C   UNL     1       5.237  -4.377  -3.657  0.00  0.00    -0.001 A 
ATOM     17  C   UNL     1       4.920  -5.116  -4.781  0.00  0.00    +0.007 A 
ATOM     18  C   UNL     1       5.309  -6.439  -4.872  0.00  0.00    +0.002 A 
ATOM     19  C   UNL     1       6.017  -7.025  -3.839  0.00  0.00    +0.021 A 
ATOM     20  C   UNL     1       6.336  -6.287  -2.714  0.00  0.00    +0.060 A 
ATOM     21  C   UNL     1       5.951  -4.959  -2.625  0.00  0.00    +0.065 A 
ATOM     22 CL   UNL     1       6.357  -4.029  -1.217  0.00  0.00    -0.082 Cl
ATOM     23 CL   UNL     1       7.224  -7.022  -1.416  0.00  0.00    -0.082 Cl
ENDBRANCH  13  16
BRANCH   1  24
ATOM     24  C   UNL     1       2.614  -1.899  -0.079  0.00  0.00    +0.184 C 
BRANCH  24  25
ATOM     25  C   UNL     1       2.167  -3.129   0.668  0.00  0.00    +0.327 C 
ATOM     26  O   UNL     1       2.431  -4.227   0.237  0.00  0.00    -0.249 OA
BRANCH  25  28
ATOM     27  C   UNL     1       1.086  -4.213   2.468  0.00  0.00    +0.280 C 
ATOM     28  O   UNL     1       1.477  -3.005   1.813  0.00  0.00    -0.467 OA
ENDBRANCH  25  28
ENDBRANCH  24  25
BRANCH  24  29
ATOM     29  C   UNL     1       3.530  -1.062   0.816  0.00  0.00    +0.044 C 
BRANCH  29  30
ATOM     30  C   UNL     1       3.883   0.245   0.105  0.00  0.00    +0.071 C 
BRANCH  30  31
ATOM     31  S   UNL     1       4.968   1.238   1.167  0.00  0.00    -0.164 S 
ATOM     32  C   UNL     1       5.289   2.733   0.191  0.00  0.00    +0.084 C 
ENDBRANCH  30  31
ENDBRANCH  29  30
ENDBRANCH  24  29
ENDBRANCH   1  24
TORSDOF 7
