REMARK  Name = ZINC36597616
REMARK  16 active torsions:
REMARK  status: ('A' for Active; 'I' for Inactive)
REMARK    1  A    between atoms: C_1  and  C_2
REMARK    2  A    between atoms: C_5  and  C_7
REMARK    3  A    between atoms: C_7  and  N_8
REMARK    4  A    between atoms: N_8  and  C_9
REMARK    5  A    between atoms: C_9  and  C_11
REMARK    6  A    between atoms: C_9  and  C_20
REMARK    7  A    between atoms: C_14  and  N_17
REMARK    8  A    between atoms: N_17  and  C_18
REMARK    9  A    between atoms: N_17  and  C_19
REMARK   10  A    between atoms: N_22  and  C_23
REMARK   11  A    between atoms: C_23  and  C_24
REMARK   12  A    between atoms: C_23  and  C_25
REMARK   13  A    between atoms: C_23  and  C_26
REMARK   14  A    between atoms: C_27  and  C_29
REMARK   15  A    between atoms: C_30  and  O_36
REMARK   16  A    between atoms: C_34  and  O_35
REMARK                            x       y       z     vdW  Elec       q    Type
REMARK                         _______ _______ _______ _____ _____    ______ ____
ROOT
ATOM      1  N   UNL     1       3.537  -3.647  -1.673  0.00  0.00    -0.274 N 
ATOM      2  C   UNL     1       2.450  -3.806  -2.453  0.00  0.00    +0.255 C 
ATOM      3  O   UNL     1       1.946  -2.843  -2.999  0.00  0.00    -0.270 OA
ENDROOT
BRANCH   2   4
ATOM      4  C   UNL     1       1.871  -5.147  -2.643  0.00  0.00    +0.119 A 
ATOM      5  C   UNL     1       0.874  -5.615  -1.775  0.00  0.00    +0.133 A 
ATOM      6  C   UNL     1       0.336  -6.878  -1.964  0.00  0.00    +0.046 A 
ATOM      7  C   UNL     1       0.778  -7.675  -3.003  0.00  0.00    +0.007 A 
ATOM      8  C   UNL     1       1.761  -7.223  -3.864  0.00  0.00    +0.046 A 
ATOM      9  C   UNL     1       2.309  -5.962  -3.697  0.00  0.00    +0.133 A 
BRANCH   9  10
ATOM     10  O   UNL     1       3.268  -5.518  -4.547  0.00  0.00    -0.506 OA
ATOM     11  H   UNL     1       4.170  -5.733  -4.270  0.00  0.00    +0.292 HD
ENDBRANCH   9  10
BRANCH   5  12
ATOM     12  O   UNL     1       0.438  -4.835  -0.755  0.00  0.00    -0.506 OA
ATOM     13  H   UNL     1      -0.308  -4.266  -0.986  0.00  0.00    +0.292 HD
ENDBRANCH   5  12
ENDBRANCH   2   4
BRANCH   1  14
ATOM     14  C   UNL     1       4.144  -4.806  -1.015  0.00  0.00    +0.183 C 
BRANCH  14  19
ATOM     15  C   UNL     1       2.115  -4.210   3.564  0.00  0.00    +0.086 C 
ATOM     16  C   UNL     1       2.526  -4.840   2.258  0.00  0.00    +0.102 A 
ATOM     17  C   UNL     1       2.254  -6.099   1.872  0.00  0.00    +0.045 A 
ATOM     18  C   UNL     1       2.822  -6.267   0.589  0.00  0.00    +0.046 A 
ATOM     19  C   UNL     1       3.407  -5.099   0.267  0.00  0.00    +0.122 A 
ATOM     20  O   UNL     1       3.219  -4.237   1.279  0.00  0.00    -0.463 OA
ENDBRANCH  14  19
ENDBRANCH   1  14
BRANCH   1  21
ATOM     21  C   UNL     1       4.113  -2.313  -1.484  0.00  0.00    +0.193 C 
BRANCH  21  22
ATOM     22  C   UNL     1       3.037  -1.361  -1.028  0.00  0.00    -0.018 A 
ATOM     23  C   UNL     1       2.177  -1.728  -0.009  0.00  0.00    +0.008 A 
ATOM     24  C   UNL     1       1.190  -0.859   0.410  0.00  0.00    +0.023 A 
ATOM     25  C   UNL     1       1.061   0.386  -0.192  0.00  0.00    +0.029 A 
ATOM     26  C   UNL     1       1.926   0.752  -1.216  0.00  0.00    +0.023 A 
ATOM     27  C   UNL     1       2.915  -0.120  -1.627  0.00  0.00    +0.008 A 
BRANCH  25  28
ATOM     28  N   UNL     1       0.063   1.268   0.230  0.00  0.00    -0.336 N 
ATOM     29  C   UNL     1      -0.725   0.964   1.426  0.00  0.00    +0.129 C 
ATOM     30  C   UNL     1      -0.195   2.497  -0.525  0.00  0.00    +0.129 C 
ENDBRANCH  25  28
ENDBRANCH  21  22
BRANCH  21  31
ATOM     31  C   UNL     1       5.200  -2.378  -0.441  0.00  0.00    +0.239 C 
ATOM     32  O   UNL     1       5.048  -3.059   0.551  0.00  0.00    -0.273 OA
ATOM     33  N   UNL     1       6.340  -1.680  -0.612  0.00  0.00    -0.309 N 
ATOM     34  H   UNL     1       6.461  -1.135  -1.405  0.00  0.00    +0.149 HD
BRANCH  33  35
ATOM     35  C   UNL     1       7.396  -1.744   0.402  0.00  0.00    +0.026 C 
ATOM     36  C   UNL     1       7.868  -3.191   0.555  0.00  0.00    +0.031 C 
ATOM     37  C   UNL     1       8.572  -0.866  -0.032  0.00  0.00    +0.031 C 
ATOM     38  C   UNL     1       6.850  -1.240   1.739  0.00  0.00    +0.031 C 
ENDBRANCH  33  35
ENDBRANCH  21  31
ENDBRANCH   1  21
TORSDOF 10
