REMARK  Name = ZINC37138144
REMARK  7 active torsions:
REMARK  status: ('A' for Active; 'I' for Inactive)
REMARK    1  A    between atoms: C_1  and  C_2
REMARK    2  A    between atoms: C_2  and  C_3
REMARK    3  A    between atoms: C_2  and  N_4
REMARK    4  A    between atoms: C_7  and  N_10
REMARK    5  A    between atoms: N_10  and  C_11
REMARK    6  A    between atoms: C_13  and  S_18
REMARK    7  A    between atoms: S_18  and  N_21
REMARK                            x       y       z     vdW  Elec       q    Type
REMARK                         _______ _______ _______ _____ _____    ______ ____
ROOT
ATOM      1  C   UNL     1       3.990  -3.578  -3.986  0.00  0.00    +0.048 A 
ATOM      2  C   UNL     1       4.026  -4.436  -2.895  0.00  0.00    +0.053 A 
ATOM      3  C   UNL     1       4.628  -5.674  -3.011  0.00  0.00    +0.107 A 
ATOM      4  C   UNL     1       5.196  -6.059  -4.212  0.00  0.00    +0.030 A 
ATOM      5  C   UNL     1       5.162  -5.208  -5.301  0.00  0.00    +0.024 A 
ATOM      6  C   UNL     1       4.556  -3.970  -5.194  0.00  0.00    +0.062 A 
ATOM      7 CL   UNL     1       4.508  -2.904  -6.563  0.00  0.00    -0.082 Cl
ENDROOT
BRANCH   3   8
ATOM      8  S   UNL     1       4.674  -6.764  -1.627  0.00  0.00    +0.056 S 
ATOM      9  O   UNL     1       5.773  -7.640  -1.836  0.00  0.00    -0.153 OA
ATOM     10  O   UNL     1       4.557  -5.951  -0.467  0.00  0.00    -0.153 OA
BRANCH   8  11
ATOM     11  N   UNL     1       3.307  -7.696  -1.692  0.00  0.00    -0.204 NA
ATOM     12  H   UNL     1       2.669  -7.571  -2.412  0.00  0.00    +0.144 HD
ATOM     13  H   UNL     1       3.144  -8.366  -1.010  0.00  0.00    +0.144 HD
ENDBRANCH   8  11
ENDBRANCH   3   8
BRANCH   1  14
ATOM     14  N   UNL     1       3.381  -2.325  -3.872  0.00  0.00    -0.340 N 
ATOM     15  H   UNL     1       3.353  -1.728  -4.636  0.00  0.00    +0.146 HD
BRANCH  14  19
ATOM     16  N   UNL     1       0.690  -0.478  -1.207  0.00  0.00    +0.381 N 
ATOM     17  C   UNL     1       2.064   0.038  -1.220  0.00  0.00    -0.077 C 
ATOM     18  C   UNL     1       2.759  -0.385  -2.516  0.00  0.00    +0.003 C 
ATOM     19  C   UNL     1       2.785  -1.914  -2.599  0.00  0.00    +0.067 C 
ATOM     20  C   UNL     1       1.352  -2.445  -2.509  0.00  0.00    +0.003 C 
ATOM     21  C   UNL     1       0.709  -1.946  -1.213  0.00  0.00    -0.077 C 
ATOM     22  H   UNL     1       0.200  -0.145  -2.023  0.00  0.00    -0.081 HD
BRANCH  16  24
ATOM     23  C   UNL     1      -0.019   1.526   0.010  0.00  0.00    -0.014 C 
ATOM     24  C   UNL     1       0.002  -0.004   0.002  0.00  0.00    -0.075 C 
ATOM     25  C   UNL     1      -1.433  -0.534   0.013  0.00  0.00    -0.014 C 
ENDBRANCH  16  24
ENDBRANCH  14  19
ENDBRANCH   1  14
TORSDOF 5
