REMARK  Name = ZINC51327658
REMARK  6 active torsions:
REMARK  status: ('A' for Active; 'I' for Inactive)
REMARK    1  A    between atoms: C_4  and  N_20
REMARK    2  A    between atoms: C_5  and  C_7
REMARK    3  A    between atoms: C_7  and  C_9
REMARK    4  A    between atoms: C_7  and  O_19
REMARK    5  A    between atoms: C_9  and  O_10
REMARK    6  A    between atoms: O_10  and  C_11
REMARK                            x       y       z     vdW  Elec       q    Type
REMARK                         _______ _______ _______ _____ _____    ______ ____
ROOT
ATOM      1  C   UNL     1       1.226  -2.187  -0.022  0.00  0.00    +0.184 C 
ENDROOT
BRANCH   1   6
ATOM      2  C   UNL     1      -0.017   1.378   0.010  0.00  0.00    +0.000 A 
ATOM      3  C   UNL     1       1.170   2.089   0.002  0.00  0.00    +0.002 A 
ATOM      4  C   UNL     1       2.377   1.420  -0.013  0.00  0.00    +0.023 A 
ATOM      5  C   UNL     1       2.400   0.031  -0.021  0.00  0.00    +0.030 A 
ATOM      6  C   UNL     1       1.207  -0.680  -0.013  0.00  0.00    +0.005 A 
ATOM      7  C   UNL     1       0.002  -0.004   0.002  0.00  0.00    +0.008 A 
BRANCH   5   8
ATOM      8  N   UNL     1       3.620  -0.649  -0.036  0.00  0.00    -0.358 N 
ATOM      9  H   UNL     1       4.452  -0.152  -0.042  0.00  0.00    +0.142 HD
ATOM     10  H   UNL     1       3.634  -1.619  -0.042  0.00  0.00    +0.142 HD
ENDBRANCH   5   8
ENDBRANCH   1   6
BRANCH   1  11
ATOM     11  O   UNL     1       0.017  -2.682   0.557  0.00  0.00    -0.384 OA
ATOM     12  H   UNL     1      -0.784  -2.404   0.091  0.00  0.00    +0.210 HD
ENDBRANCH   1  11
BRANCH   1  13
ATOM     13  C   UNL     1       1.344  -2.687  -1.463  0.00  0.00    +0.265 C 
BRANCH  13  14
ATOM     14  O   UNL     1       1.480  -4.109  -1.464  0.00  0.00    -0.488 OA
BRANCH  14  15
ATOM     15  C   UNL     1       1.597  -4.718  -2.674  0.00  0.00    +0.135 A 
ATOM     16  C   UNL     1       1.588  -3.960  -3.836  0.00  0.00    +0.048 A 
ATOM     17  C   UNL     1       1.708  -4.579  -5.064  0.00  0.00    +0.023 A 
ATOM     18  C   UNL     1       1.837  -5.955  -5.138  0.00  0.00    +0.042 A 
ATOM     19  C   UNL     1       1.846  -6.713  -3.980  0.00  0.00    +0.039 A 
ATOM     20  C   UNL     1       1.732  -6.097  -2.748  0.00  0.00    +0.061 A 
ATOM     21 BR   UNL     1       1.753  -7.132  -1.166  0.00  0.00    -0.046 Br
ATOM     22 CL   UNL     1       1.986  -6.731  -6.683  0.00  0.00    -0.084 Cl
ENDBRANCH  14  15
ENDBRANCH  13  14
ENDBRANCH   1  13
TORSDOF 6
