REMARK  Name = ZINC43570116
REMARK  4 active torsions:
REMARK  status: ('A' for Active; 'I' for Inactive)
REMARK    1  A    between atoms: C_1  and  C_2
REMARK    2  A    between atoms: C_4  and  N_11
REMARK    3  A    between atoms: C_7  and  N_8
REMARK    4  A    between atoms: N_11  and  C_12
REMARK                            x       y       z     vdW  Elec       q    Type
REMARK                         _______ _______ _______ _____ _____    ______ ____
ROOT
ATOM      1  N   UNL     1      -0.181  -2.771  -2.408  0.00  0.00    -0.336 N 
ATOM      2  H   UNL     1      -0.440  -2.303  -3.217  0.00  0.00    +0.147 HD
ENDROOT
BRANCH   1   3
ATOM      3  C   UNL     1       0.102  -4.208  -2.453  0.00  0.00    +0.111 C 
ATOM      4  C   UNL     1      -1.144  -4.963  -2.017  0.00  0.00    +0.096 C 
ATOM      5  S   UNL     1      -0.828  -6.739  -2.269  0.00  0.00    -0.154 S 
ATOM      6  C   UNL     1      -0.615  -6.820  -4.069  0.00  0.00    +0.104 C 
ATOM      7  C   UNL     1       0.276  -5.697  -4.541  0.00  0.00    -0.033 A 
ATOM      8  C   UNL     1       0.569  -4.562  -3.836  0.00  0.00    -0.023 A 
ATOM      9  C   UNL     1       1.396  -3.601  -4.429  0.00  0.00    +0.006 A 
ATOM     10  C   UNL     1       1.921  -3.779  -5.687  0.00  0.00    +0.000 A 
ATOM     11  C   UNL     1       1.629  -4.934  -6.389  0.00  0.00    +0.000 A 
ATOM     12  C   UNL     1       0.818  -5.879  -5.814  0.00  0.00    +0.005 A 
ENDBRANCH   1   3
BRANCH   1  16
ATOM     13  C   UNL     1      -0.538   1.447   0.088  0.00  0.00    +0.046 C 
ATOM     14  C   UNL     1      -0.247  -0.031   0.040  0.00  0.00    -0.019 A 
ATOM     15  C   UNL     1      -0.348  -0.715  -1.156  0.00  0.00    +0.028 A 
ATOM     16  C   UNL     1      -0.079  -2.077  -1.201  0.00  0.00    +0.028 A 
ATOM     17  C   UNL     1       0.291  -2.746  -0.041  0.00  0.00    +0.025 A 
ATOM     18  C   UNL     1       0.391  -2.057   1.151  0.00  0.00    +0.035 A 
ATOM     19  C   UNL     1       0.127  -0.700   1.190  0.00  0.00    +0.129 A 
BRANCH  19  20
ATOM     20  N   UNL     1       0.240   0.038   2.469  0.00  0.00    +0.057 N 
ATOM     21  O   UNL     1       0.674   1.166   2.480  0.00  0.00    -0.126 OA
ATOM     22  O   UNL     1      -0.101  -0.489   3.502  0.00  0.00    -0.126 OA
ENDBRANCH  19  20
ENDBRANCH   1  16
TORSDOF 3
