REMARK  Name = ZINC58837467
REMARK  6 active torsions:
REMARK  status: ('A' for Active; 'I' for Inactive)
REMARK    1  A    between atoms: C_1  and  C_2
REMARK    2  A    between atoms: C_2  and  C_4
REMARK    3  A    between atoms: C_2  and  N_9
REMARK    4  A    between atoms: C_4  and  C_5
REMARK    5  A    between atoms: N_7  and  N_8
REMARK    6  A    between atoms: N_9  and  C_10
REMARK                            x       y       z     vdW  Elec       q    Type
REMARK                         _______ _______ _______ _____ _____    ______ ____
ROOT
ATOM      1  C   UNL     1      -0.019   1.526   0.010  0.00  0.00    +0.028 C 
ATOM      2  C   UNL     1       0.002  -0.004   0.002  0.00  0.00    +0.076 C 
ENDROOT
BRANCH   2   3
ATOM      3  N   UNL     1       0.688  -0.476  -1.203  0.00  0.00    -0.341 N 
ATOM      4  H   UNL     1       0.175  -0.710  -1.993  0.00  0.00    +0.146 HD
BRANCH   3   5
ATOM      5  C   UNL     1       2.080  -0.591  -1.215  0.00  0.00    +0.027 A 
ATOM      6  C   UNL     1       2.815  -0.263  -0.083  0.00  0.00    +0.024 A 
ATOM      7  C   UNL     1       4.191  -0.377  -0.099  0.00  0.00    +0.016 A 
ATOM      8  C   UNL     1       4.838  -0.817  -1.239  0.00  0.00    +0.013 A 
ATOM      9  C   UNL     1       4.109  -1.145  -2.368  0.00  0.00    +0.016 A 
ATOM     10  C   UNL     1       2.732  -1.039  -2.357  0.00  0.00    +0.024 A 
ATOM     11  I   UNL     1       6.926  -0.988  -1.258  0.00  0.00    -0.044 I 
ENDBRANCH   3   5
ENDBRANCH   2   3
BRANCH   2  12
ATOM     12  C   UNL     1      -1.433  -0.534   0.013  0.00  0.00    +0.119 C 
BRANCH  12  13
ATOM     13  C   UNL     1      -1.414  -2.036   0.129  0.00  0.00    +0.228 C 
ATOM     14  O   UNL     1      -0.356  -2.625   0.196  0.00  0.00    -0.274 OA
ATOM     15  N   UNL     1      -2.572  -2.725   0.157  0.00  0.00    -0.254 N 
ATOM     16  H   UNL     1      -3.418  -2.254   0.104  0.00  0.00    +0.169 HD
BRANCH  15  17
ATOM     17  N   UNL     1      -2.554  -4.087   0.262  0.00  0.00    -0.254 NA
ATOM     18  H   UNL     1      -3.491  -4.461   0.271  0.00  0.00    +0.140 HD
ATOM     19  H   UNL     1      -2.007  -4.499  -0.479  0.00  0.00    +0.140 HD
ENDBRANCH  15  17
ENDBRANCH  12  13
ENDBRANCH   2  12
TORSDOF 5
