REMARK  Name = ZINC41585977
REMARK  7 active torsions:
REMARK  status: ('A' for Active; 'I' for Inactive)
REMARK    1  A    between atoms: C_1  and  O_2
REMARK    2  A    between atoms: O_2  and  C_3
REMARK    3  A    between atoms: C_6  and  O_9
REMARK    4  A    between atoms: O_9  and  C_10
REMARK    5  A    between atoms: C_19  and  O_34
REMARK    6  A    between atoms: C_20  and  C_21
REMARK    7  A    between atoms: C_21  and  N_22
REMARK                            x       y       z     vdW  Elec       q    Type
REMARK                         _______ _______ _______ _____ _____    ______ ____
ROOT
ATOM      1  C   UNL     1      -4.936  -3.912   0.080  0.00  0.00    +0.210 A 
ATOM      2  C   UNL     1      -3.832  -4.682   0.144  0.00  0.00    +0.245 A 
ATOM      3  O   UNL     1      -3.883  -6.020   0.197  0.00  0.00    -0.459 OA
ATOM      4  C   UNL     1      -5.048  -6.699   0.191  0.00  0.00    +0.147 A 
ATOM      5  C   UNL     1      -6.265  -5.997   0.126  0.00  0.00    +0.068 A 
ATOM      6  C   UNL     1      -6.221  -4.526   0.073  0.00  0.00    +0.235 A 
ATOM      7  O   UNL     1      -7.242  -3.861   0.021  0.00  0.00    -0.283 OA
ATOM      8  C   UNL     1      -7.477  -6.689   0.120  0.00  0.00    +0.019 A 
ATOM      9  C   UNL     1      -7.478  -8.054   0.177  0.00  0.00    +0.046 A 
ATOM     10  C   UNL     1      -6.277  -8.757   0.241  0.00  0.00    +0.125 A 
ATOM     11  C   UNL     1      -5.066  -8.085   0.247  0.00  0.00    +0.051 A 
ENDROOT
BRANCH  10  12
ATOM     12  O   UNL     1      -6.294 -10.114   0.296  0.00  0.00    -0.506 OA
ATOM     13  H   UNL     1      -6.273 -10.543  -0.570  0.00  0.00    +0.292 HD
ENDBRANCH  10  12
BRANCH   1  14
ATOM     14  O   UNL     1      -4.824  -2.557   0.029  0.00  0.00    -0.449 OA
BRANCH  14  18
ATOM     15  C   UNL     1      -5.994  -0.646  -3.438  0.00  0.00    +0.120 A 
ATOM     16  C   UNL     1      -5.981  -2.032  -3.381  0.00  0.00    +0.049 A 
ATOM     17  C   UNL     1      -5.590  -2.671  -2.221  0.00  0.00    +0.050 A 
ATOM     18  C   UNL     1      -5.209  -1.927  -1.113  0.00  0.00    +0.129 A 
ATOM     19  C   UNL     1      -5.221  -0.541  -1.171  0.00  0.00    +0.050 A 
ATOM     20  C   UNL     1      -5.608   0.098  -2.333  0.00  0.00    +0.049 A 
BRANCH  15  22
ATOM     21  C   UNL     1      -6.763  -0.845  -5.680  0.00  0.00    +0.277 C 
ATOM     22  O   UNL     1      -6.379  -0.016  -4.581  0.00  0.00    -0.495 OA
ENDBRANCH  15  22
ENDBRANCH  14  18
ENDBRANCH   1  14
BRANCH  11  23
ATOM     23  C   UNL     1      -3.773  -8.856   0.316  0.00  0.00    +0.127 C 
BRANCH  23  24
ATOM     24  N   UNL     1      -3.393  -9.050   1.722  0.00  0.00    -0.295 NA
ATOM     25  C   UNL     1      -4.359  -9.912   2.415  0.00  0.00    +0.103 C 
ATOM     26  C   UNL     1      -4.031  -9.942   3.911  0.00  0.00    +0.122 C 
ATOM     27  N   UNL     1      -2.622 -10.333   4.072  0.00  0.00    -0.314 N 
ATOM     28  C   UNL     1      -1.605  -9.602   3.301  0.00  0.00    +0.122 C 
ATOM     29  C   UNL     1      -2.029  -9.585   1.829  0.00  0.00    +0.103 C 
ATOM     30  C   UNL     1      -2.261 -11.365   4.930  0.00  0.00    +0.099 A 
ATOM     31  C   UNL     1      -0.916 -11.630   5.164  0.00  0.00    +0.042 A 
ATOM     32  C   UNL     1      -0.571 -12.660   6.019  0.00  0.00    +0.005 A 
ATOM     33  C   UNL     1      -1.588 -13.395   6.616  0.00  0.00    +0.018 A 
ATOM     34  C   UNL     1      -2.903 -13.077   6.339  0.00  0.00    +0.084 A 
ATOM     35  N   UNL     1      -3.202 -12.085   5.522  0.00  0.00    -0.350 N 
ATOM     36  H   UNL     1      -4.134 -11.880   5.348  0.00  0.00    +0.166 HD
ENDBRANCH  23  24
ENDBRANCH  11  23
TORSDOF 6
