REMARK  Name = ZINC35492810
REMARK  6 active torsions:
REMARK  status: ('A' for Active; 'I' for Inactive)
REMARK    1  A    between atoms: C_1  and  N_2
REMARK    2  A    between atoms: C_5  and  C_10
REMARK    3  A    between atoms: C_14  and  N_16
REMARK    4  A    between atoms: N_21  and  C_23
REMARK    5  A    between atoms: N_26  and  C_29
REMARK    6  A    between atoms: C_29  and  C_30
REMARK                            x       y       z     vdW  Elec       q    Type
REMARK                         _______ _______ _______ _____ _____    ______ ____
ROOT
ATOM      1  C   UNL     1      -0.018   1.461   0.010  0.00  0.00    +0.139 C 
ATOM      2  N   UNL     1       0.002  -0.004   0.002  0.00  0.00    -0.260 N 
ATOM      3  C   UNL     1      -1.193  -0.666   0.004  0.00  0.00    +0.042 C 
ATOM      4  C   UNL     1      -1.245  -2.013  -0.003  0.00  0.00    +0.058 C 
ATOM      5  C   UNL     1       0.068  -2.769  -0.014  0.00  0.00    +0.142 C 
ATOM      6  N   UNL     1       1.301  -1.964  -0.016  0.00  0.00    -0.288 N 
ATOM      7  C   UNL     1       1.191  -0.621  -0.013  0.00  0.00    +0.307 C 
ATOM      8  O   UNL     1       2.203   0.052  -0.018  0.00  0.00    -0.252 OA
ATOM      9  C   UNL     1      -2.585  -2.452   0.002  0.00  0.00    +0.247 C 
ATOM     10  O   UNL     1      -2.927  -3.620  -0.003  0.00  0.00    -0.270 OA
ATOM     11  N   UNL     1      -3.437  -1.411   0.012  0.00  0.00    -0.289 N 
ATOM     12  C   UNL     1      -2.626  -0.184   0.015  0.00  0.00    +0.159 C 
ATOM     13  H   UNL     1       2.172  -2.391  -0.023  0.00  0.00    +0.151 HD
ENDROOT
BRANCH  11  14
ATOM     14  C   UNL     1      -4.900  -1.485   0.019  0.00  0.00    +0.073 C 
ATOM     15  C   UNL     1      -5.381  -2.233  -1.227  0.00  0.00    +0.004 C 
ATOM     16  C   UNL     1      -6.903  -2.377  -1.174  0.00  0.00    -0.077 C 
ATOM     17  N   UNL     1      -7.286  -3.129   0.028  0.00  0.00    +0.382 N 
ATOM     18  C   UNL     1      -6.891  -2.382   1.228  0.00  0.00    -0.077 C 
ATOM     19  C   UNL     1      -5.369  -2.239   1.267  0.00  0.00    +0.004 C 
ATOM     20  H   UNL     1      -6.823  -4.026   0.023  0.00  0.00    -0.081 HD
BRANCH  17  21
ATOM     21  C   UNL     1      -8.741  -3.331   0.034  0.00  0.00    -0.043 C 
BRANCH  21  22
ATOM     22  C   UNL     1      -9.121  -4.206   1.201  0.00  0.00    -0.064 A 
ATOM     23  C   UNL     1      -9.157  -5.580   1.051  0.00  0.00    +0.002 A 
ATOM     24  C   UNL     1      -9.506  -6.383   2.121  0.00  0.00    +0.000 A 
ATOM     25  C   UNL     1      -9.817  -5.812   3.341  0.00  0.00    +0.000 A 
ATOM     26  C   UNL     1      -9.780  -4.438   3.491  0.00  0.00    +0.000 A 
ATOM     27  C   UNL     1      -9.427  -3.636   2.422  0.00  0.00    +0.002 A 
ENDBRANCH  21  22
ENDBRANCH  17  21
ENDBRANCH  11  14
BRANCH   5  28
ATOM     28  C   UNL     1       0.100  -3.664   1.198  0.00  0.00    -0.020 A 
ATOM     29  C   UNL     1       0.423  -3.139   2.436  0.00  0.00    +0.006 A 
ATOM     30  C   UNL     1       0.452  -3.959   3.548  0.00  0.00    +0.003 A 
ATOM     31  C   UNL     1       0.157  -5.304   3.423  0.00  0.00    +0.033 A 
ATOM     32  C   UNL     1      -0.168  -5.828   2.186  0.00  0.00    +0.127 A 
ATOM     33  C   UNL     1      -0.201  -5.007   1.074  0.00  0.00    +0.038 A 
BRANCH  32  34
ATOM     34  N   UNL     1      -0.484  -7.268   2.052  0.00  0.00    +0.056 N 
ATOM     35  O   UNL     1      -0.458  -7.986   3.025  0.00  0.00    -0.126 OA
ATOM     36  O   UNL     1      -0.768  -7.727   0.970  0.00  0.00    -0.126 OA
ENDBRANCH  32  34
ENDBRANCH   5  28
TORSDOF 5
