REMARK  Name = ZINC25068802
REMARK  10 active torsions:
REMARK  status: ('A' for Active; 'I' for Inactive)
REMARK    1  A    between atoms: C_1  and  C_2
REMARK    2  A    between atoms: C_5  and  C_8
REMARK    3  A    between atoms: C_8  and  C_10
REMARK    4  A    between atoms: C_8  and  N_15
REMARK    5  A    between atoms: C_16  and  C_18
REMARK    6  A    between atoms: C_19  and  C_29
REMARK    7  A    between atoms: C_20  and  C_25
REMARK    8  A    between atoms: C_21  and  C_24
REMARK    9  A    between atoms: C_25  and  O_27
REMARK   10  A    between atoms: O_27  and  C_28
REMARK                            x       y       z     vdW  Elec       q    Type
REMARK                         _______ _______ _______ _____ _____    ______ ____
ROOT
ATOM      1  N   UNL     1       2.778   0.007  -0.023  0.00  0.00    -0.299 N 
ATOM      2  C   UNL     1       2.498   1.325  -0.014  0.00  0.00    +0.261 C 
ATOM      3  O   UNL     1       3.402   2.139  -0.019  0.00  0.00    -0.269 OA
ATOM      4  H   UNL     1       1.960  -0.729  -0.019  0.00  0.00    +0.150 HD
ENDROOT
BRANCH   2   5
ATOM      5  C   UNL     1       1.101   1.779   0.001  0.00  0.00    +0.106 A 
ATOM      6  C   UNL     1       0.684   3.077   0.012  0.00  0.00    -0.006 A 
ATOM      7  C   UNL     1      -0.730   3.056   0.025  0.00  0.00    +0.083 A 
ATOM      8  C   UNL     1      -1.116   1.728   0.016  0.00  0.00    +0.028 A 
ATOM      9  N   UNL     1      -0.011   0.966   0.007  0.00  0.00    -0.354 N 
ATOM     10  H   UNL     1       0.107  -0.128   0.005  0.00  0.00    +0.166 HD
ATOM     11  C   UNL     1      -2.536   1.223   0.020  0.00  0.00    +0.064 C 
ATOM     12  C   UNL     1       1.562   4.301   0.009  0.00  0.00    +0.047 C 
BRANCH   7  13
ATOM     13  C   UNL     1      -1.622   4.227   0.039  0.00  0.00    +0.341 C 
ATOM     14  O   UNL     1      -2.000   4.716  -1.008  0.00  0.00    -0.245 OA
BRANCH  13  15
ATOM     15  O   UNL     1      -2.020   4.757   1.212  0.00  0.00    -0.464 OA
ATOM     16  C   UNL     1      -2.899   5.911   1.150  0.00  0.00    +0.280 C 
ENDBRANCH  13  15
ENDBRANCH   7  13
ENDBRANCH   2   5
BRANCH   1  17
ATOM     17  C   UNL     1       4.171  -0.446  -0.038  0.00  0.00    +0.140 C 
BRANCH  17  22
ATOM     18  C   UNL     1       4.455  -5.726  -2.368  0.00  0.00    +0.044 C 
ATOM     19  C   UNL     1       4.381  -4.349  -1.760  0.00  0.00    -0.050 A 
ATOM     20  C   UNL     1       5.350  -3.409  -2.058  0.00  0.00    +0.004 A 
ATOM     21  C   UNL     1       5.282  -2.146  -1.501  0.00  0.00    +0.006 A 
ATOM     22  C   UNL     1       4.245  -1.823  -0.646  0.00  0.00    -0.022 A 
ATOM     23  C   UNL     1       3.279  -2.764  -0.344  0.00  0.00    +0.006 A 
ATOM     24  C   UNL     1       3.345  -4.026  -0.905  0.00  0.00    +0.004 A 
ENDBRANCH  17  22
BRANCH  17  25
ATOM     25  C   UNL     1       4.700  -0.490   1.372  0.00  0.00    +0.014 A 
ATOM     26  C   UNL     1       5.921  -0.129   1.837  0.00  0.00    +0.013 A 
ATOM     27  C   UNL     1       6.189  -0.256   3.187  0.00  0.00    +0.008 A 
ATOM     28  C   UNL     1       5.222  -0.738   4.006  0.00  0.00    +0.045 A 
ATOM     29  S   UNL     1       3.879  -1.023   2.865  0.00  0.00    -0.099 S 
ENDBRANCH  17  25
ENDBRANCH   1  17
TORSDOF 6
