REMARK  Name = ZINC38936002
REMARK  11 active torsions:
REMARK  status: ('A' for Active; 'I' for Inactive)
REMARK    1  A    between atoms: C_1  and  C_2
REMARK    2  A    between atoms: C_5  and  S_8
REMARK    3  A    between atoms: S_8  and  C_9
REMARK    4  A    between atoms: C_9  and  C_10
REMARK    5  A    between atoms: C_12  and  C_24
REMARK    6  A    between atoms: C_14  and  C_22
REMARK    7  A    between atoms: C_15  and  N_21
REMARK    8  A    between atoms: C_26  and  O_32
REMARK    9  A    between atoms: C_29  and  O_30
REMARK   10  A    between atoms: O_30  and  C_31
REMARK   11  A    between atoms: O_32  and  C_33
REMARK                            x       y       z     vdW  Elec       q    Type
REMARK                         _______ _______ _______ _____ _____    ______ ____
ROOT
ATOM      1  C   UNL     1       0.097  -6.482   1.870  0.00  0.00    +0.079 C 
ATOM      2  C   UNL     1       1.146  -7.189   2.215  0.00  0.00    +0.031 C 
ATOM      3  C   UNL     1       2.525  -6.831   2.695  0.00  0.00    +0.101 C 
ATOM      4  C   UNL     1       2.829  -7.801   3.822  0.00  0.00    +0.098 C 
ATOM      5  C   UNL     1       2.025  -8.851   4.089  0.00  0.00    +0.195 C 
ATOM      6  O   UNL     1       0.881  -9.169   3.457  0.00  0.00    -0.448 OA
ATOM      7  C   UNL     1       0.686  -8.646   2.140  0.00  0.00    +0.343 C 
ATOM      8  N   UNL     1      -0.734  -8.500   1.806  0.00  0.00    -0.138 NA
ATOM      9  N   UNL     1      -0.970  -7.294   1.659  0.00  0.00    -0.154 NA
ENDROOT
BRANCH   3  10
ATOM     10  C   UNL     1       3.525  -6.995   1.579  0.00  0.00    +0.010 A 
ATOM     11  C   UNL     1       3.696  -8.229   0.982  0.00  0.00    +0.053 A 
ATOM     12  C   UNL     1       4.615  -8.380  -0.046  0.00  0.00    +0.121 A 
ATOM     13  C   UNL     1       5.362  -7.292  -0.474  0.00  0.00    +0.049 A 
ATOM     14  C   UNL     1       5.191  -6.059   0.123  0.00  0.00    +0.049 A 
ATOM     15  C   UNL     1       4.268  -5.906   1.148  0.00  0.00    +0.124 A 
BRANCH  15  16
ATOM     16  O   UNL     1       4.095  -4.691   1.732  0.00  0.00    -0.495 OA
ATOM     17  C   UNL     1       4.893  -3.614   1.238  0.00  0.00    +0.277 C 
ENDBRANCH  15  16
BRANCH  12  18
ATOM     18  O   UNL     1       4.785  -9.594  -0.634  0.00  0.00    -0.495 OA
ATOM     19  C   UNL     1       5.748  -9.677  -1.685  0.00  0.00    +0.277 C 
ENDBRANCH  12  18
ENDBRANCH   3  10
BRANCH   5  20
ATOM     20  N   UNL     1       2.414  -9.679   5.112  0.00  0.00    -0.329 N 
ATOM     21  H   UNL     1       3.231  -9.495   5.601  0.00  0.00    +0.145 HD
ATOM     22  H   UNL     1       1.871 -10.449   5.345  0.00  0.00    +0.145 HD
ENDBRANCH   5  20
BRANCH   4  23
ATOM     23  C   UNL     1       3.999  -7.597   4.621  0.00  0.00    +0.101 C 
ATOM     24  N   UNL     1       4.928  -7.436   5.255  0.00  0.00    -0.191 NA
ENDBRANCH   4  23
BRANCH   1  25
ATOM     25  C   UNL     1       0.077  -4.981   1.735  0.00  0.00    +0.131 C 
BRANCH  25  26
ATOM     26  S   UNL     1       0.062  -4.533  -0.023  0.00  0.00    -0.119 S 
BRANCH  26  31
ATOM     27  C   UNL     1      -0.018   1.503   0.010  0.00  0.00    +0.044 C 
ATOM     28  C   UNL     1       0.002  -0.004   0.002  0.00  0.00    -0.050 A 
ATOM     29  C   UNL     1       0.006  -0.687  -1.200  0.00  0.00    +0.004 A 
ATOM     30  C   UNL     1       0.024  -2.068  -1.212  0.00  0.00    +0.015 A 
ATOM     31  C   UNL     1       0.039  -2.771  -0.013  0.00  0.00    +0.008 A 
ATOM     32  C   UNL     1       0.036  -2.081   1.193  0.00  0.00    +0.015 A 
ATOM     33  C   UNL     1       0.023  -0.700   1.197  0.00  0.00    +0.004 A 
ENDBRANCH  26  31
ENDBRANCH  25  26
ENDBRANCH   1  25
TORSDOF 8
