REMARK  Name = ZINC21678934
REMARK  15 active torsions:
REMARK  status: ('A' for Active; 'I' for Inactive)
REMARK    1  A    between atoms: C_1  and  C_2
REMARK    2  A    between atoms: C_2  and  C_3
REMARK    3  A    between atoms: C_3  and  C_4
REMARK    4  A    between atoms: C_4  and  N_5
REMARK    5  A    between atoms: N_5  and  C_6
REMARK    6  A    between atoms: C_7  and  N_18
REMARK    7  A    between atoms: N_8  and  C_15
REMARK    8  A    between atoms: C_15  and  C_16
REMARK    9  A    between atoms: C_16  and  C_17
REMARK   10  A    between atoms: C_19  and  C_21
REMARK   11  A    between atoms: C_21  and  O_22
REMARK   12  A    between atoms: O_22  and  C_23
REMARK   13  A    between atoms: C_23  and  C_25
REMARK   14  A    between atoms: C_25  and  S_26
REMARK   15  A    between atoms: S_26  and  C_27
REMARK                            x       y       z     vdW  Elec       q    Type
REMARK                         _______ _______ _______ _____ _____    ______ ____
ROOT
ATOM      1  N   UNL     1       0.066  -2.848  -2.324  0.00  0.00    -0.261 N 
ATOM      2  C   UNL     1      -0.094  -2.193  -3.493  0.00  0.00    +0.258 C 
ATOM      3  O   UNL     1      -0.155  -0.982  -3.507  0.00  0.00    -0.272 OA
ENDROOT
BRANCH   1   4
ATOM      4  C   UNL     1       0.057  -2.132  -1.108  0.00  0.00    +0.140 A 
ATOM      5  C   UNL     1       1.195  -2.054  -0.332  0.00  0.00    +0.127 A 
ATOM      6  N   UNL     1       1.154  -1.353   0.852  0.00  0.00    -0.280 N 
ATOM      7  C   UNL     1       0.021  -0.742   1.242  0.00  0.00    +0.331 A 
ATOM      8  O   UNL     1       0.006  -0.124   2.289  0.00  0.00    -0.246 OA
ATOM      9  N   UNL     1      -1.096  -0.803   0.495  0.00  0.00    -0.273 N 
ATOM     10  H   UNL     1      -2.012  -0.296   0.834  0.00  0.00    +0.173 HD
ATOM     11  C   UNL     1      -1.111  -1.481  -0.669  0.00  0.00    +0.277 A 
ATOM     12  O   UNL     1      -2.129  -1.530  -1.338  0.00  0.00    -0.266 OA
BRANCH   5  13
ATOM     13  N   UNL     1       2.354  -2.673  -0.733  0.00  0.00    -0.343 N 
ATOM     14  H   UNL     1       3.258  -2.607  -0.109  0.00  0.00    +0.144 HD
ATOM     15  H   UNL     1       2.379  -3.235  -1.679  0.00  0.00    +0.144 HD
ENDBRANCH   5  13
BRANCH   6  16
ATOM     16  C   UNL     1       2.353  -1.267   1.688  0.00  0.00    +0.128 C 
BRANCH  16  17
ATOM     17  C   UNL     1       2.368  -2.432   2.680  0.00  0.00    +0.018 C 
ATOM     18  C   UNL     1       3.620  -2.342   3.555  0.00  0.00    +0.005 C 
ENDBRANCH  16  17
ENDBRANCH   6  16
ENDBRANCH   1   4
BRANCH   1  19
ATOM     19  C   UNL     1       0.248  -4.301  -2.317  0.00  0.00    +0.114 C 
BRANCH  19  20
ATOM     20  C   UNL     1      -1.119  -4.987  -2.352  0.00  0.00    +0.019 C 
BRANCH  20  22
ATOM     21  C   UNL     1      -2.296  -7.191  -2.379  0.00  0.00    +0.004 C 
ATOM     22  C   UNL     1      -0.929  -6.505  -2.345  0.00  0.00    -0.002 C 
ENDBRANCH  20  22
ENDBRANCH  19  20
ENDBRANCH   1  19
BRANCH   2  23
ATOM     23  C   UNL     1      -0.197  -2.968  -4.782  0.00  0.00    +0.328 C 
BRANCH  23  24
ATOM     24  O   UNL     1      -0.363  -2.044  -5.890  0.00  0.00    -0.455 OA
BRANCH  24  25
ATOM     25  C   UNL     1      -0.471  -2.576  -7.117  0.00  0.00    +0.318 C 
ATOM     26  O   UNL     1      -0.428  -3.775  -7.261  0.00  0.00    -0.250 OA
BRANCH  25  27
ATOM     27  C   UNL     1      -0.646  -1.680  -8.315  0.00  0.00    +0.194 C 
BRANCH  27  28
ATOM     28  S   UNL     1      -0.760  -2.692  -9.816  0.00  0.00    -0.114 S 
BRANCH  28  29
ATOM     29  C   UNL     1      -0.959  -1.513 -11.111  0.00  0.00    +0.009 A 
ATOM     30  C   UNL     1      -0.999  -0.146 -10.805  0.00  0.00    +0.015 A 
ATOM     31  C   UNL     1      -1.145   0.784 -11.783  0.00  0.00    +0.009 A 
ATOM     32  C   UNL     1      -1.272   0.379 -13.124  0.00  0.00    -0.018 A 
ATOM     33  C   UNL     1      -1.432   1.319 -14.155  0.00  0.00    +0.008 A 
ATOM     34  C   UNL     1      -1.552   0.894 -15.443  0.00  0.00    +0.001 A 
ATOM     35  C   UNL     1      -1.520  -0.463 -15.757  0.00  0.00    +0.001 A 
ATOM     36  C   UNL     1      -1.367  -1.403 -14.784  0.00  0.00    +0.008 A 
ATOM     37  C   UNL     1      -1.239  -1.002 -13.443  0.00  0.00    -0.017 A 
ATOM     38  C   UNL     1      -1.081  -1.945 -12.414  0.00  0.00    +0.023 A 
ENDBRANCH  28  29
ENDBRANCH  27  28
ENDBRANCH  25  27
ENDBRANCH  24  25
ENDBRANCH  23  24
ENDBRANCH   2  23
TORSDOF 13
