REMARK  Name = ZINC43609635
REMARK  6 active torsions:
REMARK  status: ('A' for Active; 'I' for Inactive)
REMARK    1  A    between atoms: C_1  and  C_2
REMARK    2  A    between atoms: C_7  and  C_8
REMARK    3  A    between atoms: C_8  and  N_9
REMARK    4  A    between atoms: C_14  and  C_23
REMARK    5  A    between atoms: C_27  and  O_29
REMARK    6  A    between atoms: O_29  and  C_30
REMARK                            x       y       z     vdW  Elec       q    Type
REMARK                         _______ _______ _______ _____ _____    ______ ____
ROOT
ATOM      1  N   UNL     1      -1.388   0.091   3.019  0.00  0.00    -0.298 N 
ATOM      2  C   UNL     1      -2.173   1.271   2.640  0.00  0.00    +0.110 C 
ATOM      3  C   UNL     1      -3.642   0.928   2.951  0.00  0.00    +0.003 C 
ATOM      4  C   UNL     1      -4.290   0.254   1.716  0.00  0.00    -0.007 C 
ATOM      5  C   UNL     1      -5.242  -0.771   2.383  0.00  0.00    -0.036 C 
ATOM      6  N   UNL     1      -4.504  -1.264   3.567  0.00  0.00    +0.394 N 
ATOM      7  C   UNL     1      -3.503  -0.234   3.964  0.00  0.00    +0.018 C 
ATOM      8  C   UNL     1      -2.103  -0.747   3.790  0.00  0.00    +0.206 C 
ATOM      9  O   UNL     1      -1.676  -1.772   4.279  0.00  0.00    -0.277 OA
ATOM     10  C   UNL     1      -3.798   0.234   5.391  0.00  0.00    -0.004 C 
ATOM     11  C   UNL     1      -4.643  -0.932   5.972  0.00  0.00    -0.019 C 
ATOM     12  C   UNL     1      -5.446  -1.414   4.699  0.00  0.00    -0.077 C 
ATOM     13  H   UNL     1      -4.059  -2.146   3.361  0.00  0.00    -0.079 HD
ENDROOT
BRANCH   5  14
ATOM     14  C   UNL     1      -5.537  -1.906   1.436  0.00  0.00    -0.057 A 
ATOM     15  C   UNL     1      -4.609  -2.916   1.260  0.00  0.00    +0.005 A 
ATOM     16  C   UNL     1      -4.876  -3.959   0.392  0.00  0.00    +0.042 A 
ATOM     17  C   UNL     1      -6.072  -3.993  -0.302  0.00  0.00    +0.165 A 
ATOM     18  C   UNL     1      -7.005  -2.979  -0.125  0.00  0.00    +0.155 A 
ATOM     19  C   UNL     1      -6.736  -1.938   0.750  0.00  0.00    +0.050 A 
ATOM     20  F   UNL     1      -6.332  -5.012  -1.151  0.00  0.00    -0.202 F 
BRANCH  18  21
ATOM     21  O   UNL     1      -8.181  -3.010  -0.805  0.00  0.00    -0.492 OA
ATOM     22  C   UNL     1      -9.093  -1.934  -0.574  0.00  0.00    +0.277 C 
ENDBRANCH  18  21
ENDBRANCH   5  14
BRANCH   1  23
ATOM     23  C   UNL     1      -0.004  -0.147   2.604  0.00  0.00    +0.143 C 
BRANCH  23  30
ATOM     24  C   UNL     1       2.486  -0.671   1.235  0.00  0.00    +0.044 C 
ATOM     25  C   UNL     1       1.200  -1.259   0.713  0.00  0.00    -0.046 A 
ATOM     26  C   UNL     1       1.213  -2.054  -0.418  0.00  0.00    +0.003 A 
ATOM     27  C   UNL     1       0.035  -2.594  -0.897  0.00  0.00    +0.000 A 
ATOM     28  C   UNL     1      -1.158  -2.339  -0.244  0.00  0.00    +0.000 A 
ATOM     29  C   UNL     1      -1.170  -1.545   0.887  0.00  0.00    +0.005 A 
ATOM     30  C   UNL     1       0.009  -1.009   1.368  0.00  0.00    -0.027 A 
ENDBRANCH  23  30
ENDBRANCH   1  23
TORSDOF 4
