REMARK  Name = ZINC35938820
REMARK  8 active torsions:
REMARK  status: ('A' for Active; 'I' for Inactive)
REMARK    1  A    between atoms: C_1  and  C_2
REMARK    2  A    between atoms: C_5  and  S_8
REMARK    3  A    between atoms: S_8  and  N_11
REMARK    4  A    between atoms: C_16  and  C_18
REMARK    5  A    between atoms: C_19  and  C_21
REMARK    6  A    between atoms: C_21  and  C_22
REMARK    7  A    between atoms: C_22  and  N_23
REMARK    8  A    between atoms: C_31  and  C_33
REMARK                            x       y       z     vdW  Elec       q    Type
REMARK                         _______ _______ _______ _____ _____    ______ ____
ROOT
ATOM      1  N   UNL     1       1.651  -4.999  -0.034  0.00  0.00    -0.171 NA
ATOM      2  C   UNL     1       2.363  -5.199  -1.304  0.00  0.00    +0.129 C 
ATOM      3  C   UNL     1       2.949  -6.616  -1.321  0.00  0.00    +0.125 C 
ATOM      4  N   UNL     1       3.671  -6.840  -0.061  0.00  0.00    -0.299 N 
ATOM      5  C   UNL     1       2.959  -6.641   1.209  0.00  0.00    +0.128 C 
ATOM      6  C   UNL     1       2.375  -5.218   1.226  0.00  0.00    +0.094 C 
ATOM      7  C   UNL     1       3.507  -4.196   1.352  0.00  0.00    +0.027 C 
ATOM      8  C   UNL     1       4.964  -7.222  -0.070  0.00  0.00    +0.214 C 
ATOM      9  O   UNL     1       5.550  -7.404   0.976  0.00  0.00    -0.276 OA
ENDROOT
BRANCH   1  10
ATOM     10  S   UNL     1       0.063  -4.530  -0.023  0.00  0.00    +0.061 S 
ATOM     11  O   UNL     1      -0.476  -4.950   1.223  0.00  0.00    -0.153 OA
ATOM     12  O   UNL     1      -0.490  -4.937  -1.267  0.00  0.00    -0.153 OA
BRANCH  10  17
ATOM     13  C   UNL     1      -0.018   1.503   0.010  0.00  0.00    +0.044 C 
ATOM     14  C   UNL     1       0.002  -0.004   0.002  0.00  0.00    -0.050 A 
ATOM     15  C   UNL     1       0.006  -0.689  -1.199  0.00  0.00    +0.005 A 
ATOM     16  C   UNL     1       0.025  -2.071  -1.206  0.00  0.00    +0.029 A 
ATOM     17  C   UNL     1       0.040  -2.768  -0.013  0.00  0.00    +0.106 A 
ATOM     18  C   UNL     1       0.037  -2.084   1.188  0.00  0.00    +0.029 A 
ATOM     19  C   UNL     1       0.023  -0.702   1.195  0.00  0.00    +0.005 A 
ENDBRANCH  10  17
ENDBRANCH   1  10
BRANCH   8  20
ATOM     20  C   UNL     1       5.681  -7.423  -1.381  0.00  0.00    +0.077 C 
BRANCH  20  21
ATOM     21  C   UNL     1       7.125  -7.851  -1.111  0.00  0.00    -0.068 C 
BRANCH  21  22
ATOM     22  N   UNL     1       7.824  -8.047  -2.388  0.00  0.00    +0.388 N 
ATOM     23  C   UNL     1       7.894  -6.765  -3.103  0.00  0.00    -0.072 C 
ATOM     24  C   UNL     1       8.318  -7.029  -4.558  0.00  0.00    +0.024 C 
ATOM     25  C   UNL     1       9.489  -7.955  -4.524  0.00  0.00    -0.010 A 
ATOM     26  C   UNL     1       9.921  -8.675  -3.450  0.00  0.00    -0.047 A 
ATOM     27  C   UNL     1      11.044  -9.474  -3.649  0.00  0.00    +0.010 A 
ATOM     28  C   UNL     1      11.645  -9.508  -4.861  0.00  0.00    +0.045 A 
ATOM     29  S   UNL     1      10.628  -8.384  -5.809  0.00  0.00    -0.101 S 
ATOM     30  C   UNL     1       9.169  -8.573  -2.127  0.00  0.00    -0.006 C 
ATOM     31  H   UNL     1       7.311  -8.711  -2.949  0.00  0.00    -0.080 HD
BRANCH  30  32
ATOM     32  C   UNL     1       9.065  -9.938  -1.498  0.00  0.00    -0.057 A 
ATOM     33  C   UNL     1       8.115 -10.836  -1.949  0.00  0.00    +0.002 A 
ATOM     34  C   UNL     1       8.020 -12.089  -1.372  0.00  0.00    +0.000 A 
ATOM     35  C   UNL     1       8.873 -12.443  -0.344  0.00  0.00    +0.000 A 
ATOM     36  C   UNL     1       9.823 -11.546   0.106  0.00  0.00    +0.000 A 
ATOM     37  C   UNL     1       9.922 -10.295  -0.474  0.00  0.00    +0.002 A 
ENDBRANCH  30  32
ENDBRANCH  21  22
ENDBRANCH  20  21
ENDBRANCH   8  20
TORSDOF 6
