REMARK  Name = ZINC67191244
REMARK  18 active torsions:
REMARK  status: ('A' for Active; 'I' for Inactive)
REMARK    1  A    between atoms: C_1  and  C_2
REMARK    2  A    between atoms: C_2  and  C_3
REMARK    3  A    between atoms: C_2  and  C_4
REMARK    4  A    between atoms: C_4  and  C_5
REMARK    5  A    between atoms: C_5  and  C_7
REMARK    6  A    between atoms: C_5  and  N_23
REMARK    7  A    between atoms: N_9  and  C_10
REMARK    8  A    between atoms: C_10  and  C_11
REMARK    9  A    between atoms: C_11  and  C_13
REMARK   10  A    between atoms: C_11  and  N_16
REMARK   11  A    between atoms: C_13  and  C_14
REMARK   12  A    between atoms: C_13  and  C_15
REMARK   13  A    between atoms: N_19  and  C_22
REMARK   14  A    between atoms: C_24  and  O_26
REMARK   15  A    between atoms: O_26  and  C_27
REMARK   16  A    between atoms: C_27  and  C_28
REMARK   17  A    between atoms: C_27  and  C_29
REMARK   18  A    between atoms: C_27  and  C_30
REMARK                            x       y       z     vdW  Elec       q    Type
REMARK                         _______ _______ _______ _____ _____    ______ ____
ROOT
ATOM      1  C   UNL     1      -4.564  -0.286  -2.310  0.00  0.00    +0.234 C 
ATOM      2  O   UNL     1      -4.936  -1.375  -2.693  0.00  0.00    -0.274 OA
ATOM      3  N   UNL     1      -5.181   0.309  -1.270  0.00  0.00    -0.312 N 
ATOM      4  H   UNL     1      -4.883   1.180  -0.964  0.00  0.00    +0.149 HD
ENDROOT
BRANCH   1   5
ATOM      5  C   UNL     1      -3.413   0.401  -2.998  0.00  0.00    +0.162 C 
BRANCH   5   6
ATOM      6  N   UNL     1      -2.920  -0.445  -4.088  0.00  0.00    -0.270 N 
ATOM      7  C   UNL     1      -2.277   0.111  -5.134  0.00  0.00    +0.401 C 
ATOM      8  O   UNL     1      -2.107   1.313  -5.173  0.00  0.00    -0.226 OA
ATOM      9  H   UNL     1      -3.056  -1.405  -4.056  0.00  0.00    +0.153 HD
BRANCH   7  10
ATOM     10  O   UNL     1      -1.824  -0.666  -6.136  0.00  0.00    -0.445 OA
BRANCH  10  11
ATOM     11  C   UNL     1      -1.152  -0.010  -7.213  0.00  0.00    +0.107 C 
ATOM     12  C   UNL     1       0.077   0.725  -6.674  0.00  0.00    +0.055 C 
ATOM     13  C   UNL     1      -0.713  -1.048  -8.247  0.00  0.00    +0.055 C 
ATOM     14  C   UNL     1      -2.100   0.995  -7.869  0.00  0.00    +0.055 C 
ENDBRANCH  10  11
ENDBRANCH   7  10
ENDBRANCH   5   6
BRANCH   5  15
ATOM     15  C   UNL     1      -2.287   0.642  -1.990  0.00  0.00    +0.035 C 
BRANCH  15  17
ATOM     16  C   UNL     1      -1.694   2.841  -3.018  0.00  0.00    +0.007 C 
ATOM     17  C   UNL     1      -1.171   1.449  -2.656  0.00  0.00    -0.015 C 
ATOM     18  C   UNL     1       0.007   1.584  -1.689  0.00  0.00    +0.007 C 
ENDBRANCH  15  17
ENDBRANCH   5  15
ENDBRANCH   1   5
BRANCH   3  19
ATOM     19  C   UNL     1      -6.300  -0.359  -0.601  0.00  0.00    +0.123 C 
BRANCH  19  20
ATOM     20  C   UNL     1      -6.732   0.463   0.615  0.00  0.00    +0.076 C 
BRANCH  20  21
ATOM     21  N   UNL     1      -5.588   0.636   1.520  0.00  0.00    -0.301 NA
ATOM     22  C   UNL     1      -5.411  -0.545   2.377  0.00  0.00    +0.066 C 
ATOM     23  C   UNL     1      -4.177  -0.351   3.261  0.00  0.00    -0.064 C 
ATOM     24  N   UNL     1      -4.350   0.852   4.086  0.00  0.00    +0.379 N 
ATOM     25  C   UNL     1      -4.501   2.026   3.216  0.00  0.00    -0.064 C 
ATOM     26  C   UNL     1      -5.738   1.852   2.332  0.00  0.00    +0.066 C 
ATOM     27  C   UNL     1      -3.174   1.028   4.947  0.00  0.00    -0.096 C 
ATOM     28  H   UNL     1      -5.174   0.750   4.659  0.00  0.00    -0.082 HD
ENDBRANCH  20  21
BRANCH  20  29
ATOM     29  C   UNL     1      -7.858  -0.266   1.350  0.00  0.00    +0.001 C 
ATOM     30  C   UNL     1      -8.360   0.602   2.505  0.00  0.00    +0.009 C 
ATOM     31  C   UNL     1      -9.009  -0.537   0.378  0.00  0.00    +0.009 C 
ENDBRANCH  20  29
ENDBRANCH  19  20
ENDBRANCH   3  19
TORSDOF 10
