REMARK  Name = ZINC33299274
REMARK  9 active torsions:
REMARK  status: ('A' for Active; 'I' for Inactive)
REMARK    1  A    between atoms: C_1  and  C_2
REMARK    2  A    between atoms: C_4  and  C_28
REMARK    3  A    between atoms: C_5  and  N_9
REMARK    4  A    between atoms: C_6  and  C_8
REMARK    5  A    between atoms: N_9  and  S_10
REMARK    6  A    between atoms: S_10  and  C_13
REMARK    7  A    between atoms: C_15  and  C_19
REMARK    8  A    between atoms: C_17  and  C_18
REMARK    9  A    between atoms: C_21  and  C_24
REMARK                            x       y       z     vdW  Elec       q    Type
REMARK                         _______ _______ _______ _____ _____    ______ ____
ROOT
ATOM      1  C   UNL     1       4.859   1.111   1.596  0.00  0.00    +0.119 A 
ATOM      2  C   UNL     1       5.842   0.768   2.497  0.00  0.00    +0.047 A 
ATOM      3  C   UNL     1       5.854   1.381   3.722  0.00  0.00    +0.043 A 
ATOM      4  S   UNL     1       4.437   2.461   3.608  0.00  0.00    -0.090 S 
ATOM      5  C   UNL     1       3.929   2.035   1.950  0.00  0.00    +0.014 A 
ATOM      6  C   UNL     1       2.767   2.565   1.150  0.00  0.00    +0.053 C 
ENDROOT
BRANCH   3   7
ATOM      7  C   UNL     1       6.793   1.193   4.848  0.00  0.00    +0.120 A 
ATOM      8  C   UNL     1       6.761   1.854   6.110  0.00  0.00    +0.085 A 
ATOM      9  C   UNL     1       7.819   1.338   6.774  0.00  0.00    +0.240 A 
ATOM     10  O   UNL     1       8.401   0.455   5.949  0.00  0.00    -0.350 OA
ATOM     11  N   UNL     1       7.822   0.380   4.889  0.00  0.00    -0.077 NA
BRANCH   9  12
ATOM     12  C   UNL     1       8.260   1.687   8.172  0.00  0.00    +0.453 C 
ATOM     13  F   UNL     1       7.627   0.839   9.087  0.00  0.00    -0.163 F 
ATOM     14  F   UNL     1       9.647   1.534   8.275  0.00  0.00    -0.163 F 
ATOM     15  F   UNL     1       7.916   3.014   8.451  0.00  0.00    -0.163 F 
ENDBRANCH   9  12
ENDBRANCH   3   7
BRANCH   1  16
ATOM     16  S   UNL     1       4.805   0.355   0.005  0.00  0.00    +0.073 S 
ATOM     17  O   UNL     1       5.896  -0.554  -0.050  0.00  0.00    -0.150 OA
ATOM     18  O   UNL     1       4.639   1.404  -0.938  0.00  0.00    -0.150 OA
BRANCH  16  19
ATOM     19  N   UNL     1       3.425  -0.559  -0.055  0.00  0.00    -0.216 N 
ATOM     20  H   UNL     1       2.609  -0.278  -0.738  0.00  0.00    +0.174 HD
BRANCH  19  25
ATOM     21  C   UNL     1       2.909  -5.133   3.257  0.00  0.00    +0.044 C 
ATOM     22  C   UNL     1       3.043  -3.919   2.374  0.00  0.00    -0.050 A 
ATOM     23  C   UNL     1       3.957  -3.918   1.336  0.00  0.00    +0.008 A 
ATOM     24  C   UNL     1       4.087  -2.805   0.529  0.00  0.00    -0.028 A 
ATOM     25  C   UNL     1       3.297  -1.686   0.760  0.00  0.00    +0.054 A 
ATOM     26  C   UNL     1       2.379  -1.690   1.802  0.00  0.00    -0.028 A 
ATOM     27  C   UNL     1       2.255  -2.807   2.606  0.00  0.00    +0.008 A 
ATOM     28  C   UNL     1       1.520  -0.478   2.057  0.00  0.00    +0.046 C 
ATOM     29  C   UNL     1       5.084  -2.805  -0.601  0.00  0.00    +0.046 C 
ENDBRANCH  19  25
ENDBRANCH  16  19
ENDBRANCH   1  16
TORSDOF 5
