REMARK  Name = ZINC15044340
REMARK  9 active torsions:
REMARK  status: ('A' for Active; 'I' for Inactive)
REMARK    1  A    between atoms: C_3  and  C_8
REMARK    2  A    between atoms: N_12  and  C_16
REMARK    3  A    between atoms: C_16  and  C_17
REMARK    4  A    between atoms: C_17  and  C_18
REMARK    5  A    between atoms: C_18  and  C_19
REMARK    6  A    between atoms: C_19  and  C_20
REMARK    7  A    between atoms: C_20  and  C_21
REMARK    8  A    between atoms: N_23  and  C_24
REMARK    9  A    between atoms: C_27  and  O_30
REMARK                            x       y       z     vdW  Elec       q    Type
REMARK                         _______ _______ _______ _____ _____    ______ ____
ROOT
ATOM      1  C   UNL     1      -3.428   9.140  -0.321  0.00  0.00    +0.115 C 
ENDROOT
BRANCH   1   6
ATOM      2  C   UNL     1      -0.678   5.035   0.114  0.00  0.00    +0.028 C 
ATOM      3  C   UNL     1      -1.808   5.776   0.003  0.00  0.00    +0.077 C 
ATOM      4  C   UNL     1      -1.966   7.242  -0.104  0.00  0.00    +0.258 C 
ATOM      5  O   UNL     1      -1.007   7.991  -0.103  0.00  0.00    -0.269 OA
ATOM      6  N   UNL     1      -3.204   7.697  -0.206  0.00  0.00    -0.255 N 
ATOM      7  C   UNL     1      -4.264   6.864  -0.200  0.00  0.00    +0.121 C 
ATOM      8  S   UNL     1      -5.926   7.258  -0.313  0.00  0.00    -0.027 S 
ATOM      9  S   UNL     1      -3.516   5.250  -0.046  0.00  0.00    -0.061 S 
BRANCH   2  12
ATOM     10  C   UNL     1       0.278   1.458   0.711  0.00  0.00    +0.002 A 
ATOM     11  C   UNL     1       0.368   2.793   0.379  0.00  0.00    +0.008 A 
ATOM     12  C   UNL     1      -0.765   3.610   0.465  0.00  0.00    -0.023 A 
ATOM     13  C   UNL     1      -1.982   3.063   0.887  0.00  0.00    +0.023 A 
ATOM     14  C   UNL     1      -2.057   1.724   1.210  0.00  0.00    +0.018 A 
ATOM     15  C   UNL     1      -0.928   0.924   1.128  0.00  0.00    +0.015 A 
ATOM     16 BR   UNL     1      -3.701   0.979   1.774  0.00  0.00    -0.050 Br
ENDBRANCH   2  12
ENDBRANCH   1   6
BRANCH   1  17
ATOM     17  C   UNL     1      -3.579   9.746   1.076  0.00  0.00    +0.019 C 
BRANCH  17  18
ATOM     18  C   UNL     1      -3.814  11.253   0.956  0.00  0.00    +0.002 C 
BRANCH  18  19
ATOM     19  C   UNL     1      -3.965  11.859   2.353  0.00  0.00    +0.009 C 
BRANCH  19  20
ATOM     20  C   UNL     1      -4.199  13.366   2.232  0.00  0.00    +0.096 C 
BRANCH  20  21
ATOM     21  C   UNL     1      -4.348  13.963   3.608  0.00  0.00    +0.217 C 
ATOM     22  O   UNL     1      -4.274  13.253   4.588  0.00  0.00    -0.275 OA
ATOM     23  N   UNL     1      -4.564  15.286   3.749  0.00  0.00    -0.285 N 
ATOM     24  H   UNL     1      -4.687  15.844   2.965  0.00  0.00    +0.155 HD
BRANCH  23  25
ATOM     25  C   UNL     1      -4.610  15.856   5.028  0.00  0.00    +0.034 A 
ATOM     26  C   UNL     1      -5.382  16.987   5.257  0.00  0.00    +0.027 A 
ATOM     27  C   UNL     1      -5.431  17.544   6.520  0.00  0.00    +0.047 A 
ATOM     28  C   UNL     1      -4.700  16.982   7.556  0.00  0.00    +0.117 A 
ATOM     29  C   UNL     1      -3.924  15.855   7.326  0.00  0.00    +0.047 A 
ATOM     30  C   UNL     1      -3.879  15.293   6.066  0.00  0.00    +0.027 A 
BRANCH  28  31
ATOM     31  O   UNL     1      -4.745  17.535   8.797  0.00  0.00    -0.507 OA
ATOM     32  H   UNL     1      -4.070  18.210   8.951  0.00  0.00    +0.292 HD
ENDBRANCH  28  31
ENDBRANCH  23  25
ENDBRANCH  20  21
ENDBRANCH  19  20
ENDBRANCH  18  19
ENDBRANCH  17  18
ENDBRANCH   1  17
TORSDOF 9
