REMARK  Name = ZINC39667620
REMARK  9 active torsions:
REMARK  status: ('A' for Active; 'I' for Inactive)
REMARK    1  A    between atoms: C_1  and  C_2
REMARK    2  A    between atoms: C_2  and  N_3
REMARK    3  A    between atoms: C_4  and  C_10
REMARK    4  A    between atoms: C_6  and  C_8
REMARK    5  A    between atoms: C_14  and  C_23
REMARK    6  A    between atoms: N_25  and  C_26
REMARK    7  A    between atoms: C_26  and  C_27
REMARK    8  A    between atoms: C_31  and  C_34
REMARK    9  A    between atoms: C_32  and  C_33
REMARK                            x       y       z     vdW  Elec       q    Type
REMARK                         _______ _______ _______ _____ _____    ______ ____
ROOT
ATOM      1  C   UNL     1      -1.442  -0.454  -2.910  0.00  0.00    +0.266 C 
ATOM      2  O   UNL     1      -1.792  -0.770  -4.032  0.00  0.00    -0.268 OA
ATOM      3  N   UNL     1      -2.330   0.095  -2.057  0.00  0.00    -0.295 N 
ATOM      4  C   UNL     1      -2.121   0.451  -0.634  0.00  0.00    +0.121 C 
ATOM      5  C   UNL     1      -2.870   1.790  -0.452  0.00  0.00    +0.100 C 
ATOM      6  C   UNL     1      -3.929   1.802  -1.567  0.00  0.00    -0.004 C 
ATOM      7  C   UNL     1      -3.733   0.485  -2.333  0.00  0.00    +0.115 C 
ATOM      8  C   UNL     1      -3.700   2.987  -2.501  0.00  0.00    -0.010 C 
ATOM      9  C   UNL     1      -4.798   3.010  -3.568  0.00  0.00    -0.082 C 
ATOM     10  N   UNL     1      -6.110   3.119  -2.919  0.00  0.00    +0.379 N 
ATOM     11  C   UNL     1      -6.362   1.931  -2.095  0.00  0.00    -0.082 C 
ATOM     12  C   UNL     1      -5.329   1.862  -0.966  0.00  0.00    -0.010 C 
ATOM     13  H   UNL     1      -6.128   3.942  -2.335  0.00  0.00    -0.086 HD
ATOM     14  H   UNL     1      -6.827   3.195  -3.624  0.00  0.00    -0.086 HD
ENDROOT
BRANCH   1  16
ATOM     15  N   UNL     1       0.950   0.260  -2.447  0.00  0.00    -0.258 N 
ATOM     16  C   UNL     1      -0.051  -0.670  -2.485  0.00  0.00    +0.138 A 
ATOM     17  C   UNL     1       0.508  -1.858  -2.043  0.00  0.00    +0.071 A 
ATOM     18  C   UNL     1       1.843  -1.555  -1.761  0.00  0.00    +0.075 A 
ATOM     19  N   UNL     1       2.033  -0.288  -2.027  0.00  0.00    -0.175 NA
ATOM     20  C   UNL     1       2.882  -2.518  -1.246  0.00  0.00    +0.069 C 
ATOM     21 BR   UNL     1      -0.351  -3.532  -1.861  0.00  0.00    -0.046 Br
BRANCH  15  23
ATOM     22  C   UNL     1       1.000   1.804  -4.343  0.00  0.00    +0.029 C 
ATOM     23  C   UNL     1       0.809   1.667  -2.831  0.00  0.00    +0.141 C 
ENDBRANCH  15  23
ENDBRANCH   1  16
BRANCH   5  24
ATOM     24  C   UNL     1      -3.530   1.843   0.901  0.00  0.00    +0.218 C 
ATOM     25  O   UNL     1      -3.838   0.816   1.466  0.00  0.00    -0.275 OA
ATOM     26  N   UNL     1      -3.776   3.033   1.485  0.00  0.00    -0.311 N 
ATOM     27  H   UNL     1      -3.601   3.856   1.002  0.00  0.00    +0.149 HD
BRANCH  26  28
ATOM     28  C   UNL     1      -4.310   3.084   2.848  0.00  0.00    +0.139 C 
BRANCH  28  29
ATOM     29  C   UNL     1      -4.495   4.521   3.262  0.00  0.00    -0.027 A 
ATOM     30  C   UNL     1      -3.550   5.137   4.061  0.00  0.00    +0.005 A 
ATOM     31  C   UNL     1      -3.720   6.455   4.441  0.00  0.00    +0.001 A 
ATOM     32  C   UNL     1      -4.834   7.158   4.021  0.00  0.00    +0.003 A 
ATOM     33  C   UNL     1      -5.778   6.542   3.221  0.00  0.00    -0.047 A 
ATOM     34  C   UNL     1      -5.606   5.225   2.838  0.00  0.00    -0.043 A 
ATOM     35  C   UNL     1      -6.633   4.555   1.961  0.00  0.00    +0.044 C 
ATOM     36  C   UNL     1      -6.992   7.308   2.763  0.00  0.00    +0.044 C 
ENDBRANCH  28  29
ENDBRANCH  26  28
ENDBRANCH   5  24
TORSDOF 5
