REMARK  Name = ZINC49408016
REMARK  6 active torsions:
REMARK  status: ('A' for Active; 'I' for Inactive)
REMARK    1  A    between atoms: C_6  and  O_7
REMARK    2  A    between atoms: O_7  and  C_8
REMARK    3  A    between atoms: C_8  and  C_9
REMARK    4  A    between atoms: C_9  and  N_10
REMARK    5  A    between atoms: C_15  and  S_20
REMARK    6  A    between atoms: S_20  and  N_23
REMARK                            x       y       z     vdW  Elec       q    Type
REMARK                         _______ _______ _______ _____ _____    ______ ____
ROOT
ATOM      1  N   UNL     1      -3.168  -2.381  -1.231  0.00  0.00    -0.209 N 
ATOM      2  C   UNL     1      -3.163  -3.097  -2.374  0.00  0.00    +0.351 A 
ATOM      3  O   UNL     1      -2.582  -4.152  -2.557  0.00  0.00    -0.244 OA
ATOM      4  N   UNL     1      -3.916  -2.438  -3.278  0.00  0.00    -0.249 N 
ATOM      5  C   UNL     1      -4.239  -2.724  -4.583  0.00  0.00    +0.126 A 
ATOM      6  C   UNL     1      -5.023  -1.893  -5.293  0.00  0.00    +0.122 A 
ATOM      7  C   UNL     1      -5.530  -0.713  -4.713  0.00  0.00    +0.033 A 
ATOM      8  C   UNL     1      -5.226  -0.409  -3.427  0.00  0.00    +0.050 A 
ATOM      9  C   UNL     1      -4.399  -1.288  -2.683  0.00  0.00    +0.162 A 
ATOM     10  N   UNL     1      -3.959  -1.245  -1.447  0.00  0.00    -0.149 NA
ENDROOT
BRANCH   6  11
ATOM     11  S   UNL     1      -5.420  -2.284  -6.965  0.00  0.00    +0.062 S 
ATOM     12  O   UNL     1      -5.280  -1.080  -7.707  0.00  0.00    -0.153 OA
ATOM     13  O   UNL     1      -4.700  -3.466  -7.288  0.00  0.00    -0.153 OA
BRANCH  11  14
ATOM     14  N   UNL     1      -7.027  -2.683  -7.007  0.00  0.00    -0.177 NA
ATOM     15  C   UNL     1      -7.404  -4.064  -6.805  0.00  0.00    +0.109 C 
ATOM     16  C   UNL     1      -7.426  -4.801  -8.166  0.00  0.00    +0.017 C 
ATOM     17  C   UNL     1      -8.569  -4.349  -8.973  0.00  0.00    +0.001 C 
ATOM     18  C   UNL     1      -8.531  -2.870  -9.345  0.00  0.00    +0.001 C 
ATOM     19  C   UNL     1      -9.123  -2.056  -8.221  0.00  0.00    +0.017 C 
ATOM     20  C   UNL     1      -8.015  -1.612  -7.243  0.00  0.00    +0.109 C 
ENDBRANCH  11  14
ENDBRANCH   6  11
BRANCH   1  21
ATOM     21  C   UNL     1      -2.476  -2.731   0.012  0.00  0.00    +0.190 C 
BRANCH  21  22
ATOM     22  C   UNL     1      -1.071  -2.126   0.001  0.00  0.00    +0.252 C 
BRANCH  22  23
ATOM     23  O   UNL     1      -1.165  -0.700   0.010  0.00  0.00    -0.490 OA
BRANCH  23  29
ATOM     24  C   UNL     1      -0.017   1.383   0.010  0.00  0.00    +0.048 A 
ATOM     25  C   UNL     1       1.171   2.089   0.002  0.00  0.00    +0.042 A 
ATOM     26  C   UNL     1       2.379   1.413  -0.013  0.00  0.00    +0.124 A 
ATOM     27  C   UNL     1       2.399   0.029  -0.021  0.00  0.00    +0.042 A 
ATOM     28  C   UNL     1       1.213  -0.680  -0.014  0.00  0.00    +0.048 A 
ATOM     29  C   UNL     1       0.002  -0.004   0.002  0.00  0.00    +0.121 A 
ATOM     30  F   UNL     1       3.539   2.105  -0.020  0.00  0.00    -0.205 F 
ENDBRANCH  23  29
ENDBRANCH  22  23
ENDBRANCH  21  22
ENDBRANCH   1  21
TORSDOF 6
