REMARK  Name = ZINC06749917
REMARK  6 active torsions:
REMARK  status: ('A' for Active; 'I' for Inactive)
REMARK    1  A    between atoms: C_1  and  C_2
REMARK    2  A    between atoms: N_4  and  C_17
REMARK    3  A    between atoms: C_17  and  C_18
REMARK    4  A    between atoms: N_20  and  C_21
REMARK    5  A    between atoms: C_26  and  C_31
REMARK    6  A    between atoms: C_28  and  C_30
REMARK                            x       y       z     vdW  Elec       q    Type
REMARK                         _______ _______ _______ _____ _____    ______ ____
ROOT
ATOM      1  C   UNL     1      -2.390   2.433  -8.597  0.00  0.00    +0.088 C 
ATOM      2  C   UNL     1      -1.179   2.755  -7.759  0.00  0.00    +0.132 A 
ATOM      3  N   UNL     1      -0.822   1.934  -6.833  0.00  0.00    -0.154 NA
ATOM      4  N   UNL     1       0.285   2.167  -6.013  0.00  0.00    -0.217 N 
ATOM      5  C   UNL     1       1.031   3.281  -6.185  0.00  0.00    +0.292 A 
ATOM      6  O   UNL     1       2.003   3.499  -5.484  0.00  0.00    -0.264 OA
ATOM      7  C   UNL     1       0.635   4.223  -7.244  0.00  0.00    +0.115 A 
ATOM      8  N   UNL     1      -0.480   3.920  -8.011  0.00  0.00    -0.291 N 
ATOM      9  C   UNL     1      -0.663   4.927  -8.931  0.00  0.00    +0.056 A 
ATOM     10  C   UNL     1      -1.608   5.140  -9.931  0.00  0.00    +0.029 A 
ATOM     11  C   UNL     1      -1.535   6.269 -10.714  0.00  0.00    +0.040 A 
ATOM     12  C   UNL     1      -0.524   7.205 -10.515  0.00  0.00    +0.124 A 
ATOM     13  C   UNL     1       0.414   7.018  -9.540  0.00  0.00    +0.048 A 
ATOM     14  C   UNL     1       0.360   5.875  -8.731  0.00  0.00    +0.004 A 
ATOM     15  C   UNL     1       1.160   5.403  -7.664  0.00  0.00    +0.041 A 
ATOM     16  F   UNL     1      -0.470   8.308 -11.294  0.00  0.00    -0.205 F 
ENDROOT
BRANCH   4  17
ATOM     17  C   UNL     1       0.641   1.201  -4.971  0.00  0.00    +0.243 C 
BRANCH  17  18
ATOM     18  C   UNL     1      -0.061   1.564  -3.688  0.00  0.00    +0.235 C 
ATOM     19  O   UNL     1      -0.787   2.535  -3.648  0.00  0.00    -0.274 OA
ATOM     20  N   UNL     1       0.117   0.811  -2.585  0.00  0.00    -0.311 N 
ATOM     21  H   UNL     1       0.698   0.034  -2.616  0.00  0.00    +0.149 HD
BRANCH  20  22
ATOM     22  C   UNL     1      -0.565   1.164  -1.338  0.00  0.00    +0.076 C 
ATOM     23  C   UNL     1      -1.973   0.565  -1.340  0.00  0.00    +0.022 C 
ATOM     24  C   UNL     1      -2.687   0.934  -0.038  0.00  0.00    +0.002 C 
ATOM     25  C   UNL     1      -1.898   0.379   1.151  0.00  0.00    +0.003 C 
ATOM     26  C   UNL     1      -0.490   0.978   1.153  0.00  0.00    -0.009 C 
ATOM     27  C   UNL     1       0.223   0.609  -0.150  0.00  0.00    +0.009 C 
ATOM     28  C   UNL     1       1.631   1.208  -0.147  0.00  0.00    +0.009 C 
ATOM     29  C   UNL     1      -0.584   2.501   1.269  0.00  0.00    +0.008 C 
ENDBRANCH  20  22
ENDBRANCH  17  18
ENDBRANCH   4  17
TORSDOF 3
