REMARK  Name = ZINC08783243
REMARK  4 active torsions:
REMARK  status: ('A' for Active; 'I' for Inactive)
REMARK    1  A    between atoms: C_3  and  C_6
REMARK    2  A    between atoms: C_14  and  N_25
REMARK    3  A    between atoms: C_15  and  C_23
REMARK    4  A    between atoms: C_16  and  C_18
REMARK                            x       y       z     vdW  Elec       q    Type
REMARK                         _______ _______ _______ _____ _____    ______ ____
ROOT
ATOM      1  C   UNL     1       4.763   1.078  -0.364  0.00  0.00    +0.023 C 
ATOM      2  C   UNL     1       3.742   1.925  -0.610  0.00  0.00    +0.010 C 
ATOM      3  C   UNL     1       3.750   3.341  -0.075  0.00  0.00    +0.120 C 
ATOM      4  N   UNL     1       2.383   3.634   0.391  0.00  0.00    -0.308 NA
ATOM      5  C   UNL     1       1.437   3.599  -0.725  0.00  0.00    +0.117 C 
ATOM      6  C   UNL     1       1.490   2.281  -1.456  0.00  0.00    -0.000 C 
ATOM      7  C   UNL     1       2.576   1.505  -1.411  0.00  0.00    +0.136 C 
ATOM      8  O   UNL     1       2.639   0.326  -2.078  0.00  0.00    -0.441 OA
ATOM      9  C   UNL     1       1.508  -0.297  -2.450  0.00  0.00    +0.199 C 
ATOM     10  C   UNL     1       0.340   0.386  -2.553  0.00  0.00    +0.098 C 
ATOM     11  C   UNL     1       0.281   1.857  -2.254  0.00  0.00    +0.102 C 
ATOM     12  H   UNL     1       2.081   2.884   1.137  0.00  0.00    +0.123 HD
ENDROOT
BRANCH   1  15
ATOM     13  C   UNL     1       5.146  -2.537  -1.395  0.00  0.00    +0.008 A 
ATOM     14  C   UNL     1       5.518  -1.223  -1.235  0.00  0.00    +0.015 A 
ATOM     15  C   UNL     1       4.615  -0.351  -0.649  0.00  0.00    +0.013 A 
ATOM     16  S   UNL     1       3.220  -1.421  -0.340  0.00  0.00    -0.097 S 
ATOM     17  C   UNL     1       3.911  -2.934  -0.988  0.00  0.00    +0.046 A 
ENDBRANCH   1  15
BRANCH  11  18
ATOM     18  C   UNL     1       0.244   2.627  -3.549  0.00  0.00    +0.002 A 
ATOM     19  C   UNL     1      -0.708   3.474  -4.011  0.00  0.00    +0.012 A 
ATOM     20  C   UNL     1      -0.528   4.079  -5.240  0.00  0.00    +0.008 A 
ATOM     21  C   UNL     1       0.591   3.799  -5.953  0.00  0.00    +0.045 A 
ATOM     22  S   UNL     1       1.438   2.655  -4.875  0.00  0.00    -0.101 S 
ENDBRANCH  11  18
BRANCH   9  23
ATOM     23  N   UNL     1       1.534  -1.640  -2.729  0.00  0.00    -0.328 N 
ATOM     24  H   UNL     1       0.612  -2.157  -3.034  0.00  0.00    +0.145 HD
ATOM     25  H   UNL     1       2.478  -2.200  -2.648  0.00  0.00    +0.145 HD
ENDBRANCH   9  23
BRANCH  10  26
ATOM     26  C   UNL     1      -0.851  -0.304  -2.950  0.00  0.00    +0.101 C 
ATOM     27  N   UNL     1      -1.795  -0.851  -3.265  0.00  0.00    -0.191 NA
ENDBRANCH  10  26
TORSDOF 4
