REMARK  Name = ZINC02447309
REMARK  7 active torsions:
REMARK  status: ('A' for Active; 'I' for Inactive)
REMARK    1  A    between atoms: C_1  and  C_2
REMARK    2  A    between atoms: C_2  and  C_3
REMARK    3  A    between atoms: C_3  and  C_4
REMARK    4  A    between atoms: C_5  and  C_15
REMARK    5  A    between atoms: N_17  and  N_18
REMARK    6  A    between atoms: C_19  and  C_20
REMARK    7  A    between atoms: C_23  and  C_26
REMARK                            x       y       z     vdW  Elec       q    Type
REMARK                         _______ _______ _______ _____ _____    ______ ____
ROOT
ATOM      1  C   UNL     1       1.100   7.350   0.067  0.00  0.00    +0.285 C 
ATOM      2  O   UNL     1       0.213   8.182   0.077  0.00  0.00    -0.267 OA
ATOM      3  N   UNL     1       2.390   7.740   0.067  0.00  0.00    -0.202 N 
ATOM      4  H   UNL     1       3.097   7.077   0.059  0.00  0.00    +0.178 HD
ENDROOT
BRANCH   1   6
ATOM      5  C   UNL     1      -0.497   5.389   0.046  0.00  0.00    +0.079 A 
ATOM      6  C   UNL     1       0.764   5.914   0.054  0.00  0.00    +0.172 A 
ATOM      7  N   UNL     1       1.647   4.901   0.042  0.00  0.00    -0.124 NA
ATOM      8  N   UNL     1       1.016   3.778   0.032  0.00  0.00    -0.058 NA
ATOM      9  N   UNL     1      -0.360   4.045   0.038  0.00  0.00    -0.192 N 
ATOM     10  C   UNL     1      -1.393   3.100   0.031  0.00  0.00    +0.240 A 
ATOM     11  C   UNL     1      -1.224   1.645   0.017  0.00  0.00    +0.206 A 
ATOM     12  N   UNL     1      -2.408   1.094   0.020  0.00  0.00    -0.032 NA
ATOM     13  O   UNL     1      -3.369   2.134   0.030  0.00  0.00    -0.239 OA
ATOM     14  N   UNL     1      -2.669   3.366   0.033  0.00  0.00    -0.027 NA
ATOM     15  N   UNL     1      -0.011   0.966   0.007  0.00  0.00    -0.337 N 
ATOM     16  H   UNL     1       0.002  -0.004   0.002  0.00  0.00    +0.144 HD
ATOM     17  H   UNL     1       0.822   1.462   0.002  0.00  0.00    +0.144 HD
BRANCH   5  18
ATOM     18  C   UNL     1      -1.792   6.161   0.049  0.00  0.00    +0.058 C 
BRANCH  18  20
ATOM     19  C   UNL     1      -3.547   7.196   1.495  0.00  0.00    +0.004 C 
ATOM     20  C   UNL     1      -2.232   6.413   1.492  0.00  0.00    +0.003 C 
ENDBRANCH  18  20
ENDBRANCH   5  18
ENDBRANCH   1   6
BRANCH   3  21
ATOM     21  N   UNL     1       2.709   9.105   0.079  0.00  0.00    -0.187 NA
ATOM     22  C   UNL     1       3.952   9.480   0.080  0.00  0.00    +0.138 C 
BRANCH  22  23
ATOM     23  C   UNL     1       4.287  10.915   0.092  0.00  0.00    -0.005 A 
ATOM     24  C   UNL     1       3.268  11.872   0.099  0.00  0.00    +0.010 A 
ATOM     25  C   UNL     1       3.583  13.212   0.116  0.00  0.00    +0.009 A 
ATOM     26  C   UNL     1       4.919  13.615   0.116  0.00  0.00    -0.018 A 
ATOM     27  C   UNL     1       5.937  12.662   0.104  0.00  0.00    +0.009 A 
ATOM     28  C   UNL     1       5.625  11.321   0.093  0.00  0.00    +0.010 A 
BRANCH  26  29
ATOM     29  C   UNL     1       5.257  15.059   0.129  0.00  0.00    -0.018 A 
ATOM     30  C   UNL     1       6.590  15.466   0.135  0.00  0.00    +0.008 A 
ATOM     31  C   UNL     1       6.898  16.811   0.142  0.00  0.00    +0.001 A 
ATOM     32  C   UNL     1       5.887  17.755   0.153  0.00  0.00    +0.000 A 
ATOM     33  C   UNL     1       4.562  17.357   0.153  0.00  0.00    +0.001 A 
ATOM     34  C   UNL     1       4.242  16.015   0.141  0.00  0.00    +0.008 A 
ENDBRANCH  26  29
ENDBRANCH  22  23
ENDBRANCH   3  21
TORSDOF 6
