REMARK  Name = ZINC01423020
REMARK  8 active torsions:
REMARK  status: ('A' for Active; 'I' for Inactive)
REMARK    1  A    between atoms: C_1  and  C_2
REMARK    2  A    between atoms: C_2  and  O_3
REMARK    3  A    between atoms: O_3  and  C_4
REMARK    4  A    between atoms: C_4  and  C_6
REMARK    5  A    between atoms: C_10  and  N_11
REMARK    6  A    between atoms: C_12  and  C_14
REMARK    7  A    between atoms: C_15  and  C_32
REMARK    8  A    between atoms: C_23  and  C_25
REMARK                            x       y       z     vdW  Elec       q    Type
REMARK                         _______ _______ _______ _____ _____    ______ ____
ROOT
ATOM      1  N   UNL     1      -0.730  -3.046  -3.798  0.00  0.00    -0.275 N 
ATOM      2  C   UNL     1      -1.222  -3.211  -5.041  0.00  0.00    +0.247 C 
ATOM      3  O   UNL     1      -0.524  -3.695  -5.914  0.00  0.00    -0.270 OA
ATOM      4  H   UNL     1      -1.286  -2.661  -3.103  0.00  0.00    +0.156 HD
ENDROOT
BRANCH   2   5
ATOM      5  C   UNL     1      -2.547  -2.822  -5.333  0.00  0.00    +0.047 C 
ATOM      6  C   UNL     1      -3.026  -2.842  -6.607  0.00  0.00    +0.048 C 
ATOM      7  N   UNL     1      -4.265  -2.484  -6.915  0.00  0.00    -0.256 NA
ATOM      8  C   UNL     1      -5.175  -2.073  -6.063  0.00  0.00    +0.049 C 
ATOM      9  C   UNL     1      -6.548  -1.698  -6.569  0.00  0.00    +0.056 C 
ATOM     10  C   UNL     1      -7.580  -1.963  -5.469  0.00  0.00    +0.014 C 
ATOM     11  C   UNL     1      -7.189  -1.167  -4.221  0.00  0.00    +0.080 C 
ATOM     12  C   UNL     1      -5.799  -1.560  -3.796  0.00  0.00    +0.162 C 
ATOM     13  C   UNL     1      -4.888  -1.978  -4.691  0.00  0.00    +0.028 C 
ATOM     14  C   UNL     1      -3.495  -2.371  -4.236  0.00  0.00    +0.092 C 
ATOM     15  O   UNL     1      -5.462  -1.492  -2.493  0.00  0.00    -0.292 OA
ATOM     16  C   UNL     1      -2.108  -3.290  -7.715  0.00  0.00    +0.066 C 
BRANCH  14  17
ATOM     17  C   UNL     1      -3.621  -3.489  -3.233  0.00  0.00    -0.017 A 
ATOM     18  C   UNL     1      -3.263  -3.287  -1.908  0.00  0.00    +0.007 A 
ATOM     19  C   UNL     1      -3.395  -4.343  -1.020  0.00  0.00    +0.020 A 
ATOM     20  C   UNL     1      -3.877  -5.554  -1.481  0.00  0.00    +0.111 A 
ATOM     21  N   UNL     1      -4.208  -5.710  -2.748  0.00  0.00    -0.263 NA
ATOM     22  C   UNL     1      -4.101  -4.726  -3.619  0.00  0.00    +0.115 A 
ENDBRANCH  14  17
ENDBRANCH   2   5
BRANCH   1  27
ATOM     23  C   UNL     1       1.240  -3.334  -2.300  0.00  0.00    +0.091 A 
ATOM     24  C   UNL     1       2.611  -3.814  -2.262  0.00  0.00    -0.021 A 
ATOM     25  C   UNL     1       3.062  -4.293  -3.440  0.00  0.00    -0.004 A 
ATOM     26  S   UNL     1       1.699  -4.106  -4.553  0.00  0.00    -0.077 S 
ATOM     27  C   UNL     1       0.570  -3.427  -3.512  0.00  0.00    +0.087 A 
ATOM     28  C   UNL     1       4.422  -4.854  -3.722  0.00  0.00    +0.043 C 
ATOM     29  C   UNL     1       5.355  -4.458  -2.569  0.00  0.00    +0.005 C 
ATOM     30  C   UNL     1       4.660  -4.767  -1.240  0.00  0.00    +0.005 C 
ATOM     31  C   UNL     1       3.495  -3.798  -1.024  0.00  0.00    +0.037 C 
BRANCH  23  32
ATOM     32  C   UNL     1       0.591  -2.781  -1.110  0.00  0.00    +0.342 C 
ATOM     33  O   UNL     1      -0.019  -3.514  -0.354  0.00  0.00    -0.245 OA
BRANCH  32  34
ATOM     34  O   UNL     1       0.669  -1.460  -0.852  0.00  0.00    -0.461 OA
BRANCH  34  36
ATOM     35  C   UNL     1       0.209   0.523   0.451  0.00  0.00    +0.048 C 
ATOM     36  C   UNL     1       0.012  -0.989   0.327  0.00  0.00    +0.229 C 
ENDBRANCH  34  36
ENDBRANCH  32  34
ENDBRANCH  23  32
ENDBRANCH   1  27
TORSDOF 6
