REMARK  Name = ZINC37766206
REMARK  6 active torsions:
REMARK  status: ('A' for Active; 'I' for Inactive)
REMARK    1  A    between atoms: C_1  and  C_2
REMARK    2  A    between atoms: C_2  and  C_3
REMARK    3  A    between atoms: C_3  and  N_4
REMARK    4  A    between atoms: C_6  and  N_11
REMARK    5  A    between atoms: C_12  and  C_14
REMARK    6  A    between atoms: C_17  and  O_21
REMARK                            x       y       z     vdW  Elec       q    Type
REMARK                         _______ _______ _______ _____ _____    ______ ____
ROOT
ATOM      1  N   UNL     1      -1.389  -4.698  -2.442  0.00  0.00    -0.286 N 
ATOM      2  C   UNL     1      -0.369  -5.520  -2.757  0.00  0.00    +0.203 C 
ATOM      3  O   UNL     1       0.501  -5.747  -1.943  0.00  0.00    -0.277 OA
ATOM      4  H   UNL     1      -2.120  -4.571  -3.067  0.00  0.00    +0.155 HD
ENDROOT
BRANCH   1   7
ATOM      5  N   UNL     1      -1.469  -2.006   0.012  0.00  0.00    -0.313 N 
ATOM      6  C   UNL     1      -1.463  -2.668  -1.175  0.00  0.00    +0.112 A 
ATOM      7  C   UNL     1      -1.394  -4.025  -1.210  0.00  0.00    +0.050 A 
ATOM      8  C   UNL     1      -1.326  -4.753  -0.009  0.00  0.00    +0.030 A 
ATOM      9  C   UNL     1      -1.332  -4.082   1.178  0.00  0.00    +0.072 A 
ATOM     10  C   UNL     1      -1.401  -2.679   1.177  0.00  0.00    +0.251 A 
ATOM     11  O   UNL     1      -1.402  -2.068   2.234  0.00  0.00    -0.268 OA
BRANCH   5  12
ATOM     12  C   UNL     1      -1.545  -0.543   0.025  0.00  0.00    +0.124 C 
BRANCH  12  14
ATOM     13  C   UNL     1      -0.211   1.569   0.000  0.00  0.00    +0.005 C 
ATOM     14  C   UNL     1      -0.132   0.041  -0.013  0.00  0.00    +0.018 C 
ENDBRANCH  12  14
ENDBRANCH   5  12
ENDBRANCH   1   7
BRANCH   2  15
ATOM     15  C   UNL     1      -0.308  -6.158  -4.121  0.00  0.00    +0.019 C 
ATOM     16  C   UNL     1       0.283  -5.167  -5.154  0.00  0.00    +0.023 C 
ATOM     17  C   UNL     1       0.836  -6.133  -6.235  0.00  0.00    +0.097 C 
ATOM     18  C   UNL     1       1.343  -7.330  -5.404  0.00  0.00    -0.050 C 
ATOM     19  N   UNL     1       0.627  -7.302  -4.114  0.00  0.00    +0.388 N 
ATOM     20  H   UNL     1       1.290  -7.194  -3.361  0.00  0.00    -0.085 HD
ATOM     21  H   UNL     1       0.112  -8.161  -3.990  0.00  0.00    -0.085 HD
BRANCH  17  22
ATOM     22  O   UNL     1       1.908  -5.524  -6.957  0.00  0.00    -0.394 OA
ATOM     23  H   UNL     1       2.288  -6.087  -7.645  0.00  0.00    +0.210 HD
ENDBRANCH  17  22
ENDBRANCH   2  15
TORSDOF 5
