REMARK  Name = ZINC21985424
REMARK  6 active torsions:
REMARK  status: ('A' for Active; 'I' for Inactive)
REMARK    1  A    between atoms: C_4  and  C_13
REMARK    2  A    between atoms: C_11  and  O_12
REMARK    3  A    between atoms: C_13  and  S_14
REMARK    4  A    between atoms: S_14  and  C_15
REMARK    5  A    between atoms: C_18  and  C_21
REMARK    6  A    between atoms: N_19  and  N_20
REMARK                            x       y       z     vdW  Elec       q    Type
REMARK                         _______ _______ _______ _____ _____    ______ ____
ROOT
ATOM      1  C   UNL     1       2.492  -2.751  -1.447  0.00  0.00    +0.209 A 
ATOM      2  N   UNL     1       2.551  -3.361  -0.284  0.00  0.00    -0.121 NA
ATOM      3  N   UNL     1       2.815  -4.607  -0.452  0.00  0.00    -0.127 NA
ATOM      4  C   UNL     1       2.948  -4.869  -1.731  0.00  0.00    +0.183 A 
ATOM      5  N   UNL     1       2.745  -3.688  -2.408  0.00  0.00    -0.224 N 
ENDROOT
BRANCH   4   6
ATOM      6  C   UNL     1       3.257  -6.184  -2.331  0.00  0.00    +0.039 A 
ATOM      7  C   UNL     1       4.241  -6.290  -3.317  0.00  0.00    +0.014 A 
ATOM      8  C   UNL     1       4.529  -7.521  -3.869  0.00  0.00    +0.021 A 
ATOM      9  C   UNL     1       3.837  -8.648  -3.457  0.00  0.00    +0.042 A 
ATOM     10  C   UNL     1       2.857  -8.549  -2.484  0.00  0.00    +0.040 A 
ATOM     11  C   UNL     1       2.563  -7.323  -1.919  0.00  0.00    +0.053 A 
ATOM     12 CL   UNL     1       1.333  -7.200  -0.700  0.00  0.00    -0.083 Cl
ATOM     13 CL   UNL     1       4.201 -10.192  -4.162  0.00  0.00    -0.083 Cl
ENDBRANCH   4   6
BRANCH   5  14
ATOM     14  N   UNL     1       2.789  -3.493  -3.759  0.00  0.00    -0.295 N 
ATOM     15  H   UNL     1       3.006  -4.338  -4.430  0.00  0.00    +0.163 HD
ATOM     16  H   UNL     1       2.608  -2.492  -4.177  0.00  0.00    +0.163 HD
ENDBRANCH   5  14
BRANCH   1  17
ATOM     17  S   UNL     1       2.155  -1.043  -1.716  0.00  0.00    -0.080 S 
BRANCH  17  18
ATOM     18  C   UNL     1       1.935  -0.493  -0.005  0.00  0.00    +0.113 C 
BRANCH  18  22
ATOM     19  C   UNL     1      -2.102   1.047  -0.207  0.00  0.00    +0.046 A 
ATOM     20  C   UNL     1      -0.825   0.570  -0.139  0.00  0.00    +0.015 A 
ATOM     21  C   UNL     1       0.247   1.465  -0.055  0.00  0.00    +0.022 A 
ATOM     22  C   UNL     1       1.628   0.983   0.013  0.00  0.00    -0.020 A 
ATOM     23  C   UNL     1       2.626   1.901   0.091  0.00  0.00    +0.097 A 
ATOM     24  C   UNL     1       2.314   3.276   0.107  0.00  0.00    +0.338 A 
ATOM     25  O   UNL     1       3.218   4.089   0.178  0.00  0.00    -0.245 OA
ATOM     26  O   UNL     1       1.046   3.712   0.045  0.00  0.00    -0.422 OA
ATOM     27  C   UNL     1       0.008   2.852  -0.035  0.00  0.00    +0.143 A 
ATOM     28  C   UNL     1      -1.296   3.319  -0.099  0.00  0.00    +0.092 A 
ATOM     29  C   UNL     1      -2.346   2.418  -0.181  0.00  0.00    +0.120 A 
BRANCH  29  30
ATOM     30  O   UNL     1      -3.622   2.877  -0.244  0.00  0.00    -0.507 OA
ATOM     31  H   UNL     1      -3.820   3.958  -0.224  0.00  0.00    +0.292 HD
ENDBRANCH  29  30
ENDBRANCH  18  22
ENDBRANCH  17  18
ENDBRANCH   1  17
TORSDOF 6
