REMARK  Name = ZINC13265096
REMARK  10 active torsions:
REMARK  status: ('A' for Active; 'I' for Inactive)
REMARK    1  A    between atoms: C_1  and  C_2
REMARK    2  A    between atoms: C_2  and  C_3
REMARK    3  A    between atoms: C_2  and  C_4
REMARK    4  A    between atoms: C_4  and  O_5
REMARK    5  A    between atoms: O_5  and  C_6
REMARK    6  A    between atoms: C_9  and  C_12
REMARK    7  A    between atoms: N_14  and  N_15
REMARK    8  A    between atoms: N_15  and  S_16
REMARK    9  A    between atoms: S_16  and  C_19
REMARK   10  A    between atoms: C_21  and  C_26
REMARK                            x       y       z     vdW  Elec       q    Type
REMARK                         _______ _______ _______ _____ _____    ______ ____
ROOT
ATOM      1  C   UNL     1      -1.139   1.030  -0.132  0.00  0.00    +0.259 C 
ATOM      2  O   UNL     1      -1.405   2.216  -0.098  0.00  0.00    -0.269 OA
ATOM      3  N   UNL     1       0.146   0.626  -0.082  0.00  0.00    -0.228 N 
ATOM      4  H   UNL     1       0.358  -0.320  -0.109  0.00  0.00    +0.171 HD
ENDROOT
BRANCH   1   8
ATOM      5  C   UNL     1      -4.258  -1.839  -0.406  0.00  0.00    +0.121 A 
ATOM      6  C   UNL     1      -4.564  -0.483  -0.367  0.00  0.00    +0.046 A 
ATOM      7  C   UNL     1      -3.556   0.450  -0.278  0.00  0.00    +0.016 A 
ATOM      8  C   UNL     1      -2.223   0.033  -0.227  0.00  0.00    +0.038 A 
ATOM      9  C   UNL     1      -1.919  -1.330  -0.271  0.00  0.00    +0.016 A 
ATOM     10  C   UNL     1      -2.934  -2.258  -0.354  0.00  0.00    +0.046 A 
BRANCH   5  11
ATOM     11  O   UNL     1      -5.255  -2.756  -0.494  0.00  0.00    -0.492 OA
BRANCH  11  12
ATOM     12  C   UNL     1      -4.870  -4.131  -0.529  0.00  0.00    +0.232 C 
BRANCH  12  14
ATOM     13  C   UNL     1      -6.820  -4.749  -1.964  0.00  0.00    +0.010 C 
ATOM     14  C   UNL     1      -6.120  -5.008  -0.629  0.00  0.00    +0.020 C 
ATOM     15  C   UNL     1      -5.717  -6.482  -0.541  0.00  0.00    +0.010 C 
ENDBRANCH  12  14
ENDBRANCH  11  12
ENDBRANCH   5  11
ENDBRANCH   1   8
BRANCH   3  16
ATOM     16  N   UNL     1       1.175   1.572   0.003  0.00  0.00    -0.108 NA
ATOM     17  H   UNL     1       1.239   2.280  -0.658  0.00  0.00    +0.172 HD
BRANCH  16  18
ATOM     18  S   UNL     1       2.283   1.484   1.230  0.00  0.00    +0.075 S 
ATOM     19  O   UNL     1       2.800   0.160   1.216  0.00  0.00    -0.152 OA
ATOM     20  O   UNL     1       3.116   2.628   1.109  0.00  0.00    -0.152 OA
BRANCH  18  21
ATOM     21  C   UNL     1       1.398   1.663   2.744  0.00  0.00    +0.121 A 
ATOM     22  C   UNL     1       1.359   0.620   3.645  0.00  0.00    +0.044 A 
ATOM     23  C   UNL     1       0.662   0.765   4.846  0.00  0.00    +0.065 A 
ATOM     24  C   UNL     1      -0.001   1.963   5.122  0.00  0.00    +0.016 A 
ATOM     25  C   UNL     1       0.041   2.996   4.210  0.00  0.00    +0.018 A 
ATOM     26  C   UNL     1       0.739   2.848   3.023  0.00  0.00    +0.044 A 
ATOM     27 BR   UNL     1       0.793   4.271   1.778  0.00  0.00    -0.048 Br
BRANCH  23  28
ATOM     28  C   UNL     1       0.621  -0.346   5.819  0.00  0.00    +0.387 C 
ATOM     29  O   UNL     1       1.198  -1.387   5.577  0.00  0.00    -0.241 OA
ATOM     30  O   UNL     1      -0.056  -0.204   6.975  0.00  0.00    -0.241 OA
ENDBRANCH  23  28
ENDBRANCH  18  21
ENDBRANCH  16  18
ENDBRANCH   3  16
TORSDOF 8
