REMARK  Name = ZINC08502733
REMARK  8 active torsions:
REMARK  status: ('A' for Active; 'I' for Inactive)
REMARK    1  A    between atoms: C_1  and  C_2
REMARK    2  A    between atoms: C_5  and  C_8
REMARK    3  A    between atoms: C_8  and  C_32
REMARK    4  A    between atoms: N_11  and  C_15
REMARK    5  A    between atoms: C_15  and  C_16
REMARK    6  A    between atoms: N_18  and  C_19
REMARK    7  A    between atoms: C_19  and  C_21
REMARK    8  A    between atoms: C_19  and  C_22
REMARK                            x       y       z     vdW  Elec       q    Type
REMARK                         _______ _______ _______ _____ _____    ______ ____
ROOT
ATOM      1  C   UNL     1      -5.769   2.552   1.822  0.00  0.00    +0.213 C 
ENDROOT
BRANCH   1   5
ATOM      2  C   UNL     1      -8.783   4.551   2.669  0.00  0.00    +0.135 C 
ATOM      3  C   UNL     1      -7.949   3.741   1.697  0.00  0.00    +0.251 C 
ATOM      4  O   UNL     1      -8.213   3.487   0.541  0.00  0.00    -0.272 OA
ATOM      5  N   UNL     1      -6.854   3.362   2.384  0.00  0.00    -0.215 N 
ATOM      6  C   UNL     1      -6.881   3.811   3.644  0.00  0.00    +0.310 C 
ATOM      7  O   UNL     1      -6.005   3.594   4.458  0.00  0.00    -0.252 OA
ATOM      8  N   UNL     1      -7.985   4.533   3.908  0.00  0.00    -0.281 N 
ATOM      9  C   UNL     1     -10.143   3.888   2.895  0.00  0.00    +0.047 C 
ATOM     10  H   UNL     1      -8.213   4.956   4.750  0.00  0.00    +0.152 HD
BRANCH   2  15
ATOM     11  C   UNL     1      -9.446   9.965   0.759  0.00  0.00    +0.044 C 
ATOM     12  C   UNL     1      -9.273   8.553   1.257  0.00  0.00    -0.050 A 
ATOM     13  C   UNL     1      -9.260   8.296   2.615  0.00  0.00    +0.004 A 
ATOM     14  C   UNL     1      -9.102   7.001   3.072  0.00  0.00    +0.006 A 
ATOM     15  C   UNL     1      -8.956   5.963   2.171  0.00  0.00    -0.015 A 
ATOM     16  C   UNL     1      -8.962   6.221   0.813  0.00  0.00    +0.006 A 
ATOM     17  C   UNL     1      -9.126   7.515   0.356  0.00  0.00    +0.004 A 
ENDBRANCH   2  15
ENDBRANCH   1   5
BRANCH   1  18
ATOM     18  C   UNL     1      -4.728   3.458   1.216  0.00  0.00    +0.231 C 
ATOM     19  O   UNL     1      -4.878   4.661   1.250  0.00  0.00    -0.274 OA
ATOM     20  N   UNL     1      -3.632   2.931   0.637  0.00  0.00    -0.307 N 
ATOM     21  H   UNL     1      -3.512   1.968   0.610  0.00  0.00    +0.149 HD
BRANCH  20  22
ATOM     22  C   UNL     1      -2.620   3.811   0.048  0.00  0.00    +0.101 C 
ATOM     23  C   UNL     1      -3.025   4.168  -1.384  0.00  0.00    +0.033 C 
BRANCH  22  24
ATOM     24  C   UNL     1      -1.288   3.106   0.032  0.00  0.00    -0.020 A 
ATOM     25  C   UNL     1      -1.234   1.746   0.017  0.00  0.00    +0.006 A 
ATOM     26  C   UNL     1      -0.013   1.076   0.008  0.00  0.00    +0.001 A 
ATOM     27  C   UNL     1       1.163   1.762   0.000  0.00  0.00    +0.008 A 
ATOM     28  C   UNL     1       1.147   3.167   0.008  0.00  0.00    -0.018 A 
ATOM     29  C   UNL     1      -0.095   3.848   0.024  0.00  0.00    -0.013 A 
ATOM     30  C   UNL     1      -0.111   5.254   0.031  0.00  0.00    +0.009 A 
ATOM     31  C   UNL     1       1.064   5.940   0.023  0.00  0.00    +0.001 A 
ATOM     32  C   UNL     1       2.287   5.270   0.008  0.00  0.00    +0.001 A 
ATOM     33  C   UNL     1       2.340   3.910   0.000  0.00  0.00    +0.008 A 
ENDBRANCH  22  24
ENDBRANCH  20  22
ENDBRANCH   1  18
TORSDOF 5
