REMARK  Name = ZINC11859731
REMARK  8 active torsions:
REMARK  status: ('A' for Active; 'I' for Inactive)
REMARK    1  A    between atoms: C_1  and  C_2
REMARK    2  A    between atoms: C_2  and  O_3
REMARK    3  A    between atoms: O_3  and  C_4
REMARK    4  A    between atoms: C_7  and  N_10
REMARK    5  A    between atoms: C_13  and  C_28
REMARK    6  A    between atoms: N_17  and  S_18
REMARK    7  A    between atoms: S_18  and  C_21
REMARK    8  A    between atoms: C_24  and  C_27
REMARK                            x       y       z     vdW  Elec       q    Type
REMARK                         _______ _______ _______ _____ _____    ______ ____
ROOT
ATOM      1  N   UNL     1      -1.989  -5.992  -0.013  0.00  0.00    -0.217 N 
ATOM      2  C   UNL     1      -3.209  -6.489   0.087  0.00  0.00    +0.239 C 
ATOM      3  O   UNL     1      -4.188  -5.780   0.183  0.00  0.00    -0.274 OA
ATOM      4  C   UNL     1      -3.310  -8.006   0.073  0.00  0.00    +0.138 C 
ATOM      5  S   UNL     1      -1.532  -8.454  -0.090  0.00  0.00    -0.076 S 
ATOM      6  C   UNL     1      -0.869  -6.795  -0.129  0.00  0.00    +0.189 C 
ATOM      7  N   UNL     1       0.376  -6.429  -0.239  0.00  0.00    -0.105 NA
ATOM      8  C   UNL     1      -4.119  -8.497  -1.130  0.00  0.00    +0.029 C 
ENDROOT
BRANCH   1  12
ATOM      9  C   UNL     1      -1.500  -1.849   0.008  0.00  0.00    +0.121 A 
ATOM     10  C   UNL     1      -1.688  -2.519  -1.192  0.00  0.00    +0.047 A 
ATOM     11  C   UNL     1      -1.850  -3.890  -1.199  0.00  0.00    +0.027 A 
ATOM     12  C   UNL     1      -1.824  -4.598  -0.006  0.00  0.00    +0.043 A 
ATOM     13  C   UNL     1      -1.635  -3.927   1.195  0.00  0.00    +0.027 A 
ATOM     14  C   UNL     1      -1.468  -2.557   1.201  0.00  0.00    +0.047 A 
BRANCH   9  15
ATOM     15  O   UNL     1      -1.341  -0.498   0.015  0.00  0.00    -0.492 OA
BRANCH  15  17
ATOM     16  C   UNL     1      -1.188   1.669  -1.043  0.00  0.00    +0.048 C 
ATOM     17  C   UNL     1      -1.384   0.166  -1.250  0.00  0.00    +0.225 C 
ENDBRANCH  15  17
ENDBRANCH   9  15
ENDBRANCH   1  12
BRANCH   7  18
ATOM     18  S   UNL     1       1.567  -7.572  -0.367  0.00  0.00    +0.101 S 
ATOM     19  O   UNL     1       1.595  -8.270   0.871  0.00  0.00    -0.146 OA
ATOM     20  O   UNL     1       1.365  -8.232  -1.609  0.00  0.00    -0.146 OA
BRANCH  18  21
ATOM     21  C   UNL     1       3.101  -6.714  -0.496  0.00  0.00    +0.113 A 
ATOM     22  C   UNL     1       3.589  -6.354  -1.738  0.00  0.00    +0.029 A 
ATOM     23  C   UNL     1       4.793  -5.681  -1.839  0.00  0.00    +0.005 A 
ATOM     24  C   UNL     1       5.507  -5.368  -0.698  0.00  0.00    -0.050 A 
ATOM     25  C   UNL     1       5.019  -5.727   0.544  0.00  0.00    +0.005 A 
ATOM     26  C   UNL     1       3.813  -6.396   0.646  0.00  0.00    +0.029 A 
ATOM     27  C   UNL     1       6.820  -4.635  -0.808  0.00  0.00    +0.044 C 
ENDBRANCH  18  21
ENDBRANCH   7  18
TORSDOF 5
