REMARK  Name = ZINC55125159
REMARK  4 active torsions:
REMARK  status: ('A' for Active; 'I' for Inactive)
REMARK    1  A    between atoms: C_1  and  C_2
REMARK    2  A    between atoms: C_6  and  C_12
REMARK    3  A    between atoms: C_9  and  N_11
REMARK    4  A    between atoms: N_14  and  C_15
REMARK                            x       y       z     vdW  Elec       q    Type
REMARK                         _______ _______ _______ _____ _____    ______ ____
ROOT
ATOM      1  C   UNL     1       2.893  -2.013  -0.036  0.00  0.00    +0.216 C 
ATOM      2  O   UNL     1       3.289  -1.315   0.873  0.00  0.00    -0.276 OA
ATOM      3  N   UNL     1       3.717  -2.321  -1.057  0.00  0.00    -0.310 N 
ATOM      4  H   UNL     1       3.401  -2.879  -1.784  0.00  0.00    +0.149 HD
ENDROOT
BRANCH   3   5
ATOM      5  C   UNL     1       5.092  -1.814  -1.067  0.00  0.00    +0.035 C 
ATOM      6  C   UNL     1       5.071  -0.284  -1.059  0.00  0.00    +0.029 C 
ATOM      7  C   UNL     1       6.506   0.245  -1.070  0.00  0.00    -0.008 C 
ATOM      8  C   UNL     1       7.223  -0.248  -2.328  0.00  0.00    +0.007 C 
ATOM      9  C   UNL     1       7.243  -1.778  -2.337  0.00  0.00    -0.008 C 
ATOM     10  C   UNL     1       5.808  -2.308  -2.326  0.00  0.00    +0.029 C 
ATOM     11  C   UNL     1       7.983  -2.285  -1.097  0.00  0.00    +0.007 C 
ATOM     12  C   UNL     1       7.267  -1.792   0.162  0.00  0.00    -0.008 C 
ATOM     13  C   UNL     1       7.246  -0.262   0.170  0.00  0.00    +0.007 C 
ATOM     14  C   UNL     1       5.832  -2.321   0.172  0.00  0.00    +0.029 C 
ENDBRANCH   3   5
BRANCH   1  19
ATOM     15  C   UNL     1      -0.019   1.526   0.010  0.00  0.00    +0.006 C 
ATOM     16  C   UNL     1       0.002  -0.004   0.002  0.00  0.00    -0.029 C 
ATOM     17  C   UNL     1       0.718  -0.497  -1.257  0.00  0.00    +0.002 C 
ATOM     18  C   UNL     1       0.739  -2.027  -1.265  0.00  0.00    +0.013 C 
ATOM     19  C   UNL     1       1.479  -2.534  -0.026  0.00  0.00    +0.073 C 
ATOM     20  C   UNL     1       0.763  -2.041   1.233  0.00  0.00    -0.003 C 
ATOM     21  C   UNL     1       0.742  -0.511   1.242  0.00  0.00    -0.072 C 
BRANCH  21  22
ATOM     22  N   UNL     1       0.054  -0.037   2.450  0.00  0.00    +0.380 N 
ATOM     23  H   UNL     1      -0.892  -0.386   2.457  0.00  0.00    -0.090 HD
ATOM     24  H   UNL     1       0.542  -0.371   3.268  0.00  0.00    -0.090 HD
ATOM     25  H   UNL     1       0.041   0.972   2.456  0.00  0.00    -0.090 HD
ENDBRANCH  21  22
ENDBRANCH   1  19
TORSDOF 3
