REMARK  Name = ZINC39361526
REMARK  9 active torsions:
REMARK  status: ('A' for Active; 'I' for Inactive)
REMARK    1  A    between atoms: C_1  and  C_2
REMARK    2  A    between atoms: C_6  and  N_9
REMARK    3  A    between atoms: C_7  and  C_8
REMARK    4  A    between atoms: C_10  and  C_12
REMARK    5  A    between atoms: C_12  and  S_13
REMARK    6  A    between atoms: S_13  and  C_14
REMARK    7  A    between atoms: C_17  and  C_26
REMARK    8  A    between atoms: N_19  and  C_20
REMARK    9  A    between atoms: C_26  and  C_27
REMARK                            x       y       z     vdW  Elec       q    Type
REMARK                         _______ _______ _______ _____ _____    ______ ____
ROOT
ATOM      1  C   UNL     1      -0.330  -7.412   4.943  0.00  0.00    +0.180 C 
ATOM      2  N   UNL     1      -0.337  -6.744   6.046  0.00  0.00    -0.162 NA
ATOM      3  N   UNL     1      -0.437  -7.590   7.158  0.00  0.00    -0.246 N 
ATOM      4  C   UNL     1      -0.497  -8.963   6.625  0.00  0.00    +0.187 C 
ATOM      5  N   UNL     1      -0.427  -8.779   5.165  0.00  0.00    -0.258 N 
ATOM      6  H   UNL     1      -0.462  -7.326   8.091  0.00  0.00    +0.170 HD
ENDROOT
BRANCH   5   7
ATOM      7  C   UNL     1      -0.452  -9.783   4.194  0.00  0.00    +0.037 A 
ATOM      8  C   UNL     1       0.465 -10.826   4.247  0.00  0.00    +0.023 A 
ATOM      9  C   UNL     1       0.437 -11.817   3.287  0.00  0.00    +0.002 A 
ATOM     10  C   UNL     1      -0.502 -11.774   2.273  0.00  0.00    +0.000 A 
ATOM     11  C   UNL     1      -1.417 -10.738   2.217  0.00  0.00    +0.002 A 
ATOM     12  C   UNL     1      -1.398  -9.746   3.178  0.00  0.00    +0.023 A 
ENDBRANCH   5   7
BRANCH   1  13
ATOM     13  S   UNL     1      -0.216  -6.678   3.345  0.00  0.00    -0.079 S 
BRANCH  13  14
ATOM     14  C   UNL     1      -0.115  -4.899   3.686  0.00  0.00    +0.173 C 
BRANCH  14  16
ATOM     15  N   UNL     1       0.075  -2.799   2.393  0.00  0.00    -0.285 N 
ATOM     16  C   UNL     1      -0.012  -4.144   2.386  0.00  0.00    +0.227 C 
ATOM     17  O   UNL     1      -0.008  -4.746   1.333  0.00  0.00    -0.275 OA
ATOM     18  H   UNL     1       0.153  -2.322   3.235  0.00  0.00    +0.155 HD
BRANCH  15  24
ATOM     19  C   UNL     1       1.244   1.231  -0.168  0.00  0.00    +0.044 C 
ATOM     20  C   UNL     1       0.612  -0.134  -0.082  0.00  0.00    -0.046 A 
ATOM     21  C   UNL     1       0.008  -0.687  -1.197  0.00  0.00    +0.004 A 
ATOM     22  C   UNL     1      -0.573  -1.940  -1.123  0.00  0.00    +0.002 A 
ATOM     23  C   UNL     1      -0.552  -2.642   0.066  0.00  0.00    +0.023 A 
ATOM     24  C   UNL     1       0.053  -2.090   1.187  0.00  0.00    +0.037 A 
ATOM     25  C   UNL     1       0.640  -0.834   1.108  0.00  0.00    -0.026 A 
ATOM     26  C   UNL     1       1.303  -0.232   2.320  0.00  0.00    +0.046 C 
ENDBRANCH  15  24
ENDBRANCH  14  16
ENDBRANCH  13  14
ENDBRANCH   1  13
BRANCH   4  27
ATOM     27  C   UNL     1      -1.814  -9.634   7.018  0.00  0.00    +0.097 C 
BRANCH  27  28
ATOM     28  C   UNL     1      -1.906  -9.720   8.519  0.00  0.00    +0.029 A 
ATOM     29  N   UNL     1      -1.322 -10.764   9.185  0.00  0.00    -0.311 N 
ATOM     30  C   UNL     1      -1.398 -10.849  10.526  0.00  0.00    +0.327 A 
ATOM     31  O   UNL     1      -0.872 -11.785  11.097  0.00  0.00    -0.247 OA
ATOM     32  N   UNL     1      -2.047  -9.914  11.243  0.00  0.00    -0.275 N 
ATOM     33  C   UNL     1      -2.636  -8.870  10.625  0.00  0.00    +0.254 A 
ATOM     34  O   UNL     1      -3.223  -8.023  11.273  0.00  0.00    -0.268 OA
ATOM     35  C   UNL     1      -2.559  -8.765   9.215  0.00  0.00    +0.091 A 
ATOM     36  H   UNL     1      -2.092  -9.991  12.209  0.00  0.00    +0.173 HD
ATOM     37  H   UNL     1      -0.850 -11.448   8.686  0.00  0.00    +0.170 HD
ENDBRANCH  27  28
ENDBRANCH   4  27
TORSDOF 7
