REMARK  Name = ZINC51994510
REMARK  5 active torsions:
REMARK  status: ('A' for Active; 'I' for Inactive)
REMARK    1  A    between atoms: C_3  and  N_21
REMARK    2  A    between atoms: C_4  and  S_8
REMARK    3  A    between atoms: S_8  and  N_11
REMARK    4  A    between atoms: N_11  and  C_12
REMARK    5  A    between atoms: C_18  and  O_20
REMARK                            x       y       z     vdW  Elec       q    Type
REMARK                         _______ _______ _______ _____ _____    ______ ____
ROOT
ATOM      1  S   UNL     1       3.896  -0.844  -0.214  0.00  0.00    +0.061 S 
ATOM      2  O   UNL     1       4.686  -0.421   0.888  0.00  0.00    -0.153 OA
ATOM      3  O   UNL     1       3.411  -2.174  -0.338  0.00  0.00    -0.153 OA
ENDROOT
BRANCH   1   7
ATOM      4  C   UNL     1       0.271   1.873  -0.330  0.00  0.00    +0.022 A 
ATOM      5  C   UNL     1       0.428   0.897  -1.295  0.00  0.00    +0.026 A 
ATOM      6  C   UNL     1       1.538   0.063  -1.263  0.00  0.00    +0.051 A 
ATOM      7  C   UNL     1       2.487   0.212  -0.259  0.00  0.00    +0.127 A 
ATOM      8  C   UNL     1       2.325   1.189   0.703  0.00  0.00    +0.050 A 
ATOM      9  C   UNL     1       1.217   2.019   0.669  0.00  0.00    +0.043 A 
ATOM     10 CL   UNL     1       1.016   3.246   1.880  0.00  0.00    -0.083 Cl
BRANCH   6  11
ATOM     11  N   UNL     1       1.699  -0.925  -2.238  0.00  0.00    -0.356 N 
ATOM     12  H   UNL     1       0.997  -1.085  -2.888  0.00  0.00    +0.142 HD
ATOM     13  H   UNL     1       2.513  -1.452  -2.264  0.00  0.00    +0.142 HD
ENDBRANCH   6  11
ENDBRANCH   1   7
BRANCH   1  14
ATOM     14  N   UNL     1       4.783  -0.535  -1.578  0.00  0.00    -0.184 NA
ATOM     15  H   UNL     1       4.895  -1.225  -2.251  0.00  0.00    +0.148 HD
BRANCH  14  16
ATOM     16  C   UNL     1       5.400   0.780  -1.769  0.00  0.00    +0.105 C 
ATOM     17  C   UNL     1       6.853   0.736  -1.293  0.00  0.00    +0.023 C 
ATOM     18  C   UNL     1       7.497   2.109  -1.492  0.00  0.00    +0.002 C 
ATOM     19  C   UNL     1       7.457   2.481  -2.976  0.00  0.00    +0.003 C 
ATOM     20  C   UNL     1       6.004   2.525  -3.452  0.00  0.00    +0.033 C 
ATOM     21  C   UNL     1       5.360   1.151  -3.253  0.00  0.00    +0.133 C 
BRANCH  21  22
ATOM     22  O   UNL     1       6.079   0.174  -4.008  0.00  0.00    -0.390 OA
ATOM     23  H   UNL     1       6.096   0.346  -4.959  0.00  0.00    +0.210 HD
ENDBRANCH  21  22
ENDBRANCH  14  16
ENDBRANCH   1  14
TORSDOF 5
