REMARK  Name = ZINC00917853
REMARK  9 active torsions:
REMARK  status: ('A' for Active; 'I' for Inactive)
REMARK    1  A    between atoms: C_1  and  N_2
REMARK    2  A    between atoms: C_3  and  C_25
REMARK    3  A    between atoms: C_6  and  S_7
REMARK    4  A    between atoms: S_7  and  C_8
REMARK    5  A    between atoms: C_8  and  C_9
REMARK    6  A    between atoms: C_25  and  N_26
REMARK    7  A    between atoms: N_26  and  C_27
REMARK    8  A    between atoms: C_30  and  O_33
REMARK    9  A    between atoms: O_33  and  C_34
REMARK                            x       y       z     vdW  Elec       q    Type
REMARK                         _______ _______ _______ _____ _____    ______ ____
ROOT
ATOM      1  S   UNL     1       5.985   3.161   1.543  0.00  0.00    -0.077 S 
ENDROOT
BRANCH   1   7
ATOM      2  C   UNL     1       9.099   2.823   2.602  0.00  0.00    +0.152 C 
ATOM      3  N   UNL     1       8.662   3.944   1.765  0.00  0.00    -0.308 N 
ATOM      4  C   UNL     1       9.428   4.979   1.304  0.00  0.00    +0.151 A 
ATOM      5  N   UNL     1       8.651   5.755   0.605  0.00  0.00    -0.132 NA
ATOM      6  N   UNL     1       7.455   5.283   0.587  0.00  0.00    -0.122 NA
ATOM      7  C   UNL     1       7.406   4.170   1.281  0.00  0.00    +0.192 A 
BRANCH   4   8
ATOM      8  C   UNL     1      10.898   5.186   1.563  0.00  0.00    +0.178 C 
BRANCH   8   9
ATOM      9  N   UNL     1      11.073   5.974   2.785  0.00  0.00    -0.337 N 
ATOM     10  H   UNL     1      10.296   6.273   3.285  0.00  0.00    +0.147 HD
BRANCH   9  11
ATOM     11  C   UNL     1      12.359   6.297   3.233  0.00  0.00    +0.028 A 
ATOM     12  C   UNL     1      13.470   5.865   2.522  0.00  0.00    +0.026 A 
ATOM     13  C   UNL     1      14.739   6.189   2.960  0.00  0.00    +0.047 A 
ATOM     14  C   UNL     1      14.903   6.935   4.118  0.00  0.00    +0.120 A 
ATOM     15  C   UNL     1      13.794   7.363   4.832  0.00  0.00    +0.047 A 
ATOM     16  C   UNL     1      12.524   7.045   4.391  0.00  0.00    +0.026 A 
BRANCH  14  17
ATOM     17  O   UNL     1      16.154   7.248   4.553  0.00  0.00    -0.495 OA
ATOM     18  C   UNL     1      17.251   6.775   3.769  0.00  0.00    +0.277 C 
ENDBRANCH  14  17
ENDBRANCH   9  11
ENDBRANCH   8   9
ENDBRANCH   4   8
ENDBRANCH   1   7
BRANCH   1  19
ATOM     19  C   UNL     1       4.752   4.107   0.614  0.00  0.00    +0.174 C 
BRANCH  19  20
ATOM     20  C   UNL     1       3.417   3.413   0.700  0.00  0.00    +0.234 C 
ATOM     21  O   UNL     1       3.360   2.248   1.034  0.00  0.00    -0.274 OA
ATOM     22  N   UNL     1       2.288   4.087   0.406  0.00  0.00    -0.237 N 
ATOM     23  C   UNL     1       1.067   3.401   0.405  0.00  0.00    +0.055 A 
ATOM     24  C   UNL     1       0.997   2.098  -0.063  0.00  0.00    +0.025 A 
ATOM     25  C   UNL     1      -0.213   1.427  -0.062  0.00  0.00    +0.002 A 
ATOM     26  C   UNL     1      -1.359   2.050   0.397  0.00  0.00    +0.001 A 
ATOM     27  C   UNL     1      -1.300   3.349   0.872  0.00  0.00    +0.017 A 
ATOM     28  C   UNL     1      -0.093   4.023   0.874  0.00  0.00    +0.035 A 
ATOM     29  S   UNL     1       0.013   5.683   1.468  0.00  0.00    -0.086 S 
ATOM     30  C   UNL     1       1.369   6.330   0.541  0.00  0.00    +0.035 A 
ATOM     31  C   UNL     1       2.367   5.453   0.108  0.00  0.00    +0.055 A 
ATOM     32  C   UNL     1       3.438   5.949  -0.621  0.00  0.00    +0.025 A 
ATOM     33  C   UNL     1       3.509   7.299  -0.911  0.00  0.00    +0.002 A 
ATOM     34  C   UNL     1       2.519   8.162  -0.480  0.00  0.00    +0.001 A 
ATOM     35  C   UNL     1       1.446   7.679   0.248  0.00  0.00    +0.017 A 
ENDBRANCH  19  20
ENDBRANCH   1  19
TORSDOF 7
