REMARK  Name = ZINC63182434
REMARK  6 active torsions:
REMARK  status: ('A' for Active; 'I' for Inactive)
REMARK    1  A    between atoms: C_4  and  O_23
REMARK    2  A    between atoms: C_5  and  C_7
REMARK    3  A    between atoms: C_7  and  S_8
REMARK    4  A    between atoms: S_8  and  C_9
REMARK    5  A    between atoms: C_12  and  C_14
REMARK    6  A    between atoms: O_23  and  C_24
REMARK                            x       y       z     vdW  Elec       q    Type
REMARK                         _______ _______ _______ _____ _____    ______ ____
ROOT
ATOM      1  C   UNL     1       1.273  -4.554   1.507  0.00  0.00    +0.278 A 
ATOM      2  N   UNL     1       1.276  -5.224   0.365  0.00  0.00    -0.101 NA
ATOM      3  N   UNL     1       1.294  -6.487   0.611  0.00  0.00    -0.107 NA
ATOM      4  C   UNL     1       1.302  -6.675   1.921  0.00  0.00    +0.248 A 
ATOM      5  O   UNL     1       1.295  -5.453   2.506  0.00  0.00    -0.411 OA
ENDROOT
BRANCH   4   6
ATOM      6  C   UNL     1       1.321  -7.912   2.582  0.00  0.00    +0.044 C 
ATOM      7  C   UNL     1       1.340  -9.180   1.999  0.00  0.00    +0.008 A 
ATOM      8  C   UNL     1       1.346  -9.611   0.656  0.00  0.00    +0.010 A 
ATOM      9  C   UNL     1       1.367 -10.940   0.375  0.00  0.00    +0.001 A 
ATOM     10  C   UNL     1       1.381 -11.901   1.388  0.00  0.00    +0.002 A 
ATOM     11  C   UNL     1       1.377 -11.559   2.700  0.00  0.00    +0.026 A 
ATOM     12  C   UNL     1       1.356 -10.189   3.071  0.00  0.00    +0.043 A 
ATOM     13  N   UNL     1       1.347  -9.606   4.253  0.00  0.00    -0.380 N 
ATOM     14  C   UNL     1       1.331  -8.151   4.076  0.00  0.00    +0.154 C 
ATOM     15  H   UNL     1       1.354 -10.068   5.107  0.00  0.00    +0.160 HD
ENDBRANCH   4   6
BRANCH   1  16
ATOM     16  S   UNL     1       1.252  -2.801   1.685  0.00  0.00    -0.061 S 
BRANCH  16  17
ATOM     17  C   UNL     1       1.227  -2.187  -0.022  0.00  0.00    +0.117 C 
BRANCH  17  22
ATOM     18  C   UNL     1      -0.017   1.378   0.010  0.00  0.00    +0.001 A 
ATOM     19  C   UNL     1       1.170   2.088   0.002  0.00  0.00    +0.004 A 
ATOM     20  C   UNL     1       2.377   1.417  -0.013  0.00  0.00    +0.046 A 
ATOM     21  C   UNL     1       2.399   0.030  -0.021  0.00  0.00    +0.131 A 
ATOM     22  C   UNL     1       1.207  -0.680  -0.013  0.00  0.00    +0.005 A 
ATOM     23  C   UNL     1       0.002  -0.004   0.002  0.00  0.00    +0.008 A 
BRANCH  21  24
ATOM     24  O   UNL     1       3.586  -0.632  -0.037  0.00  0.00    -0.434 OA
BRANCH  24  25
ATOM     25  C   UNL     1       4.772   0.164  -0.045  0.00  0.00    +0.541 C 
ATOM     26  F   UNL     1       4.781   0.977  -1.183  0.00  0.00    -0.166 F 
ATOM     27  F   UNL     1       4.804   0.965   1.101  0.00  0.00    -0.166 F 
ENDBRANCH  24  25
ENDBRANCH  21  24
ENDBRANCH  17  22
ENDBRANCH  16  17
ENDBRANCH   1  16
TORSDOF 6
