REMARK  Name = ZINC17198631
REMARK  2 active torsions:
REMARK  status: ('A' for Active; 'I' for Inactive)
REMARK    1  A    between atoms: C_6  and  C_7
REMARK    2  A    between atoms: C_13  and  C_14
REMARK                            x       y       z     vdW  Elec       q    Type
REMARK                         _______ _______ _______ _____ _____    ______ ____
ROOT
ATOM      1  C   UNL     1       0.459   1.019  -0.643  0.00  0.00    +0.016 C 
ATOM      2  C   UNL     1       1.480   1.800  -0.234  0.00  0.00    +0.014 C 
ATOM      3  C   UNL     1       1.316   3.294  -0.030  0.00  0.00    +0.120 C 
ATOM      4  N   UNL     1       1.873   3.659   1.280  0.00  0.00    -0.308 NA
ATOM      5  C   UNL     1       3.311   3.369   1.365  0.00  0.00    +0.120 C 
ATOM      6  C   UNL     1       3.522   1.877   1.194  0.00  0.00    +0.014 C 
ATOM      7  C   UNL     1       4.295   1.163   2.039  0.00  0.00    +0.016 C 
ATOM      8  C   UNL     1       2.827   1.248   0.049  0.00  0.00    +0.188 C 
ATOM      9  O   UNL     1       3.324   0.350  -0.608  0.00  0.00    -0.287 OA
ATOM     10  H   UNL     1       1.728   4.735   1.454  0.00  0.00    +0.123 HD
ENDROOT
BRANCH   1  16
ATOM     11  C   UNL     1      -0.790   2.800  -1.850  0.00  0.00    +0.009 A 
ATOM     12  C   UNL     1      -1.978   3.364  -2.264  0.00  0.00    +0.022 A 
ATOM     13  C   UNL     1      -3.185   2.783  -1.912  0.00  0.00    +0.059 A 
ATOM     14  C   UNL     1      -3.208   1.627  -1.146  0.00  0.00    +0.060 A 
ATOM     15  C   UNL     1      -2.027   1.048  -0.730  0.00  0.00    +0.029 A 
ATOM     16  C   UNL     1      -0.805   1.630  -1.083  0.00  0.00    -0.023 A 
ATOM     17 CL   UNL     1      -4.726   0.906  -0.711  0.00  0.00    -0.082 Cl
ATOM     18 CL   UNL     1      -4.676   3.505  -2.431  0.00  0.00    -0.082 Cl
ENDBRANCH   1  16
BRANCH   7  19
ATOM     19  C   UNL     1       4.330  -0.304   1.943  0.00  0.00    -0.023 A 
ATOM     20  C   UNL     1       3.158  -1.018   1.665  0.00  0.00    +0.009 A 
ATOM     21  C   UNL     1       3.199  -2.392   1.570  0.00  0.00    +0.022 A 
ATOM     22  C   UNL     1       4.393  -3.069   1.760  0.00  0.00    +0.059 A 
ATOM     23  C   UNL     1       5.556  -2.369   2.041  0.00  0.00    +0.060 A 
ATOM     24  C   UNL     1       5.532  -0.993   2.133  0.00  0.00    +0.029 A 
ATOM     25 CL   UNL     1       7.047  -3.227   2.278  0.00  0.00    -0.082 Cl
ATOM     26 CL   UNL     1       4.432  -4.800   1.645  0.00  0.00    -0.082 Cl
ENDBRANCH   7  19
TORSDOF 2
