REMARK  Name = ZINC63508734
REMARK  5 active torsions:
REMARK  status: ('A' for Active; 'I' for Inactive)
REMARK    1  A    between atoms: C_3  and  N_19
REMARK    2  A    between atoms: C_6  and  C_7
REMARK    3  A    between atoms: C_7  and  N_8
REMARK    4  A    between atoms: N_8  and  C_9
REMARK    5  A    between atoms: C_12  and  C_16
REMARK                            x       y       z     vdW  Elec       q    Type
REMARK                         _______ _______ _______ _____ _____    ______ ____
ROOT
ATOM      1  C   UNL     1      -0.017   1.379   0.026  0.00  0.00    +0.007 A 
ATOM      2  C   UNL     1       1.169   2.087   0.018  0.00  0.00    +0.023 A 
ATOM      3  C   UNL     1       2.381   1.409  -0.013  0.00  0.00    +0.030 A 
ATOM      4  C   UNL     1       2.396   0.020  -0.037  0.00  0.00    +0.023 A 
ATOM      5  C   UNL     1       1.207  -0.682  -0.029  0.00  0.00    +0.007 A 
ATOM      6  C   UNL     1       0.002  -0.004   0.002  0.00  0.00    -0.030 A 
ENDROOT
BRANCH   3   7
ATOM      7  N   UNL     1       3.582   2.122  -0.021  0.00  0.00    -0.320 N 
ATOM      8  C   UNL     1       4.882   1.435   0.066  0.00  0.00    +0.124 C 
ATOM      9  C   UNL     1       5.670   1.740  -1.209  0.00  0.00    +0.123 C 
ATOM     10  N   UNL     1       5.620   3.162  -1.519  0.00  0.00    -0.313 N 
ATOM     11  C   UNL     1       4.682   4.001  -1.078  0.00  0.00    +0.230 C 
ATOM     12  O   UNL     1       4.702   5.149  -1.469  0.00  0.00    -0.274 OA
ATOM     13  C   UNL     1       3.600   3.589  -0.123  0.00  0.00    +0.200 C 
ATOM     14  H   UNL     1       6.319   3.525  -2.087  0.00  0.00    +0.149 HD
ENDBRANCH   3   7
BRANCH   6  15
ATOM     15  C   UNL     1      -1.294  -0.773   0.011  0.00  0.00    +0.137 C 
BRANCH  15  16
ATOM     16  N   UNL     1      -1.737  -0.999  -1.367  0.00  0.00    -0.335 N 
ATOM     17  H   UNL     1      -1.207  -0.665  -2.108  0.00  0.00    +0.147 HD
BRANCH  16  18
ATOM     18  C   UNL     1      -2.920  -1.695  -1.614  0.00  0.00    +0.099 A 
ATOM     19  C   UNL     1      -3.517  -2.434  -0.596  0.00  0.00    +0.148 A 
ATOM     20  C   UNL     1      -4.687  -3.123  -0.837  0.00  0.00    +0.059 A 
ATOM     21  C   UNL     1      -5.274  -3.079  -2.105  0.00  0.00    +0.057 A 
ATOM     22  C   UNL     1      -4.672  -2.336  -3.125  0.00  0.00    +0.059 A 
ATOM     23  C   UNL     1      -3.505  -1.645  -2.877  0.00  0.00    +0.148 A 
ATOM     24  F   UNL     1      -2.926  -0.923  -3.861  0.00  0.00    -0.203 F 
ATOM     25  F   UNL     1      -2.949  -2.477   0.629  0.00  0.00    -0.203 F 
BRANCH  21  26
ATOM     26  C   UNL     1      -6.489  -3.793  -2.358  0.00  0.00    +0.099 C 
ATOM     27  N   UNL     1      -7.453  -4.360  -2.559  0.00  0.00    -0.191 NA
ENDBRANCH  21  26
ENDBRANCH  16  18
ENDBRANCH  15  16
ENDBRANCH   6  15
TORSDOF 5
