REMARK  Name = ZINC49716688
REMARK  2 active torsions:
REMARK  status: ('A' for Active; 'I' for Inactive)
REMARK    1  A    between atoms: C_6  and  S_7
REMARK    2  A    between atoms: S_7  and  N_10
REMARK                            x       y       z     vdW  Elec       q    Type
REMARK                         _______ _______ _______ _____ _____    ______ ____
ROOT
ATOM      1  S   UNL     1      -1.499  -0.926   0.012  0.00  0.00    +0.061 S 
ATOM      2  O   UNL     1      -1.188  -2.203   0.553  0.00  0.00    -0.153 OA
ATOM      3  O   UNL     1      -2.492  -0.081   0.577  0.00  0.00    -0.153 OA
ENDROOT
BRANCH   1   9
ATOM      4  C   UNL     1      -0.017   1.383   0.010  0.00  0.00    +0.048 A 
ATOM      5  C   UNL     1       1.180   2.073   0.002  0.00  0.00    +0.114 A 
ATOM      6  N   UNL     1       2.331   1.429  -0.013  0.00  0.00    -0.243 NA
ATOM      7  C   UNL     1       2.388   0.110  -0.020  0.00  0.00    +0.131 A 
ATOM      8  C   UNL     1       1.230  -0.647  -0.014  0.00  0.00    +0.068 A 
ATOM      9  C   UNL     1       0.002  -0.004   0.002  0.00  0.00    +0.110 A 
ATOM     10 CL   UNL     1       3.932  -0.683  -0.039  0.00  0.00    -0.062 Cl
ENDBRANCH   1   9
BRANCH   1  11
ATOM     11  N   UNL     1      -1.932  -1.174  -1.567  0.00  0.00    -0.173 NA
ATOM     12  C   UNL     1      -2.778  -0.293  -2.399  0.00  0.00    +0.113 C 
ATOM     13  C   UNL     1      -2.881  -1.009  -3.781  0.00  0.00    +0.006 C 
ATOM     14  C   UNL     1      -1.458  -0.839  -4.400  0.00  0.00    +0.006 C 
ATOM     15  C   UNL     1      -0.547  -1.698  -3.492  0.00  0.00    +0.021 C 
ATOM     16  C   UNL     1      -1.539  -2.327  -2.428  0.00  0.00    +0.080 C 
ATOM     17  C   UNL     1      -2.834  -2.504  -3.302  0.00  0.00    +0.025 C 
ENDBRANCH   1  11
TORSDOF 2
