REMARK  Name = ZINC36483826
REMARK  7 active torsions:
REMARK  status: ('A' for Active; 'I' for Inactive)
REMARK    1  A    between atoms: C_3  and  C_8
REMARK    2  A    between atoms: N_10  and  C_11
REMARK    3  A    between atoms: N_10  and  C_18
REMARK    4  A    between atoms: C_18  and  C_20
REMARK    5  A    between atoms: C_18  and  C_27
REMARK    6  A    between atoms: C_23  and  O_26
REMARK    7  A    between atoms: N_29  and  C_30
REMARK                            x       y       z     vdW  Elec       q    Type
REMARK                         _______ _______ _______ _____ _____    ______ ____
ROOT
ATOM      1  C   UNL     1       6.161   2.075  -0.254  0.00  0.00    +0.197 C 
ENDROOT
BRANCH   1   2
ATOM      2  C   UNL     1       7.075   1.622   0.856  0.00  0.00    -0.018 A 
ATOM      3  C   UNL     1       7.141   0.283   1.193  0.00  0.00    +0.009 A 
ATOM      4  C   UNL     1       7.977  -0.135   2.210  0.00  0.00    +0.046 A 
ATOM      5  C   UNL     1       8.751   0.791   2.894  0.00  0.00    +0.117 A 
ATOM      6  C   UNL     1       8.684   2.135   2.554  0.00  0.00    +0.046 A 
ATOM      7  C   UNL     1       7.849   2.546   1.533  0.00  0.00    +0.009 A 
BRANCH   5   8
ATOM      8  O   UNL     1       9.575   0.383   3.895  0.00  0.00    -0.507 OA
ATOM      9  H   UNL     1      10.466   0.150   3.601  0.00  0.00    +0.292 HD
ENDBRANCH   5   8
ENDBRANCH   1   2
BRANCH   1  10
ATOM     10  C   UNL     1       6.423   1.250  -1.487  0.00  0.00    +0.239 C 
ATOM     11  O   UNL     1       5.532   0.585  -1.972  0.00  0.00    -0.273 OA
ATOM     12  N   UNL     1       7.646   1.251  -2.052  0.00  0.00    -0.311 N 
ATOM     13  H   UNL     1       8.359   1.783  -1.664  0.00  0.00    +0.149 HD
BRANCH  12  14
ATOM     14  C   UNL     1       7.900   0.449  -3.251  0.00  0.00    +0.073 C 
ATOM     15  C   UNL     1       8.251  -0.983  -2.842  0.00  0.00    +0.022 C 
ATOM     16  C   UNL     1       8.517  -1.821  -4.095  0.00  0.00    +0.002 C 
ATOM     17  C   UNL     1       9.683  -1.213  -4.877  0.00  0.00    +0.000 C 
ATOM     18  C   UNL     1       9.332   0.218  -5.286  0.00  0.00    +0.002 C 
ATOM     19  C   UNL     1       9.067   1.056  -4.034  0.00  0.00    +0.022 C 
ENDBRANCH  12  14
ENDBRANCH   1  10
BRANCH   1  22
ATOM     20  C   UNL     1       3.768   2.212  -0.689  0.00  0.00    +0.252 C 
ATOM     21  O   UNL     1       2.626   2.300  -0.280  0.00  0.00    -0.270 OA
ATOM     22  N   UNL     1       4.767   1.904   0.162  0.00  0.00    -0.251 N 
BRANCH  20  25
ATOM     23  C   UNL     1       3.342   2.473  -4.412  0.00  0.00    +0.002 A 
ATOM     24  C   UNL     1       3.064   2.255  -3.078  0.00  0.00    +0.013 A 
ATOM     25  C   UNL     1       4.060   2.444  -2.119  0.00  0.00    +0.039 A 
ATOM     26  C   UNL     1       5.334   2.854  -2.517  0.00  0.00    +0.033 A 
ATOM     27  C   UNL     1       5.600   3.069  -3.854  0.00  0.00    +0.042 A 
ATOM     28  C   UNL     1       4.606   2.879  -4.800  0.00  0.00    +0.020 A 
ATOM     29 CL   UNL     1       7.183   3.578  -4.352  0.00  0.00    -0.084 Cl
ENDBRANCH  20  25
BRANCH  22  30
ATOM     30  C   UNL     1       4.472   1.422   1.441  0.00  0.00    +0.039 A 
ATOM     31  C   UNL     1       4.657   2.235   2.551  0.00  0.00    +0.023 A 
ATOM     32  C   UNL     1       4.365   1.757   3.813  0.00  0.00    +0.003 A 
ATOM     33  C   UNL     1       3.889   0.468   3.973  0.00  0.00    +0.020 A 
ATOM     34  C   UNL     1       3.703  -0.345   2.869  0.00  0.00    +0.043 A 
ATOM     35  C   UNL     1       3.989   0.130   1.603  0.00  0.00    +0.043 A 
ATOM     36 CL   UNL     1       3.105  -1.962   3.074  0.00  0.00    -0.083 Cl
ENDBRANCH  22  30
ENDBRANCH   1  22
TORSDOF 7
