REMARK  Name = ZINC04991975
REMARK  4 active torsions:
REMARK  status: ('A' for Active; 'I' for Inactive)
REMARK    1  A    between atoms: C_1  and  C_2
REMARK    2  A    between atoms: C_10  and  C_23
REMARK    3  A    between atoms: C_11  and  N_22
REMARK    4  A    between atoms: C_18  and  C_21
REMARK                            x       y       z     vdW  Elec       q    Type
REMARK                         _______ _______ _______ _____ _____    ______ ____
ROOT
ATOM      1  C   UNL     1      -0.013   1.086   0.008  0.00  0.00    +0.045 C 
ATOM      2  C   UNL     1      -0.718   1.572   1.248  0.00  0.00    -0.036 A 
ATOM      3  C   UNL     1      -2.081   1.784   1.211  0.00  0.00    +0.006 A 
ATOM      4  C   UNL     1      -2.786   2.225   2.320  0.00  0.00    +0.024 A 
ATOM      5  C   UNL     1      -2.059   2.461   3.487  0.00  0.00    +0.039 A 
ATOM      6  C   UNL     1      -0.675   2.247   3.510  0.00  0.00    +0.013 A 
ATOM      7  C   UNL     1       0.019   1.803   2.405  0.00  0.00    +0.027 A 
ATOM      8 BR   UNL     1       1.888   1.520   2.460  0.00  0.00    -0.050 Br
ATOM      9  C   UNL     1      -0.220   2.594   4.894  0.00  0.00    +0.145 C 
ATOM     10  C   UNL     1       0.390   1.405   5.576  0.00  0.00    +0.110 C 
ATOM     11  C   UNL     1       1.736   1.327   5.732  0.00  0.00    +0.199 C 
ATOM     12  O   UNL     1       2.548   2.294   5.280  0.00  0.00    -0.445 OA
ATOM     13  C   UNL     1       2.067   3.531   5.052  0.00  0.00    +0.116 C 
ATOM     14  C   UNL     1       0.752   3.745   4.861  0.00  0.00    +0.058 C 
ATOM     15  C   UNL     1       0.247   5.039   4.626  0.00  0.00    +0.164 C 
ATOM     16  O   UNL     1      -0.943   5.190   4.439  0.00  0.00    -0.292 OA
ATOM     17  C   UNL     1       1.157   6.237   4.603  0.00  0.00    +0.083 C 
ATOM     18  C   UNL     1       2.366   5.957   5.503  0.00  0.00    +0.001 C 
ATOM     19  C   UNL     1       3.049   4.678   5.014  0.00  0.00    +0.078 C 
ATOM     20  C   UNL     1       3.347   7.130   5.425  0.00  0.00    +0.008 C 
ATOM     21  C   UNL     1      -1.487   3.013   5.610  0.00  0.00    +0.238 C 
ATOM     22  O   UNL     1      -1.577   3.377   6.763  0.00  0.00    -0.274 OA
ATOM     23  N   UNL     1      -2.498   2.904   4.722  0.00  0.00    -0.284 N 
ATOM     24  H   UNL     1      -3.423   3.112   4.926  0.00  0.00    +0.155 HD
ENDROOT
BRANCH  11  25
ATOM     25  N   UNL     1       2.276   0.236   6.366  0.00  0.00    -0.328 N 
ATOM     26  H   UNL     1       3.237   0.170   6.483  0.00  0.00    +0.145 HD
ATOM     27  H   UNL     1       1.698  -0.469   6.696  0.00  0.00    +0.145 HD
ENDBRANCH  11  25
BRANCH  10  28
ATOM     28  C   UNL     1      -0.449   0.352   6.063  0.00  0.00    +0.102 C 
ATOM     29  N   UNL     1      -1.114  -0.484   6.449  0.00  0.00    -0.191 NA
ENDBRANCH  10  28
TORSDOF 2
