REMARK  Name = ZINC16185246
REMARK  6 active torsions:
REMARK  status: ('A' for Active; 'I' for Inactive)
REMARK    1  A    between atoms: C_1  and  C_2
REMARK    2  A    between atoms: C_8  and  N_10
REMARK    3  A    between atoms: N_10  and  C_11
REMARK    4  A    between atoms: C_11  and  N_13
REMARK    5  A    between atoms: N_13  and  N_14
REMARK    6  A    between atoms: C_15  and  C_17
REMARK                            x       y       z     vdW  Elec       q    Type
REMARK                         _______ _______ _______ _____ _____    ______ ____
ROOT
ATOM      1  N   UNL     1       0.794  -4.697   1.173  0.00  0.00    -0.231 N 
ATOM      2  C   UNL     1       0.813  -6.045   1.165  0.00  0.00    +0.268 C 
ATOM      3  O   UNL     1       0.923  -6.658   2.211  0.00  0.00    -0.268 OA
ATOM      4  H   UNL     1       0.707  -4.209   0.339  0.00  0.00    +0.173 HD
ENDROOT
BRANCH   2   5
ATOM      5  C   UNL     1       0.700  -6.774  -0.104  0.00  0.00    +0.095 A 
ATOM      6  C   UNL     1       0.698  -8.118  -0.313  0.00  0.00    +0.068 A 
ATOM      7  C   UNL     1       0.578  -8.625  -1.621  0.00  0.00    +0.008 A 
ATOM      8  C   UNL     1       0.556  -9.980  -2.039  0.00  0.00    +0.010 A 
ATOM      9  C   UNL     1       0.432 -10.300  -3.353  0.00  0.00    +0.001 A 
ATOM     10  C   UNL     1       0.322  -9.322  -4.333  0.00  0.00    +0.001 A 
ATOM     11  C   UNL     1       0.339  -7.991  -3.971  0.00  0.00    +0.016 A 
ATOM     12  C   UNL     1       0.465  -7.651  -2.640  0.00  0.00    +0.021 A 
ATOM     13  S   UNL     1       0.522  -6.114  -1.753  0.00  0.00    -0.082 S 
ATOM     14 CL   UNL     1       0.845  -9.207   1.031  0.00  0.00    -0.082 Cl
ENDBRANCH   2   5
BRANCH   1  15
ATOM     15  N   UNL     1       0.902  -4.002   2.384  0.00  0.00    -0.246 N 
ATOM     16  H   UNL     1       0.990  -4.490   3.217  0.00  0.00    +0.172 HD
BRANCH  15  17
ATOM     17  C   UNL     1       0.884  -2.654   2.392  0.00  0.00    +0.147 C 
ATOM     18  S   UNL     1       1.016  -1.805   3.872  0.00  0.00    -0.017 S 
BRANCH  17  19
ATOM     19  N   UNL     1       0.762  -1.976   1.234  0.00  0.00    -0.322 N 
ATOM     20  H   UNL     1       0.687  -2.457   0.395  0.00  0.00    +0.148 HD
BRANCH  19  27
ATOM     21  C   UNL     1      -1.433  -0.534   0.013  0.00  0.00    +0.009 C 
ATOM     22  C   UNL     1       0.002  -0.004   0.002  0.00  0.00    +0.006 C 
ATOM     23  C   UNL     1      -0.019   1.526   0.010  0.00  0.00    +0.005 C 
ATOM     24  C   UNL     1       1.417   2.055  -0.000  0.00  0.00    +0.000 C 
ATOM     25  C   UNL     1       2.157   1.548   1.239  0.00  0.00    +0.002 C 
ATOM     26  C   UNL     1       2.178   0.019   1.231  0.00  0.00    +0.022 C 
ATOM     27  C   UNL     1       0.742  -0.511   1.242  0.00  0.00    +0.075 C 
ENDBRANCH  19  27
ENDBRANCH  17  19
ENDBRANCH  15  17
ENDBRANCH   1  15
TORSDOF 5
