REMARK  Name = ZINC09015679
REMARK  6 active torsions:
REMARK  status: ('A' for Active; 'I' for Inactive)
REMARK    1  A    between atoms: C_1  and  C_2
REMARK    2  A    between atoms: C_2  and  C_4
REMARK    3  A    between atoms: C_6  and  C_33
REMARK    4  A    between atoms: C_33  and  C_35
REMARK    5  A    between atoms: C_38  and  O_41
REMARK    6  A    between atoms: O_41  and  C_42
REMARK                            x       y       z     vdW  Elec       q    Type
REMARK                         _______ _______ _______ _____ _____    ______ ____
ROOT
ATOM      1  C   UNL     1       3.608   4.141   1.361  0.00  0.00    +0.152 C 
ATOM      2  C   UNL     1       4.246   3.803  -0.017  0.00  0.00    +0.109 C 
ATOM      3  C   UNL     1       5.489   4.711  -0.103  0.00  0.00    +0.108 C 
ATOM      4  C   UNL     1       5.426   5.624  -1.280  0.00  0.00    -0.008 A 
ATOM      5  C   UNL     1       4.522   6.599  -1.642  0.00  0.00    +0.006 A 
ATOM      6  C   UNL     1       4.768   7.280  -2.829  0.00  0.00    +0.000 A 
ATOM      7  C   UNL     1       5.869   6.990  -3.610  0.00  0.00    +0.002 A 
ATOM      8  C   UNL     1       6.783   6.011  -3.253  0.00  0.00    +0.023 A 
ATOM      9  C   UNL     1       6.548   5.320  -2.064  0.00  0.00    +0.038 A 
ATOM     10  N   UNL     1       7.286   4.307  -1.476  0.00  0.00    -0.284 N 
ATOM     11  C   UNL     1       6.735   3.888  -0.316  0.00  0.00    +0.231 C 
ATOM     12  O   UNL     1       7.160   3.017   0.414  0.00  0.00    -0.274 OA
ATOM     13  C   UNL     1       5.525   5.458   1.222  0.00  0.00    +0.117 C 
ATOM     14  N   UNL     1       4.096   5.497   1.638  0.00  0.00    -0.311 N 
ATOM     15  C   UNL     1       4.001   5.990   2.916  0.00  0.00    +0.039 A 
ATOM     16  C   UNL     1       3.176   5.433   3.891  0.00  0.00    +0.024 A 
ATOM     17  C   UNL     1       3.122   5.957   5.146  0.00  0.00    +0.010 A 
ATOM     18  C   UNL     1       3.903   7.078   5.485  0.00  0.00    -0.017 A 
ATOM     19  C   UNL     1       3.858   7.628   6.777  0.00  0.00    +0.008 A 
ATOM     20  C   UNL     1       4.623   8.715   7.075  0.00  0.00    +0.001 A 
ATOM     21  C   UNL     1       5.452   9.292   6.116  0.00  0.00    +0.001 A 
ATOM     22  C   UNL     1       5.520   8.785   4.854  0.00  0.00    +0.009 A 
ATOM     23  C   UNL     1       4.748   7.666   4.510  0.00  0.00    -0.009 A 
ATOM     24  C   UNL     1       4.790   7.111   3.214  0.00  0.00    +0.004 A 
ATOM     25  C   UNL     1       5.644   7.685   2.152  0.00  0.00    +0.008 C 
ATOM     26  C   UNL     1       6.023   6.870   1.148  0.00  0.00    -0.003 C 
ATOM     27  H   UNL     1       8.102   3.942  -1.852  0.00  0.00    +0.155 HD
ENDROOT
BRANCH   1  29
ATOM     28  C   UNL     1       3.315   1.905   2.676  0.00  0.00    +0.088 C 
ATOM     29  C   UNL     1       4.083   3.176   2.417  0.00  0.00    +0.151 C 
ATOM     30  O   UNL     1       5.078   3.421   3.055  0.00  0.00    -0.296 OA
ENDBRANCH   1  29
BRANCH   2  31
ATOM     31  C   UNL     1       4.651   2.352  -0.067  0.00  0.00    +0.170 C 
ATOM     32  O   UNL     1       5.223   1.849   0.876  0.00  0.00    -0.292 OA
BRANCH  31  33
ATOM     33  C   UNL     1       4.352   1.547  -1.259  0.00  0.00    +0.018 A 
ATOM     34  C   UNL     1       3.692   2.125  -2.350  0.00  0.00    +0.015 A 
ATOM     35  C   UNL     1       3.416   1.369  -3.460  0.00  0.00    +0.046 A 
ATOM     36  C   UNL     1       3.790   0.030  -3.503  0.00  0.00    +0.120 A 
ATOM     37  C   UNL     1       4.447  -0.549  -2.422  0.00  0.00    +0.046 A 
ATOM     38  C   UNL     1       4.728   0.199  -1.308  0.00  0.00    +0.015 A 
BRANCH  36  39
ATOM     39  O   UNL     1       3.514  -0.714  -4.604  0.00  0.00    -0.495 OA
ATOM     40  C   UNL     1       3.926  -2.082  -4.582  0.00  0.00    +0.277 C 
ENDBRANCH  36  39
ENDBRANCH  31  33
ENDBRANCH   2  31
TORSDOF 4
