REMARK  Name = ZINC09673450
REMARK  4 active torsions:
REMARK  status: ('A' for Active; 'I' for Inactive)
REMARK    1  A    between atoms: C_1  and  C_2
REMARK    2  A    between atoms: C_5  and  N_8
REMARK    3  A    between atoms: C_13  and  C_30
REMARK    4  A    between atoms: C_21  and  C_23
REMARK                            x       y       z     vdW  Elec       q    Type
REMARK                         _______ _______ _______ _____ _____    ______ ____
ROOT
ATOM      1  N   UNL     1       0.091  -4.173  -0.010  0.00  0.00    -0.208 N 
ATOM      2  C   UNL     1       0.092  -4.945   1.125  0.00  0.00    +0.234 C 
ATOM      3  O   UNL     1      -0.132  -4.587   2.261  0.00  0.00    -0.274 OA
ATOM      4  C   UNL     1       0.417  -6.272   0.673  0.00  0.00    +0.130 C 
ATOM      5  C   UNL     1       0.261  -7.687   1.056  0.00  0.00    +0.120 C 
ATOM      6  N   UNL     1       0.576  -8.369  -0.246  0.00  0.00    -0.229 NA
ATOM      7  N   UNL     1       0.405  -7.465  -1.285  0.00  0.00    -0.220 N 
ATOM      8  C   UNL     1      -0.310  -6.309  -0.733  0.00  0.00    +0.194 C 
ATOM      9  C   UNL     1       0.088  -4.921  -1.154  0.00  0.00    +0.249 C 
ATOM     10  O   UNL     1       0.354  -4.545  -2.275  0.00  0.00    -0.273 OA
ATOM     11  C   UNL     1       0.806  -7.631  -2.561  0.00  0.00    +0.261 C 
ATOM     12  O   UNL     1       0.508  -6.809  -3.405  0.00  0.00    -0.269 OA
ATOM     13  H   UNL     1      -0.004  -9.184  -0.377  0.00  0.00    +0.145 HD
ENDROOT
BRANCH   1  18
ATOM     14  C   UNL     1       0.074   1.502   0.040  0.00  0.00    +0.044 C 
ATOM     15  C   UNL     1       0.078  -0.005   0.026  0.00  0.00    -0.050 A 
ATOM     16  C   UNL     1       0.077  -0.684  -1.178  0.00  0.00    +0.005 A 
ATOM     17  C   UNL     1       0.081  -2.065  -1.193  0.00  0.00    +0.024 A 
ATOM     18  C   UNL     1       0.087  -2.771   0.002  0.00  0.00    +0.044 A 
ATOM     19  C   UNL     1       0.089  -2.086   1.210  0.00  0.00    +0.024 A 
ATOM     20  C   UNL     1       0.090  -0.705   1.219  0.00  0.00    +0.005 A 
ENDBRANCH   1  18
BRANCH  11  21
ATOM     21  C   UNL     1       1.609  -8.815  -2.934  0.00  0.00    +0.039 A 
ATOM     22  C   UNL     1       1.861  -9.817  -1.995  0.00  0.00    +0.013 A 
ATOM     23  C   UNL     1       2.610 -10.919  -2.349  0.00  0.00    +0.002 A 
ATOM     24  C   UNL     1       3.114 -11.034  -3.632  0.00  0.00    +0.015 A 
ATOM     25  C   UNL     1       2.869 -10.044  -4.569  0.00  0.00    +0.019 A 
ATOM     26  C   UNL     1       2.114  -8.940  -4.229  0.00  0.00    +0.028 A 
ATOM     27 BR   UNL     1       3.563 -10.211  -6.321  0.00  0.00    -0.050 Br
ENDBRANCH  11  21
BRANCH   5  28
ATOM     28  C   UNL     1       1.250  -8.072   2.126  0.00  0.00    +0.007 A 
ATOM     29  C   UNL     1       2.454  -8.654   1.778  0.00  0.00    +0.008 A 
ATOM     30  C   UNL     1       3.361  -9.008   2.759  0.00  0.00    +0.000 A 
ATOM     31  C   UNL     1       3.065  -8.779   4.090  0.00  0.00    +0.003 A 
ATOM     32  C   UNL     1       1.863  -8.196   4.441  0.00  0.00    +0.038 A 
ATOM     33  C   UNL     1       0.955  -7.837   3.458  0.00  0.00    +0.128 A 
ATOM     34  F   UNL     1      -0.219  -7.263   3.800  0.00  0.00    -0.205 F 
ENDBRANCH   5  28
TORSDOF 3
