REMARK  Name = ZINC61712956
REMARK  7 active torsions:
REMARK  status: ('A' for Active; 'I' for Inactive)
REMARK    1  A    between atoms: C_1  and  C_2
REMARK    2  A    between atoms: C_2  and  C_3
REMARK    3  A    between atoms: C_2  and  C_4
REMARK    4  A    between atoms: C_2  and  CA_5
REMARK    5  A    between atoms: CA_5  and  C_7
REMARK    6  A    between atoms: CA_5  and  N_10
REMARK    7  A    between atoms: C_16  and  O_19
REMARK                            x       y       z     vdW  Elec       q    Type
REMARK                         _______ _______ _______ _____ _____    ______ ____
ROOT
ATOM      1  N   UNL     1       0.010  -0.012  -2.444  0.00  0.00    -0.285 N 
ATOM      2  C   UNL     1       0.111  -0.681  -3.609  0.00  0.00    +0.303 C 
ATOM      3  O   UNL     1       0.789  -1.688  -3.676  0.00  0.00    -0.253 OA
ATOM      4  N   UNL     1      -0.541  -0.235  -4.701  0.00  0.00    -0.283 N 
ATOM      5  C   UNL     1      -1.390   0.969  -4.763  0.00  0.00    +0.112 C 
ATOM      6  C   UNL     1      -1.379   1.386  -6.255  0.00  0.00    +0.052 C 
ATOM      7  C   UNL     1      -1.385   0.006  -6.964  0.00  0.00    +0.133 C 
ATOM      8  C   UNL     1      -0.519  -0.864  -6.030  0.00  0.00    +0.140 C 
ATOM      9  H   UNL     1      -0.532   0.791  -2.391  0.00  0.00    +0.151 HD
ENDROOT
BRANCH   7  10
ATOM     10  O   UNL     1      -0.792   0.102  -8.261  0.00  0.00    -0.390 OA
ATOM     11  H   UNL     1      -0.772  -0.735  -8.746  0.00  0.00    +0.210 HD
ENDBRANCH   7  10
BRANCH   1  12
ATOM     12  CA  UNL     1       0.718  -0.497  -1.257  0.00  0.00    +0.193 C 
BRANCH  12  14
ATOM     13  C   UNL     1      -0.019   1.526   0.010  0.00  0.00    +0.013 C 
ATOM     14  C   UNL     1       0.002  -0.004   0.002  0.00  0.00    -0.009 C 
ATOM     15  C   UNL     1       0.742  -0.511   1.242  0.00  0.00    +0.013 C 
ATOM     16  C   UNL     1      -1.433  -0.534   0.013  0.00  0.00    +0.013 C 
ENDBRANCH  12  14
BRANCH  12  17
ATOM     17  C   UNL     1       2.132   0.024  -1.268  0.00  0.00    +0.376 C 
ATOM     18  O   UNL     1       3.025  -0.626  -0.751  0.00  0.00    -0.244 OA
ATOM     19  OXT UNL     1       2.382   1.096  -1.792  0.00  0.00    -0.244 OA
ENDBRANCH  12  17
ENDBRANCH   1  12
TORSDOF 4
