REMARK  Name = ZINC35929739
REMARK  6 active torsions:
REMARK  status: ('A' for Active; 'I' for Inactive)
REMARK    1  A    between atoms: C_5  and  C_7
REMARK    2  A    between atoms: C_9  and  N_31
REMARK    3  A    between atoms: N_10  and  C_24
REMARK    4  A    between atoms: N_16  and  C_17
REMARK    5  A    between atoms: C_17  and  C_18
REMARK    6  A    between atoms: C_18  and  C_19
REMARK                            x       y       z     vdW  Elec       q    Type
REMARK                         _______ _______ _______ _____ _____    ______ ____
ROOT
ATOM      1  C   UNL     1       1.147  -2.183  -0.550  0.00  0.00    +0.090 A 
ATOM      2  C   UNL     1       0.009  -2.919  -0.149  0.00  0.00    +0.086 A 
ATOM      3  C   UNL     1      -1.297  -2.614   0.213  0.00  0.00    +0.131 A 
ATOM      4  N   UNL     1      -1.921  -3.773   0.497  0.00  0.00    -0.216 N 
ATOM      5  N   UNL     1      -1.036  -4.844   0.326  0.00  0.00    -0.144 NA
ATOM      6  C   UNL     1       0.134  -4.386  -0.061  0.00  0.00    +0.189 A 
ATOM      7  N   UNL     1       1.325  -4.936  -0.367  0.00  0.00    -0.193 NA
ATOM      8  C   UNL     1       2.335  -4.173  -0.732  0.00  0.00    +0.218 A 
ATOM      9  N   UNL     1       2.260  -2.849  -0.829  0.00  0.00    -0.214 NA
ATOM     10  N   UNL     1       3.538  -4.784  -1.036  0.00  0.00    -0.313 N 
ATOM     11  H   UNL     1       4.300  -4.248  -1.308  0.00  0.00    +0.149 HD
ENDROOT
BRANCH   1  16
ATOM     12  C   UNL     1       0.732   1.443   0.342  0.00  0.00    +0.001 A 
ATOM     13  C   UNL     1       1.001   2.052  -0.871  0.00  0.00    +0.001 A 
ATOM     14  C   UNL     1       1.316   1.289  -1.981  0.00  0.00    +0.020 A 
ATOM     15  C   UNL     1       1.365  -0.088  -1.884  0.00  0.00    +0.050 A 
ATOM     16  C   UNL     1       1.096  -0.708  -0.662  0.00  0.00    +0.020 A 
ATOM     17  C   UNL     1       0.778   0.069   0.453  0.00  0.00    +0.011 A 
ATOM     18 CL   UNL     1       1.761  -1.045  -3.277  0.00  0.00    -0.083 Cl
ENDBRANCH   1  16
BRANCH   4  19
ATOM     19  C   UNL     1      -3.256  -3.890   0.904  0.00  0.00    +0.068 A 
ATOM     20  C   UNL     1      -3.826  -2.911   1.707  0.00  0.00    +0.030 A 
ATOM     21  C   UNL     1      -5.143  -3.028   2.107  0.00  0.00    +0.040 A 
ATOM     22  C   UNL     1      -5.894  -4.120   1.708  0.00  0.00    +0.124 A 
ATOM     23  C   UNL     1      -5.328  -5.098   0.908  0.00  0.00    +0.040 A 
ATOM     24  C   UNL     1      -4.013  -4.982   0.501  0.00  0.00    +0.030 A 
ATOM     25  F   UNL     1      -7.182  -4.233   2.102  0.00  0.00    -0.205 F 
ENDBRANCH   4  19
BRANCH   3  26
ATOM     26  N   UNL     1      -1.855  -1.350   0.270  0.00  0.00    -0.342 N 
ATOM     27  H   UNL     1      -1.296  -0.567   0.148  0.00  0.00    +0.144 HD
ATOM     28  H   UNL     1      -2.806  -1.247   0.433  0.00  0.00    +0.144 HD
ENDBRANCH   3  26
BRANCH  10  29
ATOM     29  C   UNL     1       3.663  -6.241  -0.948  0.00  0.00    +0.109 C 
BRANCH  29  30
ATOM     30  C   UNL     1       5.085  -6.655  -1.334  0.00  0.00    +0.061 C 
BRANCH  30  31
ATOM     31  C   UNL     1       5.213  -8.154  -1.244  0.00  0.00    -0.009 A 
ATOM     32  C   UNL     1       4.993  -9.089  -2.200  0.00  0.00    +0.011 A 
ATOM     33  C   UNL     1       5.176 -10.423  -1.889  0.00  0.00    +0.008 A 
ATOM     34  C   UNL     1       5.571 -10.757  -0.636  0.00  0.00    +0.045 A 
ATOM     35  S   UNL     1       5.702  -9.159   0.148  0.00  0.00    -0.102 S 
ENDBRANCH  30  31
ENDBRANCH  29  30
ENDBRANCH  10  29
TORSDOF 6
