REMARK  Name = ZINC27315954
REMARK  10 active torsions:
REMARK  status: ('A' for Active; 'I' for Inactive)
REMARK    1  A    between atoms: C_1  and  C_2
REMARK    2  A    between atoms: C_2  and  C_3
REMARK    3  A    between atoms: C_3  and  C_4
REMARK    4  A    between atoms: C_4  and  N_5
REMARK    5  A    between atoms: C_6  and  N_33
REMARK    6  A    between atoms: C_7  and  N_14
REMARK    7  A    between atoms: N_14  and  C_15
REMARK    8  A    between atoms: N_14  and  C_22
REMARK    9  A    between atoms: C_15  and  C_16
REMARK   10  A    between atoms: C_22  and  C_23
REMARK                            x       y       z     vdW  Elec       q    Type
REMARK                         _______ _______ _______ _____ _____    ______ ____
ROOT
ATOM      1  N   UNL     1       2.242   3.972   0.150  0.00  0.00    -0.314 N 
ENDROOT
BRANCH   1   4
ATOM      2  N   UNL     1      -1.403   3.765   0.523  0.00  0.00    -0.280 N 
ATOM      3  C   UNL     1      -0.135   4.293   0.438  0.00  0.00    +0.127 A 
ATOM      4  C   UNL     1       0.929   3.456   0.241  0.00  0.00    +0.134 A 
ATOM      5  C   UNL     1       0.697   2.073   0.132  0.00  0.00    +0.277 A 
ATOM      6  O   UNL     1       1.629   1.306  -0.042  0.00  0.00    -0.266 OA
ATOM      7  N   UNL     1      -0.562   1.600   0.222  0.00  0.00    -0.273 N 
ATOM      8  H   UNL     1      -0.751   0.519   0.142  0.00  0.00    +0.173 HD
ATOM      9  C   UNL     1      -1.597   2.439   0.410  0.00  0.00    +0.331 A 
ATOM     10  O   UNL     1      -2.725   1.990   0.483  0.00  0.00    -0.246 OA
BRANCH   3  11
ATOM     11  N   UNL     1       0.061   5.651   0.549  0.00  0.00    -0.343 N 
ATOM     12  H   UNL     1       1.077   6.067   0.479  0.00  0.00    +0.144 HD
ATOM     13  H   UNL     1      -0.798   6.320   0.707  0.00  0.00    +0.144 HD
ENDBRANCH   3  11
BRANCH   2  14
ATOM     14  C   UNL     1      -2.549   4.653   0.733  0.00  0.00    +0.128 C 
BRANCH  14  15
ATOM     15  C   UNL     1      -3.102   5.101  -0.622  0.00  0.00    +0.021 C 
BRANCH  15  17
ATOM     16  C   UNL     1      -4.852   6.475  -1.758  0.00  0.00    +0.004 C 
ATOM     17  C   UNL     1      -4.299   6.028  -0.404  0.00  0.00    -0.002 C 
ENDBRANCH  15  17
ENDBRANCH  14  15
ENDBRANCH   2  14
ENDBRANCH   1   4
BRANCH   1  18
ATOM     18  C   UNL     1       3.076   3.489   1.259  0.00  0.00    +0.140 C 
BRANCH  18  19
ATOM     19  C   UNL     1       4.315   4.341   1.364  0.00  0.00    -0.030 A 
ATOM     20  C   UNL     1       5.489   3.931   0.760  0.00  0.00    +0.005 A 
ATOM     21  C   UNL     1       6.623   4.715   0.852  0.00  0.00    +0.000 A 
ATOM     22  C   UNL     1       6.587   5.903   1.557  0.00  0.00    +0.000 A 
ATOM     23  C   UNL     1       5.415   6.310   2.167  0.00  0.00    +0.000 A 
ATOM     24  C   UNL     1       4.279   5.529   2.070  0.00  0.00    +0.005 A 
ENDBRANCH  18  19
ENDBRANCH   1  18
BRANCH   1  25
ATOM     25  C   UNL     1       2.848   3.644  -1.147  0.00  0.00    +0.143 C 
BRANCH  25  26
ATOM     26  C   UNL     1       2.202   4.471  -2.228  0.00  0.00    -0.004 A 
ATOM     27  C   UNL     1       1.311   3.901  -3.084  0.00  0.00    +0.007 A 
ATOM     28  C   UNL     1       0.702   4.648  -4.090  0.00  0.00    +0.001 A 
ATOM     29  C   UNL     1       0.981   5.972  -4.245  0.00  0.00    +0.010 A 
ATOM     30  C   UNL     1       1.896   6.593  -3.379  0.00  0.00    +0.001 A 
ATOM     31  C   UNL     1       2.512   5.837  -2.351  0.00  0.00    +0.076 A 
ATOM     32  N   UNL     1       3.387   6.423  -1.528  0.00  0.00    -0.255 NA
ATOM     33  C   UNL     1       3.684   7.695  -1.642  0.00  0.00    +0.111 A 
ATOM     34  C   UNL     1       3.110   8.496  -2.627  0.00  0.00    +0.020 A 
ATOM     35  C   UNL     1       2.212   7.959  -3.505  0.00  0.00    +0.011 A 
ENDBRANCH  25  26
ENDBRANCH   1  25
TORSDOF 9
