REMARK  Name = ZINC09805256
REMARK  9 active torsions:
REMARK  status: ('A' for Active; 'I' for Inactive)
REMARK    1  A    between atoms: C_1  and  C_2
REMARK    2  A    between atoms: C_2  and  N_3
REMARK    3  A    between atoms: N_3  and  C_4
REMARK    4  A    between atoms: N_3  and  C_6
REMARK    5  A    between atoms: C_4  and  C_5
REMARK    6  A    between atoms: C_9  and  C_12
REMARK    7  A    between atoms: C_19  and  C_31
REMARK    8  A    between atoms: C_35  and  O_37
REMARK    9  A    between atoms: O_37  and  C_38
REMARK                            x       y       z     vdW  Elec       q    Type
REMARK                         _______ _______ _______ _____ _____    ______ ____
ROOT
ATOM      1  C   UNL     1      -1.423  -6.276   0.074  0.00  0.00    +0.136 C 
ATOM      2  C   UNL     1      -2.655  -6.766  -0.649  0.00  0.00    +0.036 C 
ATOM      3  H   UNL     1      -4.145  -8.523   1.490  0.00  0.00    +0.152 HD
ATOM      4  C   UNL     1      -2.620  -6.550  -2.047  0.00  0.00    +0.163 C 
ATOM      5  O   UNL     1      -1.653  -5.994  -2.530  0.00  0.00    -0.292 OA
ATOM      6  C   UNL     1      -3.733  -6.982  -2.954  0.00  0.00    +0.088 C 
ATOM      7  C   UNL     1      -4.433  -8.193  -2.325  0.00  0.00    +0.032 C 
ATOM      8  C   UNL     1      -4.905  -7.785  -0.931  0.00  0.00    +0.059 C 
ATOM      9  C   UNL     1      -3.717  -7.363  -0.083  0.00  0.00    +0.017 C 
ATOM     10  N   UNL     1      -3.840  -7.636   1.240  0.00  0.00    -0.316 N 
ATOM     11  C   UNL     1      -3.562  -6.738   2.264  0.00  0.00    +0.052 A 
ATOM     12  C   UNL     1      -4.541  -6.269   3.123  0.00  0.00    +0.025 A 
ATOM     13  C   UNL     1      -4.189  -5.410   4.150  0.00  0.00    +0.002 A 
ATOM     14  C   UNL     1      -2.870  -5.028   4.318  0.00  0.00    +0.002 A 
ATOM     15  C   UNL     1      -1.893  -5.483   3.450  0.00  0.00    +0.025 A 
ATOM     16  C   UNL     1      -2.246  -6.326   2.409  0.00  0.00    +0.049 A 
ATOM     17  N   UNL     1      -1.321  -6.723   1.447  0.00  0.00    -0.331 N 
ATOM     18  H   UNL     1      -0.592  -7.309   1.705  0.00  0.00    +0.147 HD
ENDROOT
BRANCH   1  22
ATOM     19  C   UNL     1      -1.442  -2.004   0.042  0.00  0.00    +0.013 A 
ATOM     20  C   UNL     1      -2.422  -2.694   0.730  0.00  0.00    +0.022 A 
ATOM     21  C   UNL     1      -2.416  -4.077   0.741  0.00  0.00    +0.007 A 
ATOM     22  C   UNL     1      -1.430  -4.769   0.062  0.00  0.00    -0.023 A 
ATOM     23  C   UNL     1      -0.451  -4.078  -0.627  0.00  0.00    +0.007 A 
ATOM     24  C   UNL     1      -0.459  -2.696  -0.641  0.00  0.00    +0.022 A 
BRANCH  19  25
ATOM     25  N   UNL     1      -1.448  -0.606   0.031  0.00  0.00    -0.394 NA
ATOM     26  H   UNL     1      -0.671  -0.271  -0.518  0.00  0.00    +0.126 HD
BRANCH  25  28
ATOM     27  C   UNL     1      -2.765  -0.525  -2.032  0.00  0.00    +0.022 C 
ATOM     28  C   UNL     1      -2.706  -0.126  -0.556  0.00  0.00    +0.081 C 
ENDBRANCH  25  28
BRANCH  25  29
ATOM     29  C   UNL     1      -1.328  -0.105   1.407  0.00  0.00    +0.081 C 
ATOM     30  C   UNL     1       0.036  -0.501   1.976  0.00  0.00    +0.022 C 
ENDBRANCH  25  29
ENDBRANCH  19  25
ENDBRANCH   1  22
BRANCH   7  31
ATOM     31  C   UNL     1      -5.614  -8.595  -3.170  0.00  0.00    -0.040 A 
ATOM     32  C   UNL     1      -6.641  -7.696  -3.394  0.00  0.00    +0.004 A 
ATOM     33  C   UNL     1      -7.726  -8.062  -4.168  0.00  0.00    +0.004 A 
ATOM     34  C   UNL     1      -7.788  -9.327  -4.719  0.00  0.00    +0.045 A 
ATOM     35  C   UNL     1      -6.760 -10.231  -4.495  0.00  0.00    +0.120 A 
ATOM     36  C   UNL     1      -5.669  -9.859  -3.723  0.00  0.00    +0.049 A 
BRANCH  35  37
ATOM     37  O   UNL     1      -6.819 -11.477  -5.035  0.00  0.00    -0.495 OA
ATOM     38  C   UNL     1      -7.970 -11.788  -5.824  0.00  0.00    +0.277 C 
ENDBRANCH  35  37
ENDBRANCH   7  31
TORSDOF 6
