REMARK  Name = ZINC39536503
REMARK  10 active torsions:
REMARK  status: ('A' for Active; 'I' for Inactive)
REMARK    1  A    between atoms: C_1  and  C_2
REMARK    2  A    between atoms: C_2  and  N_3
REMARK    3  A    between atoms: N_3  and  C_4
REMARK    4  A    between atoms: C_9  and  C_10
REMARK    5  A    between atoms: C_11  and  C_13
REMARK    6  A    between atoms: C_13  and  N_14
REMARK    7  A    between atoms: N_14  and  C_15
REMARK    8  A    between atoms: N_14  and  C_16
REMARK    9  A    between atoms: C_16  and  C_18
REMARK   10  A    between atoms: C_16  and  C_19
REMARK                            x       y       z     vdW  Elec       q    Type
REMARK                         _______ _______ _______ _____ _____    ______ ____
ROOT
ATOM      1  N   UNL     1      -2.159  -0.833   3.607  0.00  0.00    +0.389 N 
ATOM      2  C   UNL     1      -2.441  -2.275   3.594  0.00  0.00    -0.095 C 
ATOM      3  H   UNL     1      -3.024  -0.321   3.519  0.00  0.00    -0.081 HD
ENDROOT
BRANCH   1   4
ATOM      4  C   UNL     1      -1.503  -0.474   4.872  0.00  0.00    -0.014 C 
ATOM      5  C   UNL     1      -2.425  -0.824   6.042  0.00  0.00    -0.006 C 
BRANCH   4   6
ATOM      6  C   UNL     1      -1.214   1.005   4.885  0.00  0.00    +0.066 A 
ATOM      7  N   UNL     1      -2.008   1.976   4.538  0.00  0.00    -0.246 NA
ATOM      8  C   UNL     1      -1.630   3.269   4.596  0.00  0.00    +0.078 A 
ATOM      9  C   UNL     1      -2.346   4.438   4.264  0.00  0.00    +0.029 A 
ATOM     10  C   UNL     1      -1.771   5.664   4.397  0.00  0.00    +0.002 A 
ATOM     11  C   UNL     1      -0.470   5.811   4.860  0.00  0.00    +0.001 A 
ATOM     12  C   UNL     1       0.264   4.689   5.196  0.00  0.00    +0.017 A 
ATOM     13  C   UNL     1      -0.308   3.446   5.065  0.00  0.00    +0.039 A 
ATOM     14  S   UNL     1       0.205   1.775   5.360  0.00  0.00    -0.074 S 
ENDBRANCH   4   6
ENDBRANCH   1   4
BRANCH   1  15
ATOM     15  C   UNL     1      -1.274  -0.497   2.484  0.00  0.00    +0.020 C 
BRANCH  15  17
ATOM     16  N   UNL     1      -1.372  -0.511   0.012  0.00  0.00    -0.273 N 
ATOM     17  C   UNL     1      -1.993  -0.751   1.184  0.00  0.00    +0.203 C 
ATOM     18  O   UNL     1      -3.131  -1.171   1.193  0.00  0.00    -0.277 OA
BRANCH  16  19
ATOM     19  C   UNL     1      -2.040  -0.747  -1.194  0.00  0.00    +0.039 A 
ATOM     20  C   UNL     1      -1.961  -1.993  -1.802  0.00  0.00    +0.024 A 
ATOM     21  C   UNL     1      -2.621  -2.223  -2.993  0.00  0.00    +0.002 A 
ATOM     22  C   UNL     1      -3.361  -1.213  -3.581  0.00  0.00    +0.000 A 
ATOM     23  C   UNL     1      -3.441   0.029  -2.979  0.00  0.00    +0.005 A 
ATOM     24  C   UNL     1      -2.788   0.263  -1.784  0.00  0.00    -0.029 A 
ATOM     25  C   UNL     1      -2.882   1.616  -1.126  0.00  0.00    +0.045 C 
ENDBRANCH  16  19
BRANCH  16  27
ATOM     26  C   UNL     1      -0.019   1.526   0.010  0.00  0.00    +0.025 C 
ATOM     27  C   UNL     1       0.002  -0.004   0.002  0.00  0.00    +0.110 C 
ENDBRANCH  16  27
ENDBRANCH  15  17
ENDBRANCH   1  15
TORSDOF 6
