REMARK  Name = ZINC16571235
REMARK  11 active torsions:
REMARK  status: ('A' for Active; 'I' for Inactive)
REMARK    1  A    between atoms: C_1  and  C_2
REMARK    2  A    between atoms: C_2  and  C_3
REMARK    3  A    between atoms: C_3  and  N_4
REMARK    4  A    between atoms: C_7  and  C_19
REMARK    5  A    between atoms: C_8  and  N_11
REMARK    6  A    between atoms: C_14  and  C_17
REMARK    7  A    between atoms: C_17  and  C_18
REMARK    8  A    between atoms: C_20  and  C_33
REMARK    9  A    between atoms: N_22  and  C_25
REMARK   10  A    between atoms: C_23  and  O_24
REMARK   11  A    between atoms: C_33  and  C_34
REMARK                            x       y       z     vdW  Elec       q    Type
REMARK                         _______ _______ _______ _____ _____    ______ ____
ROOT
ATOM      1  N   UNL     1       0.346  -2.158  -0.704  0.00  0.00    -0.233 N 
ATOM      2  C   UNL     1      -0.209  -2.229   0.518  0.00  0.00    +0.256 C 
ATOM      3  O   UNL     1      -0.472  -3.250   1.120  0.00  0.00    -0.269 OA
ATOM      4  C   UNL     1      -0.446  -0.848   1.007  0.00  0.00    +0.080 C 
ATOM      5  C   UNL     1       0.002  -0.004   0.002  0.00  0.00    +0.122 C 
ATOM      6  C   UNL     1       0.496  -0.876  -1.079  0.00  0.00    +0.271 C 
ATOM      7  O   UNL     1       0.965  -0.498  -2.134  0.00  0.00    -0.268 OA
ENDROOT
BRANCH   5   8
ATOM      8  N   UNL     1      -0.017   1.368   0.010  0.00  0.00    -0.318 N 
ATOM      9  C   UNL     1      -1.184   2.001   0.019  0.00  0.00    +0.091 A 
ATOM     10  C   UNL     1      -1.237   3.379   0.031  0.00  0.00    +0.021 A 
ATOM     11  C   UNL     1      -0.054   4.104   0.024  0.00  0.00    -0.045 A 
ATOM     12  C   UNL     1       1.149   3.412   0.009  0.00  0.00    +0.021 A 
ATOM     13  C   UNL     1       1.133   2.033   0.002  0.00  0.00    +0.091 A 
BRANCH  11  14
ATOM     14  C   UNL     1      -0.074   5.611   0.032  0.00  0.00    +0.032 C 
ATOM     15  C   UNL     1      -0.094   6.128  -1.408  0.00  0.00    +0.009 C 
ENDBRANCH  11  14
ENDBRANCH   5   8
BRANCH   4  16
ATOM     16  C   UNL     1      -1.035  -0.455   2.295  0.00  0.00    +0.074 A 
ATOM     17  C   UNL     1      -0.337  -0.225   3.504  0.00  0.00    +0.075 A 
ATOM     18  N   UNL     1      -1.205   0.109   4.419  0.00  0.00    -0.168 NA
ATOM     19  N   UNL     1      -2.488   0.102   3.861  0.00  0.00    -0.200 N 
ATOM     20  C   UNL     1      -2.387  -0.244   2.559  0.00  0.00    +0.224 A 
BRANCH  19  21
ATOM     21  C   UNL     1      -3.678   0.402   4.539  0.00  0.00    +0.071 A 
ATOM     22  C   UNL     1      -3.827   0.044   5.873  0.00  0.00    +0.029 A 
ATOM     23  C   UNL     1      -5.000   0.341   6.539  0.00  0.00    +0.023 A 
ATOM     24  C   UNL     1      -6.026   0.994   5.879  0.00  0.00    +0.059 A 
ATOM     25  C   UNL     1      -5.880   1.351   4.549  0.00  0.00    +0.061 A 
ATOM     26  C   UNL     1      -4.706   1.061   3.880  0.00  0.00    +0.049 A 
ATOM     27 CL   UNL     1      -7.170   2.170   3.724  0.00  0.00    -0.082 Cl
ATOM     28 CL   UNL     1      -7.499   1.364   6.719  0.00  0.00    -0.082 Cl
ENDBRANCH  19  21
BRANCH  20  29
ATOM     29  O   UNL     1      -3.406  -0.362   1.676  0.00  0.00    -0.492 OA
ATOM     30  H   UNL     1      -3.793  -1.248   1.638  0.00  0.00    +0.294 HD
ENDBRANCH  20  29
BRANCH  17  31
ATOM     31  C   UNL     1       1.153  -0.341   3.700  0.00  0.00    +0.054 C 
ATOM     32  C   UNL     1       1.812   1.010   3.413  0.00  0.00    +0.010 C 
ENDBRANCH  17  31
ENDBRANCH   4  16
BRANCH   1  33
ATOM     33  C   UNL     1       0.727  -3.316  -1.517  0.00  0.00    +0.117 C 
BRANCH  33  35
ATOM     34  C   UNL     1      -0.055  -4.941  -3.245  0.00  0.00    +0.005 C 
ATOM     35  C   UNL     1      -0.453  -3.732  -2.397  0.00  0.00    +0.016 C 
ENDBRANCH  33  35
ENDBRANCH   1  33
TORSDOF 8
