REMARK  Name = ZINC59891103
REMARK  9 active torsions:
REMARK  status: ('A' for Active; 'I' for Inactive)
REMARK    1  A    between atoms: C_1  and  C_2
REMARK    2  A    between atoms: C_2  and  C_3
REMARK    3  A    between atoms: C_3  and  C_4
REMARK    4  A    between atoms: C_4  and  C_5
REMARK    5  A    between atoms: C_5  and  C_28
REMARK    6  A    between atoms: N_6  and  N_7
REMARK    7  A    between atoms: C_10  and  S_13
REMARK    8  A    between atoms: S_13  and  C_14
REMARK    9  A    between atoms: C_14  and  C_15
REMARK                            x       y       z     vdW  Elec       q    Type
REMARK                         _______ _______ _______ _____ _____    ______ ____
ROOT
ATOM      1  S   UNL     1       7.285  -5.881  -1.407  0.00  0.00    -0.075 S 
ENDROOT
BRANCH   1   5
ATOM      2  N   UNL     1       3.204  -3.606  -3.557  0.00  0.00    -0.205 N 
ATOM      3  C   UNL     1       4.396  -4.298  -3.447  0.00  0.00    +0.232 A 
ATOM      4  N   UNL     1       5.015  -4.602  -2.326  0.00  0.00    -0.186 NA
ATOM      5  C   UNL     1       6.139  -5.274  -2.600  0.00  0.00    +0.211 A 
ATOM      6  N   UNL     1       6.250  -5.407  -3.900  0.00  0.00    -0.144 NA
ATOM      7  N   UNL     1       5.127  -4.787  -4.472  0.00  0.00    -0.245 N 
ATOM      8  H   UNL     1       2.821  -3.433  -4.431  0.00  0.00    +0.177 HD
ATOM      9  H   UNL     1       4.919  -4.720  -5.417  0.00  0.00    +0.192 HD
BRANCH   2  11
ATOM     10  C   UNL     1       1.444  -2.513  -2.505  0.00  0.00    +0.034 C 
ATOM     11  N   UNL     1       2.548  -3.154  -2.404  0.00  0.00    -0.189 NA
ATOM     12  C   UNL     1       0.851  -2.245  -3.864  0.00  0.00    +0.062 C 
BRANCH  10  13
ATOM     13  C   UNL     1       0.739  -2.027  -1.265  0.00  0.00    +0.052 C 
BRANCH  13  14
ATOM     14  C   UNL     1       0.718  -0.497  -1.257  0.00  0.00    +0.006 C 
BRANCH  14  16
ATOM     15  C   UNL     1      -0.019   1.526   0.010  0.00  0.00    +0.004 C 
ATOM     16  C   UNL     1       0.002  -0.004   0.002  0.00  0.00    -0.003 C 
ENDBRANCH  14  16
ENDBRANCH  13  14
ENDBRANCH  10  13
ENDBRANCH   2  11
ENDBRANCH   1   5
BRANCH   1  17
ATOM     17  C   UNL     1       8.569  -6.686  -2.403  0.00  0.00    +0.173 C 
BRANCH  17  18
ATOM     18  C   UNL     1       9.627  -7.257  -1.493  0.00  0.00    +0.229 C 
ATOM     19  O   UNL     1       9.523  -7.133  -0.291  0.00  0.00    -0.275 OA
ATOM     20  N   UNL     1      10.687  -7.905  -2.015  0.00  0.00    -0.264 N 
ATOM     21  C   UNL     1      11.659  -8.430  -1.179  0.00  0.00    +0.165 A 
ATOM     22  N   UNL     1      11.719  -8.402   0.132  0.00  0.00    -0.225 NA
ATOM     23  C   UNL     1      12.736  -8.960   0.824  0.00  0.00    +0.080 A 
ATOM     24  C   UNL     1      12.920  -9.000   2.226  0.00  0.00    +0.030 A 
ATOM     25  C   UNL     1      14.018  -9.611   2.771  0.00  0.00    +0.017 A 
ATOM     26  C   UNL     1      14.985 -10.209   1.975  0.00  0.00    +0.019 A 
ATOM     27  C   UNL     1      14.837 -10.190   0.599  0.00  0.00    +0.032 A 
ATOM     28  C   UNL     1      13.739  -9.579   0.045  0.00  0.00    +0.042 A 
ATOM     29  S   UNL     1      13.146  -9.322  -1.610  0.00  0.00    -0.052 S 
ATOM     30 BR   UNL     1      16.489 -11.043   2.762  0.00  0.00    -0.050 Br
ATOM     31  H   UNL     1      10.769  -8.004  -2.977  0.00  0.00    +0.157 HD
ENDBRANCH  17  18
ENDBRANCH   1  17
TORSDOF 7
