REMARK  Name = ZINC08813390
REMARK  14 active torsions:
REMARK  status: ('A' for Active; 'I' for Inactive)
REMARK    1  A    between atoms: C_1  and  C_2
REMARK    2  A    between atoms: C_2  and  C_3
REMARK    3  A    between atoms: N_9  and  C_10
REMARK    4  A    between atoms: C_10  and  C_11
REMARK    5  A    between atoms: C_11  and  C_12
REMARK    6  A    between atoms: C_12  and  N_13
REMARK    7  A    between atoms: C_14  and  C_16
REMARK    8  A    between atoms: C_19  and  C_22
REMARK    9  A    between atoms: C_22  and  N_23
REMARK   10  A    between atoms: N_23  and  S_24
REMARK   11  A    between atoms: S_24  and  C_27
REMARK   12  A    between atoms: C_28  and  C_35
REMARK   13  A    between atoms: C_30  and  C_34
REMARK   14  A    between atoms: C_32  and  C_33
REMARK                            x       y       z     vdW  Elec       q    Type
REMARK                         _______ _______ _______ _____ _____    ______ ____
ROOT
ATOM      1  C   UNL     1      -3.197   4.561  -7.212  0.00  0.00    +0.075 C 
ATOM      2  C   UNL     1      -2.641   4.797  -8.618  0.00  0.00    +0.013 C 
ATOM      3  C   UNL     1      -3.656   5.591  -9.442  0.00  0.00    +0.005 C 
ATOM      4  C   UNL     1      -3.920   6.938  -8.765  0.00  0.00    +0.005 C 
ATOM      5  C   UNL     1      -4.476   6.703  -7.359  0.00  0.00    +0.005 C 
ATOM      6  C   UNL     1      -3.461   5.908  -6.536  0.00  0.00    +0.013 C 
ENDROOT
BRANCH   1   8
ATOM      7  N   UNL     1      -1.810   2.554  -6.807  0.00  0.00    -0.315 N 
ATOM      8  C   UNL     1      -2.197   3.779  -6.401  0.00  0.00    +0.216 C 
ATOM      9  O   UNL     1      -1.740   4.252  -5.381  0.00  0.00    -0.276 OA
ATOM     10  H   UNL     1      -2.176   2.175  -7.622  0.00  0.00    +0.149 HD
BRANCH   7  11
ATOM     11  C   UNL     1      -0.838   1.793  -6.018  0.00  0.00    +0.102 C 
BRANCH  11  12
ATOM     12  C   UNL     1      -0.575   0.446  -6.695  0.00  0.00    +0.000 C 
BRANCH  12  13
ATOM     13  C   UNL     1       0.441  -0.348  -5.871  0.00  0.00    -0.077 C 
BRANCH  13  19
ATOM     14  C   UNL     1       1.587  -2.444  -5.677  0.00  0.00    -0.069 C 
ATOM     15  C   UNL     1       1.789  -3.823  -6.309  0.00  0.00    -0.015 C 
ATOM     16  C   UNL     1       2.411  -3.655  -7.699  0.00  0.00    -0.003 C 
ATOM     17  C   UNL     1       1.507  -2.754  -8.546  0.00  0.00    -0.019 C 
ATOM     18  C   UNL     1       1.316  -1.415  -7.830  0.00  0.00    -0.078 C 
ATOM     19  N   UNL     1       0.694  -1.641  -6.520  0.00  0.00    +0.382 N 
ATOM     20  H   UNL     1      -0.180  -2.131  -6.644  0.00  0.00    -0.081 HD
BRANCH  14  22
ATOM     21  C   UNL     1       1.917  -3.408  -3.395  0.00  0.00    +0.002 C 
ATOM     22  C   UNL     1       0.967  -2.607  -4.288  0.00  0.00    -0.019 C 
ENDBRANCH  14  22
ENDBRANCH  13  19
ENDBRANCH  12  13
ENDBRANCH  11  12
ENDBRANCH   7  11
ENDBRANCH   1   8
BRANCH   4  23
ATOM     23  C   UNL     1      -4.935   7.733  -9.589  0.00  0.00    +0.109 C 
BRANCH  23  24
ATOM     24  N   UNL     1      -5.098   9.068  -9.008  0.00  0.00    -0.190 NA
ATOM     25  H   UNL     1      -4.773   9.249  -8.112  0.00  0.00    +0.148 HD
BRANCH  24  26
ATOM     26  S   UNL     1      -5.836  10.266  -9.880  0.00  0.00    +0.059 S 
ATOM     27  O   UNL     1      -5.865  11.416  -9.046  0.00  0.00    -0.153 OA
ATOM     28  O   UNL     1      -5.224  10.270 -11.163  0.00  0.00    -0.153 OA
BRANCH  26  29
ATOM     29  C   UNL     1      -7.511   9.777 -10.123  0.00  0.00    +0.111 A 
ATOM     30  C   UNL     1      -8.488  10.193  -9.238  0.00  0.00    -0.024 A 
ATOM     31  C   UNL     1      -9.802   9.809  -9.428  0.00  0.00    +0.008 A 
ATOM     32  C   UNL     1     -10.140   9.010 -10.504  0.00  0.00    -0.050 A 
ATOM     33  C   UNL     1      -9.164   8.595 -11.390  0.00  0.00    +0.008 A 
ATOM     34  C   UNL     1      -7.850   8.982 -11.202  0.00  0.00    -0.024 A 
ATOM     35  C   UNL     1      -6.786   8.534 -12.171  0.00  0.00    +0.046 C 
ATOM     36  C   UNL     1     -11.573   8.591 -10.711  0.00  0.00    +0.044 C 
ATOM     37  C   UNL     1      -8.120  11.064  -8.065  0.00  0.00    +0.046 C 
ENDBRANCH  26  29
ENDBRANCH  24  26
ENDBRANCH  23  24
ENDBRANCH   4  23
TORSDOF 10
