REMARK  Name = ZINC57850312
REMARK  10 active torsions:
REMARK  status: ('A' for Active; 'I' for Inactive)
REMARK    1  A    between atoms: C_1  and  C_2
REMARK    2  A    between atoms: C_2  and  C_3
REMARK    3  A    between atoms: C_3  and  C_4
REMARK    4  A    between atoms: C_3  and  C_6
REMARK    5  A    between atoms: C_3  and  N_22
REMARK    6  A    between atoms: C_4  and  C_5
REMARK    7  A    between atoms: C_6  and  N_7
REMARK    8  A    between atoms: N_13  and  C_16
REMARK    9  A    between atoms: C_16  and  C_17
REMARK   10  A    between atoms: C_16  and  C_18
REMARK                            x       y       z     vdW  Elec       q    Type
REMARK                         _______ _______ _______ _____ _____    ______ ____
ROOT
ATOM      1  N   UNL     1      -2.788  -2.566   0.141  0.00  0.00    -0.226 N 
ATOM      2  C   UNL     1      -3.524  -2.738   1.258  0.00  0.00    +0.246 C 
ATOM      3  O   UNL     1      -3.188  -2.512   2.401  0.00  0.00    -0.273 OA
ATOM      4  C   UNL     1      -4.856  -3.272   0.785  0.00  0.00    +0.109 C 
ATOM      5  C   UNL     1      -5.116  -4.656   1.372  0.00  0.00    +0.017 C 
ATOM      6  C   UNL     1      -6.490  -5.150   0.912  0.00  0.00    -0.076 C 
ATOM      7  N   UNL     1      -7.524  -4.207   1.354  0.00  0.00    +0.381 N 
ATOM      8  C   UNL     1      -7.320  -2.903   0.712  0.00  0.00    -0.076 C 
ATOM      9  C   UNL     1      -5.981  -2.314   1.163  0.00  0.00    +0.017 C 
ATOM     10  N   UNL     1      -4.712  -3.349  -0.674  0.00  0.00    -0.285 N 
ATOM     11  C   UNL     1      -3.471  -2.911  -0.958  0.00  0.00    +0.309 C 
ATOM     12  O   UNL     1      -3.020  -2.839  -2.084  0.00  0.00    -0.252 OA
ATOM     13  H   UNL     1      -5.380  -3.653  -1.308  0.00  0.00    +0.151 HD
ATOM     14  H   UNL     1      -7.473  -4.099   2.356  0.00  0.00    -0.081 HD
ENDROOT
BRANCH   7  15
ATOM     15  C   UNL     1      -8.848  -4.729   0.989  0.00  0.00    -0.075 C 
ATOM     16  C   UNL     1      -9.068  -6.082   1.667  0.00  0.00    -0.014 C 
ATOM     17  C   UNL     1      -9.928  -3.746   1.449  0.00  0.00    -0.014 C 
ENDBRANCH   7  15
BRANCH   1  18
ATOM     18  C   UNL     1      -1.413  -2.059   0.130  0.00  0.00    +0.105 C 
BRANCH  18  19
ATOM     19  C   UNL     1      -1.433  -0.534   0.013  0.00  0.00    -0.055 C 
BRANCH  19  20
ATOM     20  N   UNL     1      -2.157   0.036   1.157  0.00  0.00    +0.383 N 
ATOM     21  H   UNL     1      -2.170   1.042   1.080  0.00  0.00    -0.089 HD
ATOM     22  H   UNL     1      -3.103  -0.313   1.165  0.00  0.00    -0.089 HD
ATOM     23  H   UNL     1      -1.694  -0.229   2.014  0.00  0.00    -0.089 HD
ENDBRANCH  19  20
BRANCH  19  25
ATOM     24  C   UNL     1      -0.019   1.526   0.010  0.00  0.00    +0.002 C 
ATOM     25  C   UNL     1       0.002  -0.004   0.002  0.00  0.00    -0.015 C 
ENDBRANCH  19  25
BRANCH  19  26
ATOM     26  C   UNL     1      -2.135  -0.131  -1.286  0.00  0.00    -0.015 C 
ATOM     27  C   UNL     1      -1.382  -0.725  -2.478  0.00  0.00    +0.002 C 
ENDBRANCH  19  26
ENDBRANCH  18  19
ENDBRANCH   1  18
TORSDOF 6
