REMARK  Name = ZINC22150649
REMARK  8 active torsions:
REMARK  status: ('A' for Active; 'I' for Inactive)
REMARK    1  A    between atoms: C_1  and  C_2
REMARK    2  A    between atoms: C_2  and  C_4
REMARK    3  A    between atoms: C_2  and  N_11
REMARK    4  A    between atoms: C_12  and  C_14
REMARK    5  A    between atoms: C_14  and  S_15
REMARK    6  A    between atoms: S_15  and  C_16
REMARK    7  A    between atoms: C_19  and  C_22
REMARK    8  A    between atoms: N_20  and  C_21
REMARK                            x       y       z     vdW  Elec       q    Type
REMARK                         _______ _______ _______ _____ _____    ______ ____
ROOT
ATOM      1  C   UNL     1      -1.378   9.482   0.050  0.00  0.00    +0.192 A 
ATOM      2  N   UNL     1      -0.877   9.079  -1.095  0.00  0.00    -0.122 NA
ATOM      3  N   UNL     1      -0.780   7.798  -1.103  0.00  0.00    -0.130 NA
ATOM      4  C   UNL     1      -1.211   7.309   0.026  0.00  0.00    +0.178 A 
ATOM      5  N   UNL     1      -1.611   8.364   0.799  0.00  0.00    -0.306 N 
ATOM      6  C   UNL     1      -2.172   8.307   2.151  0.00  0.00    +0.153 C 
ENDROOT
BRANCH   4   7
ATOM      7  C   UNL     1      -1.263   5.852   0.407  0.00  0.00    +0.278 C 
ATOM      8  C   UNL     1      -2.424   5.167  -0.326  0.00  0.00    +0.281 C 
ATOM      9  O   UNL     1      -2.437   3.785   0.048  0.00  0.00    -0.484 OA
ATOM     10  C   UNL     1      -1.241   3.136   0.030  0.00  0.00    +0.162 A 
ATOM     11  C   UNL     1      -1.219   1.749   0.017  0.00  0.00    +0.049 A 
ATOM     12  C   UNL     1      -0.013   1.076   0.008  0.00  0.00    +0.004 A 
ATOM     13  C   UNL     1       1.176   1.782   0.000  0.00  0.00    +0.004 A 
ATOM     14  C   UNL     1       1.161   3.164   0.007  0.00  0.00    +0.049 A 
ATOM     15  C   UNL     1      -0.046   3.846   0.020  0.00  0.00    +0.163 A 
ATOM     16  O   UNL     1      -0.045   5.207   0.019  0.00  0.00    -0.474 OA
ENDBRANCH   4   7
BRANCH   1  17
ATOM     17  S   UNL     1      -1.695  11.148   0.527  0.00  0.00    -0.077 S 
BRANCH  17  18
ATOM     18  C   UNL     1      -1.143  12.012  -0.965  0.00  0.00    +0.173 C 
BRANCH  18  20
ATOM     19  N   UNL     1      -0.981  14.345  -1.770  0.00  0.00    -0.308 N 
ATOM     20  C   UNL     1      -1.327  13.497  -0.782  0.00  0.00    +0.224 C 
ATOM     21  O   UNL     1      -1.785  13.928   0.255  0.00  0.00    -0.275 OA
ATOM     22  H   UNL     1      -0.566  13.954  -2.711  0.00  0.00    +0.149 HD
BRANCH  19  24
ATOM     23  C   UNL     1       0.059  16.367  -0.869  0.00  0.00    +0.033 C 
ATOM     24  C   UNL     1      -1.159  15.789  -1.592  0.00  0.00    +0.100 C 
BRANCH  24  25
ATOM     25  C   UNL     1      -1.303  16.447  -2.940  0.00  0.00    -0.027 A 
ATOM     26  C   UNL     1      -0.514  16.034  -3.998  0.00  0.00    +0.008 A 
ATOM     27  C   UNL     1      -0.649  16.633  -5.236  0.00  0.00    +0.038 A 
ATOM     28  C   UNL     1      -1.566  17.655  -5.413  0.00  0.00    +0.123 A 
ATOM     29  C   UNL     1      -2.351  18.072  -4.352  0.00  0.00    +0.038 A 
ATOM     30  C   UNL     1      -2.219  17.467  -3.116  0.00  0.00    +0.008 A 
ATOM     31  F   UNL     1      -1.694  18.246  -6.622  0.00  0.00    -0.205 F 
ENDBRANCH  24  25
ENDBRANCH  19  24
ENDBRANCH  18  20
ENDBRANCH  17  18
ENDBRANCH   1  17
TORSDOF 6
