REMARK  Name = ZINC62257760
REMARK  9 active torsions:
REMARK  status: ('A' for Active; 'I' for Inactive)
REMARK    1  A    between atoms: C_1  and  C_2
REMARK    2  A    between atoms: C_4  and  C_7
REMARK    3  A    between atoms: C_7  and  O_8
REMARK    4  A    between atoms: O_8  and  C_9
REMARK    5  A    between atoms: C_12  and  C_15
REMARK    6  A    between atoms: C_15  and  N_16
REMARK    7  A    between atoms: N_16  and  C_17
REMARK    8  A    between atoms: N_21  and  C_23
REMARK    9  A    between atoms: C_23  and  C_24
REMARK                            x       y       z     vdW  Elec       q    Type
REMARK                         _______ _______ _______ _____ _____    ______ ____
ROOT
ATOM      1  C   UNL     1      -5.363  -8.548  -0.019  0.00  0.00    -0.046 C 
ENDROOT
BRANCH   1   5
ATOM      2  C   UNL     1      -2.442  -5.429  -0.015  0.00  0.00    +0.121 A 
ATOM      3  C   UNL     1      -3.793  -5.115  -0.014  0.00  0.00    +0.046 A 
ATOM      4  C   UNL     1      -4.736  -6.125  -0.015  0.00  0.00    +0.005 A 
ATOM      5  C   UNL     1      -4.333  -7.448  -0.018  0.00  0.00    -0.064 A 
ATOM      6  C   UNL     1      -2.986  -7.763  -0.019  0.00  0.00    +0.005 A 
ATOM      7  C   UNL     1      -2.040  -6.757  -0.024  0.00  0.00    +0.046 A 
BRANCH   2   8
ATOM      8  O   UNL     1      -1.513  -4.437  -0.015  0.00  0.00    -0.486 OA
BRANCH   8   9
ATOM      9  C   UNL     1      -1.999  -3.093  -0.006  0.00  0.00    +0.285 C 
BRANCH   9  13
ATOM     10  C   UNL     1      -0.018   1.503   0.010  0.00  0.00    +0.073 C 
ATOM     11  C   UNL     1       0.002  -0.004   0.002  0.00  0.00    +0.076 A 
ATOM     12  N   UNL     1      -1.013  -0.832   0.002  0.00  0.00    -0.246 NA
ATOM     13  C   UNL     1      -0.834  -2.137  -0.006  0.00  0.00    +0.086 A 
ATOM     14  C   UNL     1       0.449  -2.582  -0.014  0.00  0.00    +0.073 A 
ATOM     15  S   UNL     1       1.335  -1.032  -0.017  0.00  0.00    -0.080 S 
ENDBRANCH   9  13
ENDBRANCH   8   9
ENDBRANCH   2   8
ENDBRANCH   1   5
BRANCH   1  16
ATOM     16  N   UNL     1      -5.699  -8.903  -1.404  0.00  0.00    +0.384 N 
ATOM     17  H   UNL     1      -6.071  -8.094  -1.878  0.00  0.00    -0.085 HD
ATOM     18  H   UNL     1      -4.868  -9.220  -1.881  0.00  0.00    -0.085 HD
BRANCH  16  19
ATOM     19  C   UNL     1      -6.703  -9.975  -1.405  0.00  0.00    -0.057 C 
ATOM     20  C   UNL     1      -6.095 -11.245  -0.802  0.00  0.00    -0.013 C 
ATOM     21  C   UNL     1      -7.128 -12.374  -0.862  0.00  0.00    +0.014 C 
ATOM     22  C   UNL     1      -7.558 -12.589  -2.315  0.00  0.00    +0.085 C 
ATOM     23  N   UNL     1      -8.133 -11.346  -2.845  0.00  0.00    -0.296 NA
ATOM     24  C   UNL     1      -7.145 -10.260  -2.842  0.00  0.00    +0.069 C 
BRANCH  23  25
ATOM     25  C   UNL     1      -8.683 -11.553  -4.192  0.00  0.00    +0.180 C 
BRANCH  25  26
ATOM     26  C   UNL     1      -9.862 -12.489  -4.115  0.00  0.00    +0.225 C 
ATOM     27  O   UNL     1     -10.209 -12.939  -3.043  0.00  0.00    -0.275 OA
ATOM     28  N   UNL     1     -10.530 -12.826  -5.236  0.00  0.00    -0.328 N 
ATOM     29  H   UNL     1     -10.251 -12.466  -6.093  0.00  0.00    +0.145 HD
ATOM     30  H   UNL     1     -11.288 -13.428  -5.186  0.00  0.00    +0.145 HD
ENDBRANCH  25  26
ENDBRANCH  23  25
ENDBRANCH  16  19
ENDBRANCH   1  16
TORSDOF 8
