REMARK  Name = ZINC46863922
REMARK  7 active torsions:
REMARK  status: ('A' for Active; 'I' for Inactive)
REMARK    1  A    between atoms: C_1  and  C_2
REMARK    2  A    between atoms: N_5  and  C_11
REMARK    3  A    between atoms: C_7  and  C_10
REMARK    4  A    between atoms: C_11  and  C_13
REMARK    5  A    between atoms: C_11  and  C_14
REMARK    6  A    between atoms: C_14  and  N_15
REMARK    7  A    between atoms: C_16  and  C_18
REMARK                            x       y       z     vdW  Elec       q    Type
REMARK                         _______ _______ _______ _____ _____    ______ ____
ROOT
ATOM      1  N   UNL     1      -2.003  -4.580   1.183  0.00  0.00    -0.310 N 
ATOM      2  C   UNL     1      -1.731  -5.895   1.306  0.00  0.00    +0.244 C 
ATOM      3  O   UNL     1      -2.061  -6.669   0.428  0.00  0.00    -0.270 OA
ATOM      4  H   UNL     1      -1.740  -3.963   1.883  0.00  0.00    +0.149 HD
ENDROOT
BRANCH   2   5
ATOM      5  C   UNL     1      -1.034  -6.395   2.508  0.00  0.00    +0.037 A 
ATOM      6  C   UNL     1      -0.659  -5.503   3.522  0.00  0.00    +0.015 A 
ATOM      7  C   UNL     1      -0.013  -5.949   4.637  0.00  0.00    +0.027 A 
ATOM      8  C   UNL     1       0.282  -7.303   4.782  0.00  0.00    +0.047 A 
ATOM      9  C   UNL     1      -0.090  -8.211   3.770  0.00  0.00    +0.004 A 
ATOM     10  C   UNL     1      -0.754  -7.752   2.635  0.00  0.00    +0.023 A 
ATOM     11  C   UNL     1       0.358  -9.527   4.226  0.00  0.00    -0.019 A 
ATOM     12  C   UNL     1       0.942  -9.357   5.423  0.00  0.00    +0.020 A 
ATOM     13  N   UNL     1       0.908  -8.030   5.766  0.00  0.00    -0.358 N 
ATOM     14  H   UNL     1       1.273  -7.658   6.584  0.00  0.00    +0.166 HD
ATOM     15  C   UNL     1       1.533 -10.462   6.266  0.00  0.00    +0.053 C 
ATOM     16  C   UNL     1       2.414 -11.356   5.392  0.00  0.00    +0.006 C 
ATOM     17  C   UNL     1       1.571 -12.475   4.785  0.00  0.00    +0.001 C 
ATOM     18  C   UNL     1       0.154 -11.982   4.500  0.00  0.00    +0.005 C 
ATOM     19  C   UNL     1       0.206 -10.833   3.490  0.00  0.00    +0.037 C 
ENDBRANCH   2   5
BRANCH   1  20
ATOM     20  C   UNL     1      -2.695  -4.084  -0.009  0.00  0.00    +0.123 C 
BRANCH  20  21
ATOM     21  C   UNL     1      -2.766  -2.557   0.041  0.00  0.00    +0.071 C 
ATOM     22  C   UNL     1      -3.378  -2.031  -1.259  0.00  0.00    +0.026 C 
BRANCH  21  26
ATOM     23  C   UNL     1       1.641  -1.884  -2.046  0.00  0.00    +0.039 C 
ATOM     24  C   UNL     1       0.815  -1.713  -0.769  0.00  0.00    +0.130 C 
ATOM     25  C   UNL     1      -0.602  -2.246  -1.001  0.00  0.00    +0.116 C 
ATOM     26  N   UNL     1      -1.412  -2.009   0.202  0.00  0.00    -0.293 NA
ATOM     27  C   UNL     1      -1.459  -0.575   0.525  0.00  0.00    +0.116 C 
ATOM     28  C   UNL     1      -0.034  -0.060   0.742  0.00  0.00    +0.130 C 
ATOM     29  O   UNL     1       0.748  -0.327  -0.426  0.00  0.00    -0.371 OA
ATOM     30  C   UNL     1       0.588  -0.769   1.946  0.00  0.00    +0.039 C 
ENDBRANCH  21  26
ENDBRANCH  20  21
ENDBRANCH   1  20
TORSDOF 4
