REMARK  Name = ZINC02929375
REMARK  8 active torsions:
REMARK  status: ('A' for Active; 'I' for Inactive)
REMARK    1  A    between atoms: C_1  and  C_2
REMARK    2  A    between atoms: C_3  and  S_11
REMARK    3  A    between atoms: C_4  and  C_7
REMARK    4  A    between atoms: C_8  and  N_52
REMARK    5  A    between atoms: C_9  and  N_52
REMARK    6  A    between atoms: C_10  and  N_52
REMARK    7  A    between atoms: S_11  and  N_14
REMARK    8  A    between atoms: C_19  and  N_54
REMARK                            x       y       z     vdW  Elec       q    Type
REMARK                         _______ _______ _______ _____ _____    ______ ____
ROOT
ATOM      1  S   UNL     1      -1.417   2.450   0.022  0.00  0.00    +0.066 S 
ATOM      2  O   UNL     1      -0.987   3.689  -0.524  0.00  0.00    -0.153 OA
ATOM      3  O   UNL     1      -2.498   1.710  -0.527  0.00  0.00    -0.153 OA
ENDROOT
BRANCH   1   4
ATOM      4  N   UNL     1      -1.798   2.739   1.608  0.00  0.00    -0.180 NA
ATOM      5  C   UNL     1      -2.743   1.870   2.327  0.00  0.00    +0.091 C 
ATOM      6  C   UNL     1      -2.084   1.428   3.643  0.00  0.00    -0.061 C 
ATOM      7  C   UNL     1      -0.613   3.355   3.647  0.00  0.00    -0.061 C 
ATOM      8  C   UNL     1      -1.206   3.873   2.332  0.00  0.00    +0.091 C 
ATOM      9  N   UNL     1      -1.667   2.633   4.392  0.00  0.00    +0.383 N 
ATOM     10  H   UNL     1      -2.478   3.253   4.505  0.00  0.00    -0.081 HD
BRANCH   9  11
ATOM     11  C   UNL     1      -1.167   2.249   5.728  0.00  0.00    -0.068 C 
ATOM     12  C   UNL     1       0.046   1.302   5.618  0.00  0.00    -0.015 C 
ATOM     13  C   UNL     1      -0.143   0.305   6.789  0.00  0.00    -0.002 C 
ATOM     14  C   UNL     1      -1.676   0.086   6.806  0.00  0.00    -0.002 C 
ATOM     15  C   UNL     1      -2.261   1.476   6.484  0.00  0.00    -0.015 C 
ENDBRANCH   9  11
ENDBRANCH   1   4
BRANCH   1  18
ATOM     16  C   UNL     1       1.913   3.129   0.001  0.00  0.00    +0.071 C 
ATOM     17  C   UNL     1       1.345   1.733  -0.002  0.00  0.00    +0.107 A 
ATOM     18  C   UNL     1      -0.017   1.381   0.010  0.00  0.00    +0.174 A 
ATOM     19  C   UNL     1       0.002  -0.004   0.002  0.00  0.00    +0.188 A 
ATOM     20  O   UNL     1       1.302  -0.354  -0.012  0.00  0.00    -0.353 OA
ATOM     21  N   UNL     1       2.021   0.618  -0.014  0.00  0.00    -0.081 NA
BRANCH  19  22
ATOM     22  C   UNL     1      -1.155  -0.903   0.008  0.00  0.00    +0.064 C 
ATOM     23  C   UNL     1      -0.971  -2.234  -0.001  0.00  0.00    +0.056 C 
BRANCH  23  26
ATOM     24  C   UNL     1      -3.416  -2.527   0.021  0.00  0.00    +0.106 C 
ATOM     25  C   UNL     1      -1.859  -4.530  -0.004  0.00  0.00    +0.106 C 
ATOM     26  N   UNL     1      -2.051  -3.078   0.364  0.00  0.00    -0.404 NA
ATOM     27  H   UNL     1      -2.026  -3.071   1.390  0.00  0.00    +0.125 HD
ENDBRANCH  23  26
ENDBRANCH  19  22
ENDBRANCH   1  18
TORSDOF 5
