REMARK  Name = ZINC17885941
REMARK  6 active torsions:
REMARK  status: ('A' for Active; 'I' for Inactive)
REMARK    1  A    between atoms: C_1  and  O_2
REMARK    2  A    between atoms: O_2  and  C_3
REMARK    3  A    between atoms: C_7  and  C_10
REMARK    4  A    between atoms: C_8  and  O_9
REMARK    5  A    between atoms: N_18  and  C_21
REMARK    6  A    between atoms: N_29  and  C_30
REMARK                            x       y       z     vdW  Elec       q    Type
REMARK                         _______ _______ _______ _____ _____    ______ ____
ROOT
ATOM      1  C   UNL     1       1.071  -4.086   2.023  0.00  0.00    +0.161 C 
ATOM      2  C   UNL     1      -0.069  -4.716   2.859  0.00  0.00    +0.146 C 
ATOM      3  C   UNL     1       0.588  -4.942   4.248  0.00  0.00    +0.249 C 
ATOM      4  C   UNL     1       0.642  -6.448   4.369  0.00  0.00    +0.259 C 
ATOM      5  O   UNL     1       1.095  -7.060   5.312  0.00  0.00    -0.272 OA
ATOM      6  N   UNL     1       0.111  -7.000   3.272  0.00  0.00    -0.208 N 
ATOM      7  C   UNL     1      -0.336  -6.113   2.348  0.00  0.00    +0.235 C 
ATOM      8  O   UNL     1      -0.860  -6.383   1.288  0.00  0.00    -0.274 OA
ATOM      9  O   UNL     1       1.919  -4.409   4.141  0.00  0.00    -0.257 OA
ATOM     10  N   UNL     1       2.291  -4.507   2.754  0.00  0.00    -0.244 N 
ENDROOT
BRANCH   6  11
ATOM     11  C   UNL     1       0.015  -8.388   3.091  0.00  0.00    +0.044 A 
ATOM     12  C   UNL     1       0.771  -9.015   2.110  0.00  0.00    +0.025 A 
ATOM     13  C   UNL     1       0.676 -10.381   1.934  0.00  0.00    +0.017 A 
ATOM     14  C   UNL     1      -0.172 -11.125   2.735  0.00  0.00    +0.018 A 
ATOM     15  C   UNL     1      -0.927 -10.503   3.714  0.00  0.00    +0.017 A 
ATOM     16  C   UNL     1      -0.831  -9.137   3.897  0.00  0.00    +0.025 A 
ATOM     17 BR   UNL     1      -0.301 -12.996   2.491  0.00  0.00    -0.050 Br
ENDBRANCH   6  11
BRANCH   1  22
ATOM     18  C   UNL     1      -0.017  -0.581   1.094  0.00  0.00    +0.162 A 
ATOM     19  C   UNL     1       0.738   0.179   1.973  0.00  0.00    +0.049 A 
ATOM     20  C   UNL     1       1.595  -0.441   2.863  0.00  0.00    +0.004 A 
ATOM     21  C   UNL     1       1.702  -1.820   2.878  0.00  0.00    +0.009 A 
ATOM     22  C   UNL     1       0.952  -2.584   2.004  0.00  0.00    +0.023 A 
ATOM     23  C   UNL     1       0.087  -1.969   1.113  0.00  0.00    +0.164 A 
BRANCH  18  25
ATOM     24  C   UNL     1      -0.914   1.454   0.255  0.00  0.00    +0.277 C 
ATOM     25  O   UNL     1      -0.860   0.027   0.218  0.00  0.00    -0.491 OA
ENDBRANCH  18  25
BRANCH  23  26
ATOM     26  O   UNL     1      -0.656  -2.720   0.257  0.00  0.00    -0.503 OA
ATOM     27  H   UNL     1      -0.222  -2.897  -0.589  0.00  0.00    +0.292 HD
ENDBRANCH  23  26
ENDBRANCH   1  22
BRANCH  10  28
ATOM     28  C   UNL     1       3.518  -4.900   2.214  0.00  0.00    +0.065 A 
ATOM     29  C   UNL     1       3.698  -4.920   0.837  0.00  0.00    +0.028 A 
ATOM     30  C   UNL     1       4.912  -5.309   0.306  0.00  0.00    +0.002 A 
ATOM     31  C   UNL     1       5.949  -5.678   1.144  0.00  0.00    +0.000 A 
ATOM     32  C   UNL     1       5.773  -5.658   2.516  0.00  0.00    +0.002 A 
ATOM     33  C   UNL     1       4.563  -5.265   3.053  0.00  0.00    +0.028 A 
ENDBRANCH  10  28
TORSDOF 5
