REMARK  Name = ZINC01035295
REMARK  5 active torsions:
REMARK  status: ('A' for Active; 'I' for Inactive)
REMARK    1  A    between atoms: C_1  and  N_2
REMARK    2  A    between atoms: N_7  and  C_8
REMARK    3  A    between atoms: N_13  and  C_27
REMARK    4  A    between atoms: N_16  and  C_19
REMARK    5  A    between atoms: C_19  and  C_20
REMARK                            x       y       z     vdW  Elec       q    Type
REMARK                         _______ _______ _______ _____ _____    ______ ____
ROOT
ATOM      1  C   UNL     1      -0.720   6.406   0.041  0.00  0.00    +0.152 C 
ATOM      2  N   UNL     1       0.238   5.297   0.026  0.00  0.00    -0.309 N 
ATOM      3  C   UNL     1      -0.064   3.942   0.022  0.00  0.00    +0.153 A 
ATOM      4  C   UNL     1       1.154   3.270   0.008  0.00  0.00    +0.170 A 
ATOM      5  N   UNL     1       2.121   4.189   0.003  0.00  0.00    -0.196 NA
ATOM      6  C   UNL     1       1.593   5.397   0.014  0.00  0.00    +0.198 A 
ATOM      7  N   UNL     1       2.304   6.575   0.013  0.00  0.00    -0.312 N 
ATOM      8  N   UNL     1       1.152   1.884   0.001  0.00  0.00    -0.279 N 
ATOM      9  C   UNL     1      -0.014   1.212   0.009  0.00  0.00    +0.334 A 
ATOM     10  O   UNL     1       0.002  -0.004   0.002  0.00  0.00    -0.246 OA
ATOM     11  N   UNL     1      -1.197   1.851   0.018  0.00  0.00    -0.255 N 
ATOM     12  C   UNL     1      -1.257   3.199   0.030  0.00  0.00    +0.283 A 
ATOM     13  O   UNL     1      -2.336   3.767   0.043  0.00  0.00    -0.265 OA
ATOM     14  C   UNL     1       2.420   1.151  -0.014  0.00  0.00    +0.155 C 
ATOM     15  H   UNL     1       1.835   7.424   0.022  0.00  0.00    +0.149 HD
ENDROOT
BRANCH   7  16
ATOM     16  C   UNL     1       3.769   6.547  -0.001  0.00  0.00    +0.073 C 
ATOM     17  C   UNL     1       4.310   6.456   1.441  0.00  0.00    +0.022 C 
ATOM     18  C   UNL     1       5.582   7.340   1.425  0.00  0.00    +0.002 C 
ATOM     19  C   UNL     1       5.170   8.518   0.507  0.00  0.00    +0.002 C 
ATOM     20  C   UNL     1       4.315   7.857  -0.595  0.00  0.00    +0.022 C 
ENDBRANCH   7  16
BRANCH  11  21
ATOM     21  C   UNL     1      -2.438   1.073   0.020  0.00  0.00    +0.165 C 
BRANCH  21  22
ATOM     22  C   UNL     1      -2.856   0.799   1.442  0.00  0.00    -0.027 A 
ATOM     23  C   UNL     1      -2.417  -0.344   2.083  0.00  0.00    +0.008 A 
ATOM     24  C   UNL     1      -2.796  -0.594   3.388  0.00  0.00    +0.038 A 
ATOM     25  C   UNL     1      -3.625   0.296   4.050  0.00  0.00    +0.123 A 
ATOM     26  C   UNL     1      -4.069   1.438   3.405  0.00  0.00    +0.038 A 
ATOM     27  C   UNL     1      -3.684   1.688   2.102  0.00  0.00    +0.008 A 
ATOM     28  F   UNL     1      -4.000   0.050   5.324  0.00  0.00    -0.205 F 
ENDBRANCH  21  22
ENDBRANCH  11  21
TORSDOF 3
