REMARK  Name = ZINC13495923
REMARK  12 active torsions:
REMARK  status: ('A' for Active; 'I' for Inactive)
REMARK    1  A    between atoms: C_1  and  C_2
REMARK    2  A    between atoms: C_2  and  C_3
REMARK    3  A    between atoms: C_3  and  C_5
REMARK    4  A    between atoms: C_3  and  N_72
REMARK    5  A    between atoms: N_9  and  C_10
REMARK    6  A    between atoms: C_15  and  C_16
REMARK    7  A    between atoms: C_15  and  N_72
REMARK    8  A    between atoms: C_16  and  C_17
REMARK    9  A    between atoms: C_21  and  C_23
REMARK   10  A    between atoms: C_24  and  C_25
REMARK   11  A    between atoms: C_24  and  N_72
REMARK   12  A    between atoms: C_31  and  C_37
REMARK                            x       y       z     vdW  Elec       q    Type
REMARK                         _______ _______ _______ _____ _____    ______ ____
ROOT
ATOM      1  N   UNL     1      -1.842   2.408  -1.671  0.00  0.00    +0.389 N 
ATOM      2  H   UNL     1      -1.238   2.819  -2.393  0.00  0.00    -0.080 HD
ENDROOT
BRANCH   1   3
ATOM      3  C   UNL     1      -3.114   3.159  -1.625  0.00  0.00    +0.003 C 
BRANCH   3   4
ATOM      4  C   UNL     1      -2.829   4.607  -1.927  0.00  0.00    +0.138 A 
ATOM      5  N   UNL     1      -1.825   5.318  -1.474  0.00  0.00    -0.115 NA
ATOM      6  N   UNL     1      -1.929   6.508  -1.958  0.00  0.00    -0.023 NA
ATOM      7  N   UNL     1      -2.973   6.574  -2.708  0.00  0.00    -0.044 NA
ATOM      8  N   UNL     1      -3.552   5.421  -2.718  0.00  0.00    -0.228 N 
BRANCH   8   9
ATOM      9  C   UNL     1      -4.769   5.065  -3.451  0.00  0.00    +0.111 C 
ATOM     10  C   UNL     1      -4.571   5.318  -4.960  0.00  0.00    +0.027 C 
ATOM     11  C   UNL     1      -5.946   5.846  -5.440  0.00  0.00    +0.002 C 
ATOM     12  C   UNL     1      -6.405   6.732  -4.256  0.00  0.00    +0.002 C 
ATOM     13  C   UNL     1      -5.936   5.964  -3.004  0.00  0.00    +0.027 C 
ENDBRANCH   8   9
ENDBRANCH   3   4
BRANCH   3  15
ATOM     14  C   UNL     1      -4.172   1.593   0.009  0.00  0.00    +0.002 C 
ATOM     15  C   UNL     1      -3.752   3.043  -0.239  0.00  0.00    -0.011 C 
ENDBRANCH   3  15
ENDBRANCH   1   3
BRANCH   1  16
ATOM     16  C   UNL     1      -2.102   0.994  -2.012  0.00  0.00    -0.073 C 
BRANCH  16  17
ATOM     17  C   UNL     1      -2.604   0.918  -3.456  0.00  0.00    +0.016 C 
BRANCH  17  18
ATOM     18  C   UNL     1      -2.738  -0.526  -3.866  0.00  0.00    -0.049 A 
ATOM     19  C   UNL     1      -1.670  -1.179  -4.453  0.00  0.00    +0.003 A 
ATOM     20  C   UNL     1      -1.791  -2.505  -4.826  0.00  0.00    +0.001 A 
ATOM     21  C   UNL     1      -2.983  -3.174  -4.620  0.00  0.00    +0.003 A 
ATOM     22  C   UNL     1      -4.052  -2.520  -4.038  0.00  0.00    -0.050 A 
ATOM     23  C   UNL     1      -3.929  -1.195  -3.661  0.00  0.00    +0.007 A 
ATOM     24  C   UNL     1      -5.351  -3.249  -3.814  0.00  0.00    +0.044 C 
ENDBRANCH  17  18
ENDBRANCH  16  17
ENDBRANCH   1  16
BRANCH   1  25
ATOM     25  C   UNL     1      -1.156   2.495  -0.365  0.00  0.00    -0.037 C 
BRANCH  25  26
ATOM     26  C   UNL     1       0.266   2.023  -0.532  0.00  0.00    +0.001 A 
ATOM     27  C   UNL     1       1.251   2.921  -0.778  0.00  0.00    +0.017 A 
ATOM     28  C   UNL     1       2.621   2.430  -0.941  0.00  0.00    -0.001 A 
ATOM     29  C   UNL     1       3.679   3.309  -1.196  0.00  0.00    +0.010 A 
ATOM     30  C   UNL     1       4.946   2.819  -1.343  0.00  0.00    +0.001 A 
ATOM     31  C   UNL     1       5.192   1.456  -1.242  0.00  0.00    +0.005 A 
ATOM     32  C   UNL     1       4.165   0.572  -0.992  0.00  0.00    -0.026 A 
ATOM     33  C   UNL     1       2.866   1.048  -0.838  0.00  0.00    +0.052 A 
ATOM     34  N   UNL     1       1.820   0.186  -0.587  0.00  0.00    -0.322 N 
ATOM     35  H   UNL     1       1.991  -0.766  -0.517  0.00  0.00    +0.169 HD
ATOM     36  C   UNL     1       0.566   0.647  -0.438  0.00  0.00    +0.251 A 
ATOM     37  O   UNL     1      -0.335  -0.144  -0.217  0.00  0.00    -0.268 OA
ATOM     38  C   UNL     1       4.446  -0.905  -0.886  0.00  0.00    +0.046 C 
ENDBRANCH  25  26
ENDBRANCH   1  25
TORSDOF 9
