REMARK  Name = ZINC43408050
REMARK  4 active torsions:
REMARK  status: ('A' for Active; 'I' for Inactive)
REMARK    1  A    between atoms: C_5  and  S_9
REMARK    2  A    between atoms: C_6  and  C_7
REMARK    3  A    between atoms: S_9  and  C_10
REMARK    4  A    between atoms: C_14  and  N_16
REMARK                            x       y       z     vdW  Elec       q    Type
REMARK                         _______ _______ _______ _____ _____    ______ ____
ROOT
ATOM      1  S   UNL     1       1.307  -2.421  -0.023  0.00  0.00    -0.029 S 
ENDROOT
BRANCH   1   6
ATOM      2  C   UNL     1      -0.017   1.394   0.010  0.00  0.00    +0.027 A 
ATOM      3  C   UNL     1       1.191   2.073   0.002  0.00  0.00    -0.025 A 
ATOM      4  C   UNL     1       2.377   1.361  -0.013  0.00  0.00    +0.046 A 
ATOM      5  N   UNL     1       2.369   0.037  -0.020  0.00  0.00    -0.243 NA
ATOM      6  C   UNL     1       1.246  -0.660  -0.013  0.00  0.00    +0.122 A 
ATOM      7  C   UNL     1       0.002  -0.004   0.002  0.00  0.00    +0.084 A 
ATOM      8  C   UNL     1       3.546   2.325  -0.019  0.00  0.00    +0.056 C 
ATOM      9  C   UNL     1       2.951   3.682  -0.448  0.00  0.00    +0.011 C 
ATOM     10  C   UNL     1       1.481   3.558   0.006  0.00  0.00    +0.037 C 
BRANCH   7  11
ATOM     11  C   UNL     1      -1.219  -0.752   0.010  0.00  0.00    +0.102 C 
ATOM     12  N   UNL     1      -2.188  -1.345   0.016  0.00  0.00    -0.191 NA
ENDBRANCH   7  11
ENDBRANCH   1   6
BRANCH   1  13
ATOM     13  C   UNL     1       3.031  -2.787  -0.043  0.00  0.00    +0.198 A 
ATOM     14  N   UNL     1       3.902  -1.789  -0.040  0.00  0.00    -0.207 NA
ATOM     15  C   UNL     1       5.212  -2.027  -0.054  0.00  0.00    +0.122 A 
ATOM     16  C   UNL     1       5.660  -3.345  -0.071  0.00  0.00    +0.086 A 
ATOM     17  C   UNL     1       4.715  -4.366  -0.073  0.00  0.00    +0.122 A 
ATOM     18  N   UNL     1       3.421  -4.052  -0.053  0.00  0.00    -0.207 NA
ATOM     19  N   UNL     1       6.117  -0.977  -0.051  0.00  0.00    -0.343 N 
ATOM     20  H   UNL     1       5.797  -0.061  -0.040  0.00  0.00    +0.144 HD
ATOM     21  H   UNL     1       7.069  -1.158  -0.061  0.00  0.00    +0.144 HD
BRANCH  17  22
ATOM     22  N   UNL     1       5.115  -5.694  -0.090  0.00  0.00    -0.343 N 
ATOM     23  H   UNL     1       6.059  -5.915  -0.100  0.00  0.00    +0.144 HD
ATOM     24  H   UNL     1       4.451  -6.400  -0.091  0.00  0.00    +0.144 HD
ENDBRANCH  17  22
ENDBRANCH   1  13
TORSDOF 4
