REMARK  Name = ZINC20758448
REMARK  7 active torsions:
REMARK  status: ('A' for Active; 'I' for Inactive)
REMARK    1  A    between atoms: C_1  and  C_2
REMARK    2  A    between atoms: C_16  and  C_19
REMARK    3  A    between atoms: C_19  and  C_20
REMARK    4  A    between atoms: C_20  and  C_21
REMARK    5  A    between atoms: N_26  and  C_29
REMARK    6  A    between atoms: C_29  and  C_31
REMARK    7  A    between atoms: C_29  and  C_32
REMARK                            x       y       z     vdW  Elec       q    Type
REMARK                         _______ _______ _______ _____ _____    ______ ____
ROOT
ATOM      1  C   UNL     1      -0.748   1.346   0.252  0.00  0.00    +0.047 C 
ATOM      2  C   UNL     1      -0.598  -0.153   0.210  0.00  0.00    -0.011 A 
ATOM      3  C   UNL     1      -0.584  -0.810  -1.004  0.00  0.00    +0.046 A 
ATOM      4  C   UNL     1      -0.448  -2.186  -1.052  0.00  0.00    +0.021 A 
ATOM      5  C   UNL     1      -0.325  -2.907   0.122  0.00  0.00    +0.009 A 
ATOM      6  C   UNL     1      -0.339  -2.256   1.335  0.00  0.00    +0.004 A 
ATOM      7  C   UNL     1      -0.469  -0.871   1.396  0.00  0.00    +0.043 A 
ATOM      8  N   UNL     1      -0.447  -0.442   2.725  0.00  0.00    -0.283 N 
ATOM      9  C   UNL     1      -0.303  -1.467   3.587  0.00  0.00    +0.243 C 
ATOM     10  O   UNL     1      -0.252  -1.393   4.796  0.00  0.00    -0.273 OA
ATOM     11  C   UNL     1      -0.232  -2.721   2.760  0.00  0.00    +0.136 C 
ATOM     12  C   UNL     1       1.082  -3.469   3.014  0.00  0.00    +0.122 C 
ATOM     13  C   UNL     1       0.709  -4.577   4.038  0.00  0.00    +0.107 C 
ATOM     14  C   UNL     1      -0.794  -4.369   4.317  0.00  0.00    +0.068 C 
ATOM     15  N   UNL     1      -1.309  -3.669   3.102  0.00  0.00    -0.295 NA
ATOM     16  C   UNL     1       0.915  -5.857   3.261  0.00  0.00    +0.228 C 
ATOM     17  O   UNL     1       0.728  -6.975   3.689  0.00  0.00    -0.275 OA
ATOM     18  N   UNL     1       1.337  -5.563   2.025  0.00  0.00    -0.234 N 
ATOM     19  C   UNL     1       1.475  -4.241   1.774  0.00  0.00    +0.229 C 
ATOM     20  O   UNL     1       1.849  -3.747   0.731  0.00  0.00    -0.275 OA
ATOM     21 CL   UNL     1      -0.740   0.095  -2.478  0.00  0.00    -0.083 Cl
ATOM     22  H   UNL     1      -0.527   0.487   2.995  0.00  0.00    +0.155 HD
ATOM     23  H   UNL     1      -2.168  -3.182   3.308  0.00  0.00    +0.123 HD
ENDROOT
BRANCH  18  24
ATOM     24  C   UNL     1       1.631  -6.590   1.023  0.00  0.00    +0.111 C 
ATOM     25  C   UNL     1       0.367  -7.405   0.741  0.00  0.00    +0.033 C 
BRANCH  24  26
ATOM     26  C   UNL     1       2.711  -7.503   1.543  0.00  0.00    -0.027 A 
ATOM     27  C   UNL     1       2.715  -8.840   1.191  0.00  0.00    +0.005 A 
ATOM     28  C   UNL     1       3.706  -9.678   1.667  0.00  0.00    +0.000 A 
ATOM     29  C   UNL     1       4.694  -9.179   2.495  0.00  0.00    +0.000 A 
ATOM     30  C   UNL     1       4.691  -7.842   2.846  0.00  0.00    +0.000 A 
ATOM     31  C   UNL     1       3.702  -7.003   2.366  0.00  0.00    +0.005 A 
ENDBRANCH  24  26
ENDBRANCH  18  24
BRANCH  14  32
ATOM     32  C   UNL     1      -1.498  -5.719   4.475  0.00  0.00    +0.028 C 
BRANCH  32  33
ATOM     33  C   UNL     1      -2.957  -5.490   4.872  0.00  0.00    +0.097 C 
BRANCH  33  34
ATOM     34  C   UNL     1      -3.650  -6.819   5.028  0.00  0.00    +0.211 C 
ATOM     35  O   UNL     1      -3.036  -7.848   4.840  0.00  0.00    -0.276 OA
ATOM     36  N   UNL     1      -4.951  -6.864   5.377  0.00  0.00    -0.329 N 
ATOM     37  H   UNL     1      -5.441  -6.041   5.528  0.00  0.00    +0.145 HD
ATOM     38  H   UNL     1      -5.397  -7.720   5.477  0.00  0.00    +0.145 HD
ENDBRANCH  33  34
ENDBRANCH  32  33
ENDBRANCH  14  32
TORSDOF 5
