REMARK  Name = ZINC14754865
REMARK  13 active torsions:
REMARK  status: ('A' for Active; 'I' for Inactive)
REMARK    1  A    between atoms: C_1  and  C_2
REMARK    2  A    between atoms: C_2  and  C_3
REMARK    3  A    between atoms: C_2  and  C_4
REMARK    4  A    between atoms: C_4  and  C_5
REMARK    5  A    between atoms: C_5  and  N_6
REMARK    6  A    between atoms: N_9  and  C_29
REMARK    7  A    between atoms: C_17  and  C_18
REMARK    8  A    between atoms: C_17  and  N_75
REMARK    9  A    between atoms: C_19  and  C_20
REMARK   10  A    between atoms: C_23  and  N_26
REMARK   11  A    between atoms: N_26  and  C_27
REMARK   12  A    between atoms: N_26  and  C_28
REMARK   13  A    between atoms: C_29  and  C_30
REMARK                            x       y       z     vdW  Elec       q    Type
REMARK                         _______ _______ _______ _____ _____    ______ ____
ROOT
ATOM      1  N   UNL     1       2.184   0.563   0.025  0.00  0.00    -0.271 N 
ATOM      2  C   UNL     1       1.252  -0.410   0.003  0.00  0.00    +0.312 C 
ATOM      3  O   UNL     1       1.514  -1.596  -0.040  0.00  0.00    -0.252 OA
ATOM      4  N   UNL     1       0.005   0.076   0.033  0.00  0.00    -0.220 N 
ATOM      5  C   UNL     1      -0.001   1.425   0.079  0.00  0.00    +0.247 C 
ATOM      6  O   UNL     1      -0.969   2.154   0.111  0.00  0.00    -0.273 OA
ATOM      7  C   UNL     1       1.453   1.835   0.076  0.00  0.00    +0.112 C 
ATOM      8  C   UNL     1       1.796   2.598   1.352  0.00  0.00    +0.017 C 
ATOM      9  C   UNL     1       3.266   3.023   1.309  0.00  0.00    -0.076 C 
ATOM     10  C   UNL     1       3.238   3.105  -1.114  0.00  0.00    -0.076 C 
ATOM     11  C   UNL     1       1.767   2.682  -1.153  0.00  0.00    +0.017 C 
ATOM     12  N   UNL     1       3.481   3.879   0.123  0.00  0.00    +0.382 N 
ATOM     13  H   UNL     1       2.824   4.667   0.157  0.00  0.00    -0.081 HD
ENDROOT
BRANCH   1  14
ATOM     14  C   UNL     1       3.638   0.386   0.003  0.00  0.00    +0.110 C 
BRANCH  14  15
ATOM     15  C   UNL     1       4.090  -0.287   1.300  0.00  0.00    +0.022 C 
BRANCH  15  17
ATOM     16  C   UNL     1       6.074  -0.915   2.683  0.00  0.00    +0.007 C 
ATOM     17  C   UNL     1       5.618  -0.356   1.333  0.00  0.00    -0.016 C 
ATOM     18  C   UNL     1       6.112  -1.270   0.210  0.00  0.00    +0.007 C 
ENDBRANCH  15  17
ENDBRANCH  14  15
ENDBRANCH   1  14
BRANCH  12  19
ATOM     19  C   UNL     1       4.861   4.406   0.125  0.00  0.00    -0.051 C 
BRANCH  19  20
ATOM     20  C   UNL     1       5.179   4.952   1.493  0.00  0.00    -0.045 C 
ATOM     21  C   UNL     1       6.257   4.530   2.141  0.00  0.00    +0.002 C 
BRANCH  21  22
ATOM     22  C   UNL     1       6.568   5.066   3.482  0.00  0.00    -0.025 A 
ATOM     23  C   UNL     1       5.732   6.019   4.067  0.00  0.00    +0.010 A 
ATOM     24  C   UNL     1       6.023   6.513   5.320  0.00  0.00    +0.023 A 
ATOM     25  C   UNL     1       7.153   6.070   5.998  0.00  0.00    +0.029 A 
ATOM     26  C   UNL     1       7.991   5.124   5.417  0.00  0.00    +0.023 A 
ATOM     27  C   UNL     1       7.702   4.623   4.166  0.00  0.00    +0.010 A 
BRANCH  25  28
ATOM     28  N   UNL     1       7.448   6.576   7.265  0.00  0.00    -0.336 N 
ATOM     29  C   UNL     1       8.695   6.196   7.933  0.00  0.00    +0.129 C 
ATOM     30  C   UNL     1       6.510   7.487   7.926  0.00  0.00    +0.129 C 
ENDBRANCH  25  28
ENDBRANCH  21  22
ENDBRANCH  19  20
ENDBRANCH  12  19
BRANCH   4  31
ATOM     31  C   UNL     1      -1.202  -0.753   0.018  0.00  0.00    +0.154 C 
BRANCH  31  32
ATOM     32  C   UNL     1      -1.632  -0.989  -1.407  0.00  0.00    -0.011 A 
ATOM     33  C   UNL     1      -1.155  -2.084  -2.112  0.00  0.00    +0.008 A 
ATOM     34  C   UNL     1      -1.577  -2.261  -3.420  0.00  0.00    +0.020 A 
ATOM     35  C   UNL     1      -2.453  -1.347  -3.975  0.00  0.00    +0.111 A 
ATOM     36  N   UNL     1      -2.885  -0.317  -3.275  0.00  0.00    -0.263 NA
ATOM     37  C   UNL     1      -2.510  -0.120  -2.026  0.00  0.00    +0.116 A 
ENDBRANCH  31  32
ENDBRANCH   4  31
TORSDOF 9
