REMARK  Name = ZINC13063974
REMARK  11 active torsions:
REMARK  status: ('A' for Active; 'I' for Inactive)
REMARK    1  A    between atoms: C_1  and  C_2
REMARK    2  A    between atoms: C_2  and  C_3
REMARK    3  A    between atoms: C_3  and  C_5
REMARK    4  A    between atoms: C_3  and  N_69
REMARK    5  A    between atoms: N_9  and  C_10
REMARK    6  A    between atoms: C_10  and  C_11
REMARK    7  A    between atoms: C_11  and  C_12
REMARK    8  A    between atoms: C_18  and  C_19
REMARK    9  A    between atoms: C_18  and  N_69
REMARK   10  A    between atoms: C_24  and  C_31
REMARK   11  A    between atoms: C_32  and  N_69
REMARK                            x       y       z     vdW  Elec       q    Type
REMARK                         _______ _______ _______ _____ _____    ______ ____
ROOT
ATOM      1  N   UNL     1      -0.899   1.415   1.134  0.00  0.00    +0.391 N 
ATOM      2  H   UNL     1      -0.902   2.408   1.394  0.00  0.00    -0.080 HD
ENDROOT
BRANCH   1   3
ATOM      3  C   UNL     1      -0.106   1.244  -0.102  0.00  0.00    -0.067 C 
ATOM      4  C   UNL     1      -0.635   2.194  -1.205  0.00  0.00    -0.015 C 
ATOM      5  C   UNL     1       0.598   2.367  -2.126  0.00  0.00    -0.002 C 
ATOM      6  C   UNL     1       1.793   2.424  -1.152  0.00  0.00    -0.002 C 
ATOM      7  C   UNL     1       1.345   1.710   0.135  0.00  0.00    -0.015 C 
ENDBRANCH   1   3
BRANCH   1   8
ATOM      8  C   UNL     1      -2.291   0.973   0.906  0.00  0.00    +0.003 C 
BRANCH   8   9
ATOM      9  C   UNL     1      -2.317  -0.259   0.039  0.00  0.00    +0.138 A 
ATOM     10  N   UNL     1      -1.773  -0.394  -1.146  0.00  0.00    -0.115 NA
ATOM     11  N   UNL     1      -2.013  -1.590  -1.560  0.00  0.00    -0.023 NA
ATOM     12  N   UNL     1      -2.696  -2.222  -0.670  0.00  0.00    -0.044 NA
ATOM     13  N   UNL     1      -2.900  -1.436   0.333  0.00  0.00    -0.231 N 
BRANCH  13  14
ATOM     14  C   UNL     1      -3.630  -1.763   1.560  0.00  0.00    +0.152 C 
BRANCH  14  15
ATOM     15  C   UNL     1      -5.111  -1.423   1.378  0.00  0.00    +0.058 C 
BRANCH  15  16
ATOM     16  C   UNL     1      -5.862  -1.759   2.641  0.00  0.00    -0.046 A 
ATOM     17  C   UNL     1      -6.415  -3.016   2.802  0.00  0.00    +0.004 A 
ATOM     18  C   UNL     1      -7.099  -3.326   3.962  0.00  0.00    +0.000 A 
ATOM     19  C   UNL     1      -7.241  -2.376   4.956  0.00  0.00    +0.000 A 
ATOM     20  C   UNL     1      -6.693  -1.117   4.792  0.00  0.00    +0.000 A 
ATOM     21  C   UNL     1      -6.004  -0.809   3.635  0.00  0.00    +0.004 A 
ENDBRANCH  15  16
ENDBRANCH  14  15
ENDBRANCH  13  14
ENDBRANCH   8   9
BRANCH   8  23
ATOM     22  C   UNL     1      -3.061   3.341   1.109  0.00  0.00    +0.002 C 
ATOM     23  C   UNL     1      -3.054   2.102   0.211  0.00  0.00    -0.011 C 
ENDBRANCH   8  23
ENDBRANCH   1   8
BRANCH   1  24
ATOM     24  C   UNL     1      -0.295   0.633   2.234  0.00  0.00    -0.036 C 
BRANCH  24  25
ATOM     25  C   UNL     1      -0.838   1.143   3.544  0.00  0.00    +0.001 A 
ATOM     26  C   UNL     1      -1.847   0.480   4.160  0.00  0.00    +0.017 A 
ATOM     27  C   UNL     1      -2.348   0.997   5.435  0.00  0.00    -0.001 A 
ATOM     28  C   UNL     1      -3.384   0.354   6.120  0.00  0.00    +0.010 A 
ATOM     29  C   UNL     1      -3.833   0.866   7.304  0.00  0.00    +0.004 A 
ATOM     30  C   UNL     1      -3.272   2.020   7.834  0.00  0.00    -0.048 A 
ATOM     31  C   UNL     1      -2.250   2.670   7.176  0.00  0.00    +0.029 A 
ATOM     32  C   UNL     1      -1.776   2.167   5.968  0.00  0.00    +0.049 A 
ATOM     33  N   UNL     1      -0.756   2.798   5.289  0.00  0.00    -0.322 N 
ATOM     34  H   UNL     1      -0.363   3.604   5.658  0.00  0.00    +0.169 HD
ATOM     35  C   UNL     1      -0.299   2.312   4.122  0.00  0.00    +0.251 A 
ATOM     36  O   UNL     1       0.605   2.896   3.548  0.00  0.00    -0.268 OA
ATOM     37  C   UNL     1      -3.783   2.567   9.141  0.00  0.00    +0.044 C 
ENDBRANCH  24  25
ENDBRANCH   1  24
TORSDOF 9
