REMARK  Name = ZINC64744166
REMARK  11 active torsions:
REMARK  status: ('A' for Active; 'I' for Inactive)
REMARK    1  A    between atoms: C_1  and  C_2
REMARK    2  A    between atoms: C_2  and  C_3
REMARK    3  A    between atoms: C_2  and  C_4
REMARK    4  A    between atoms: C_2  and  N_22
REMARK    5  A    between atoms: N_6  and  C_7
REMARK    6  A    between atoms: C_7  and  C_8
REMARK    7  A    between atoms: C_8  and  C_9
REMARK    8  A    between atoms: C_8  and  N_17
REMARK    9  A    between atoms: C_14  and  O_15
REMARK   10  A    between atoms: O_15  and  C_16
REMARK   11  A    between atoms: N_25  and  C_26
REMARK                            x       y       z     vdW  Elec       q    Type
REMARK                         _______ _______ _______ _____ _____    ______ ____
ROOT
ATOM      1  C   UNL     1      -3.530  -1.250  -1.117  0.00  0.00    +0.093 C 
ENDROOT
BRANCH   1   4
ATOM      2  C   UNL     1      -3.122  -2.928   0.602  0.00  0.00    +0.236 C 
ATOM      3  O   UNL     1      -2.793  -2.036   1.354  0.00  0.00    -0.273 OA
ATOM      4  N   UNL     1      -3.508  -2.641  -0.657  0.00  0.00    -0.315 N 
ATOM      5  H   UNL     1      -3.771  -3.355  -1.258  0.00  0.00    +0.149 HD
BRANCH   2   7
ATOM      6  C   UNL     1      -1.772  -5.007   0.677  0.00  0.00    +0.041 C 
ATOM      7  C   UNL     1      -3.100  -4.359   1.076  0.00  0.00    +0.106 C 
ATOM      8  C   UNL     1      -3.248  -4.395   2.598  0.00  0.00    +0.041 C 
BRANCH   7   9
ATOM      9  N   UNL     1      -4.207  -5.095   0.460  0.00  0.00    -0.286 N 
ATOM     10  C   UNL     1      -4.386  -6.401   0.739  0.00  0.00    +0.300 C 
ATOM     11  O   UNL     1      -3.628  -6.969   1.502  0.00  0.00    -0.253 OA
ATOM     12  N   UNL     1      -5.404  -7.078   0.172  0.00  0.00    -0.302 N 
ATOM     13  C   UNL     1      -5.599  -8.498   0.475  0.00  0.00    +0.129 C 
ATOM     14  H   UNL     1      -4.811  -4.641  -0.149  0.00  0.00    +0.151 HD
ATOM     15  H   UNL     1      -6.008  -6.625  -0.436  0.00  0.00    +0.150 HD
ENDBRANCH   7   9
ENDBRANCH   2   7
ENDBRANCH   1   4
BRANCH   1  16
ATOM     16  C   UNL     1      -3.881  -1.211  -2.606  0.00  0.00    -0.017 C 
BRANCH  16  17
ATOM     17  C   UNL     1      -5.288  -1.712  -2.803  0.00  0.00    -0.018 A 
ATOM     18  C   UNL     1      -5.512  -3.039  -3.118  0.00  0.00    +0.005 A 
ATOM     19  C   UNL     1      -6.803  -3.499  -3.299  0.00  0.00    +0.000 A 
ATOM     20  C   UNL     1      -7.873  -2.633  -3.167  0.00  0.00    +0.004 A 
ATOM     21  C   UNL     1      -7.655  -1.306  -2.852  0.00  0.00    +0.046 A 
ATOM     22  C   UNL     1      -6.360  -0.843  -2.664  0.00  0.00    +0.122 A 
BRANCH  22  23
ATOM     23  O   UNL     1      -6.143   0.461  -2.349  0.00  0.00    -0.495 OA
ATOM     24  C   UNL     1      -7.294   1.298  -2.221  0.00  0.00    +0.277 C 
ENDBRANCH  22  23
ENDBRANCH  16  17
BRANCH  16  25
ATOM     25  N   UNL     1      -2.948  -2.066  -3.351  0.00  0.00    +0.385 N 
ATOM     26  C   UNL     1      -3.209  -1.960  -4.809  0.00  0.00    -0.078 C 
ATOM     27  C   UNL     1      -1.871  -2.416  -5.444  0.00  0.00    -0.020 C 
ATOM     28  C   UNL     1      -0.814  -1.824  -4.484  0.00  0.00    -0.020 C 
ATOM     29  C   UNL     1      -1.559  -1.597  -3.155  0.00  0.00    -0.078 C 
ATOM     30  H   UNL     1      -3.037  -3.025  -3.050  0.00  0.00    -0.081 HD
ENDBRANCH  16  25
ENDBRANCH   1  16
TORSDOF 7
