REMARK  Name = ZINC22296875
REMARK  10 active torsions:
REMARK  status: ('A' for Active; 'I' for Inactive)
REMARK    1  A    between atoms: C_1  and  C_2
REMARK    2  A    between atoms: C_2  and  O_3
REMARK    3  A    between atoms: O_3  and  C_4
REMARK    4  A    between atoms: C_9  and  C_10
REMARK    5  A    between atoms: C_12  and  C_15
REMARK    6  A    between atoms: C_15  and  C_16
REMARK    7  A    between atoms: C_21  and  C_24
REMARK    8  A    between atoms: C_24  and  N_25
REMARK    9  A    between atoms: C_27  and  C_34
REMARK   10  A    between atoms: C_30  and  C_33
REMARK                            x       y       z     vdW  Elec       q    Type
REMARK                         _______ _______ _______ _____ _____    ______ ____
ROOT
ATOM      1  C   UNL     1      -4.929   3.096   6.400  0.00  0.00    +0.224 C 
ATOM      2  O   UNL     1      -4.612   1.957   6.131  0.00  0.00    -0.275 OA
ATOM      3  N   UNL     1      -5.646   3.352   7.512  0.00  0.00    -0.264 N 
ATOM      4  C   UNL     1      -6.021   2.310   8.352  0.00  0.00    +0.165 A 
ATOM      5  N   UNL     1      -6.714   2.358   9.473  0.00  0.00    -0.231 NA
ATOM      6  C   UNL     1      -6.986   1.263  10.156  0.00  0.00    +0.034 A 
ATOM      7  C   UNL     1      -6.535   0.077   9.680  0.00  0.00    +0.070 A 
ATOM      8  S   UNL     1      -5.704   0.611   8.191  0.00  0.00    -0.060 S 
ATOM      9  H   UNL     1      -5.933   4.386   7.756  0.00  0.00    +0.157 HD
ENDROOT
BRANCH   1  10
ATOM     10  C   UNL     1      -4.523   4.226   5.489  0.00  0.00    +0.152 C 
BRANCH  10  13
ATOM     11  C   UNL     1      -1.963   2.444   3.538  0.00  0.00    +0.112 A 
ATOM     12  N   UNL     1      -2.675   2.935   4.543  0.00  0.00    -0.243 NA
ATOM     13  C   UNL     1      -3.737   3.676   4.327  0.00  0.00    +0.058 A 
ATOM     14  C   UNL     1      -4.129   3.942   3.053  0.00  0.00    +0.071 A 
ATOM     15  S   UNL     1      -2.872   3.067   2.130  0.00  0.00    -0.075 S 
BRANCH  11  21
ATOM     16  C   UNL     1      -0.149   1.182   2.379  0.00  0.00    +0.130 A 
ATOM     17  C   UNL     1       0.992   0.398   2.422  0.00  0.00    +0.046 A 
ATOM     18  C   UNL     1       1.534   0.029   3.638  0.00  0.00    +0.004 A 
ATOM     19  C   UNL     1       0.941   0.437   4.821  0.00  0.00    +0.001 A 
ATOM     20  C   UNL     1      -0.196   1.218   4.795  0.00  0.00    +0.014 A 
ATOM     21  C   UNL     1      -0.748   1.602   3.572  0.00  0.00    +0.049 A 
BRANCH  16  22
ATOM     22  O   UNL     1      -0.682   1.547   1.184  0.00  0.00    -0.492 OA
BRANCH  22  24
ATOM     23  C   UNL     1      -0.753   1.593  -1.232  0.00  0.00    +0.048 C 
ATOM     24  C   UNL     1      -0.013   1.086   0.008  0.00  0.00    +0.226 C 
ENDBRANCH  22  24
ENDBRANCH  16  22
ENDBRANCH  11  21
ENDBRANCH  10  13
ENDBRANCH   1  10
BRANCH   6  25
ATOM     25  C   UNL     1      -7.779   1.329  11.436  0.00  0.00    -0.022 C 
BRANCH  25  26
ATOM     26  N   UNL     1      -6.876   1.628  12.556  0.00  0.00    +0.384 N 
ATOM     27  C   UNL     1      -5.933   0.524  12.779  0.00  0.00    -0.075 C 
ATOM     28  C   UNL     1      -4.919   0.928  13.852  0.00  0.00    -0.031 C 
ATOM     29  C   UNL     1      -5.661   1.261  15.150  0.00  0.00    +0.003 C 
ATOM     30  C   UNL     1      -6.671   2.379  14.878  0.00  0.00    -0.031 C 
ATOM     31  C   UNL     1      -7.634   1.933  13.775  0.00  0.00    -0.075 C 
ATOM     32  C   UNL     1      -7.459   2.677  16.155  0.00  0.00    +0.005 C 
ATOM     33  C   UNL     1      -4.138   2.157  13.381  0.00  0.00    +0.005 C 
ATOM     34  H   UNL     1      -6.291   2.521  12.292  0.00  0.00    -0.081 HD
ENDBRANCH  25  26
ENDBRANCH   6  25
TORSDOF 7
