REMARK  Name = ZINC57945356
REMARK  13 active torsions:
REMARK  status: ('A' for Active; 'I' for Inactive)
REMARK    1  A    between atoms: C_1  and  C_2
REMARK    2  A    between atoms: C_5  and  O_8
REMARK    3  A    between atoms: O_8  and  C_9
REMARK    4  A    between atoms: C_9  and  C_10
REMARK    5  A    between atoms: C_10  and  C_12
REMARK    6  A    between atoms: C_10  and  O_28
REMARK    7  A    between atoms: C_12  and  N_13
REMARK    8  A    between atoms: N_13  and  C_14
REMARK    9  A    between atoms: N_13  and  C_15
REMARK   10  A    between atoms: C_15  and  C_17
REMARK   11  A    between atoms: C_15  and  C_18
REMARK   12  A    between atoms: C_21  and  S_24
REMARK   13  A    between atoms: S_24  and  N_27
REMARK                            x       y       z     vdW  Elec       q    Type
REMARK                         _______ _______ _______ _____ _____    ______ ____
ROOT
ATOM      1  N   UNL     1      -0.002  -8.458   2.194  0.00  0.00    +0.384 N 
ATOM      2  C   UNL     1      -1.200  -8.864   1.448  0.00  0.00    -0.095 C 
ATOM      3  H   UNL     1       0.823  -8.716   1.673  0.00  0.00    -0.081 HD
ENDROOT
BRANCH   1   4
ATOM      4  C   UNL     1       0.014  -9.132   3.499  0.00  0.00    -0.041 C 
ATOM      5  C   UNL     1       0.032 -10.648   3.291  0.00  0.00    -0.008 C 
BRANCH   4   6
ATOM      6  C   UNL     1       1.243  -8.716   4.266  0.00  0.00    -0.061 A 
ATOM      7  C   UNL     1       2.450  -8.570   3.609  0.00  0.00    +0.004 A 
ATOM      8  C   UNL     1       3.578  -8.188   4.311  0.00  0.00    +0.029 A 
ATOM      9  C   UNL     1       3.497  -7.951   5.671  0.00  0.00    +0.105 A 
ATOM     10  C   UNL     1       2.290  -8.095   6.327  0.00  0.00    +0.029 A 
ATOM     11  C   UNL     1       1.161  -8.473   5.624  0.00  0.00    +0.004 A 
BRANCH   9  12
ATOM     12  S   UNL     1       4.935  -7.465   6.567  0.00  0.00    +0.056 S 
ATOM     13  O   UNL     1       4.713  -7.833   7.921  0.00  0.00    -0.153 OA
ATOM     14  O   UNL     1       6.053  -7.930   5.824  0.00  0.00    -0.153 OA
BRANCH  12  15
ATOM     15  N   UNL     1       4.998  -5.811   6.530  0.00  0.00    -0.204 NA
ATOM     16  H   UNL     1       4.309  -5.309   6.067  0.00  0.00    +0.144 HD
ATOM     17  H   UNL     1       5.724  -5.343   6.973  0.00  0.00    +0.144 HD
ENDBRANCH  12  15
ENDBRANCH   9  12
ENDBRANCH   4   6
ENDBRANCH   1   4
BRANCH   1  18
ATOM     18  C   UNL     1      -0.020  -7.003   2.395  0.00  0.00    -0.043 C 
BRANCH  18  19
ATOM     19  C   UNL     1       0.090  -6.300   1.040  0.00  0.00    +0.135 C 
BRANCH  19  20
ATOM     20  O   UNL     1       1.313  -6.679   0.405  0.00  0.00    -0.390 OA
ATOM     21  H   UNL     1       2.106  -6.450   0.910  0.00  0.00    +0.210 HD
ENDBRANCH  19  20
BRANCH  19  22
ATOM     22  C   UNL     1       0.072  -4.785   1.249  0.00  0.00    +0.258 C 
BRANCH  22  23
ATOM     23  O   UNL     1       0.057  -4.129  -0.021  0.00  0.00    -0.489 OA
BRANCH  23  28
ATOM     24  C   UNL     1      -0.018   1.503   0.010  0.00  0.00    +0.044 C 
ATOM     25  C   UNL     1       0.002  -0.004   0.002  0.00  0.00    -0.050 A 
ATOM     26  C   UNL     1       0.006  -0.688  -1.200  0.00  0.00    +0.007 A 
ATOM     27  C   UNL     1       0.024  -2.069  -1.210  0.00  0.00    +0.046 A 
ATOM     28  C   UNL     1       0.039  -2.770  -0.013  0.00  0.00    +0.121 A 
ATOM     29  C   UNL     1       0.036  -2.082   1.191  0.00  0.00    +0.046 A 
ATOM     30  C   UNL     1       0.023  -0.701   1.196  0.00  0.00    +0.007 A 
ENDBRANCH  23  28
ENDBRANCH  22  23
ENDBRANCH  19  22
ENDBRANCH  18  19
ENDBRANCH   1  18
TORSDOF 10
