REMARK  Name = ZINC08185461
REMARK  9 active torsions:
REMARK  status: ('A' for Active; 'I' for Inactive)
REMARK    1  A    between atoms: C_1  and  C_2
REMARK    2  A    between atoms: C_3  and  C_27
REMARK    3  A    between atoms: N_4  and  C_20
REMARK    4  A    between atoms: C_5  and  N_9
REMARK    5  A    between atoms: C_6  and  C_7
REMARK    6  A    between atoms: C_10  and  C_12
REMARK    7  A    between atoms: C_12  and  S_13
REMARK    8  A    between atoms: S_13  and  C_14
REMARK    9  A    between atoms: C_20  and  C_21
REMARK                            x       y       z     vdW  Elec       q    Type
REMARK                         _______ _______ _______ _____ _____    ______ ____
ROOT
ATOM      1  C   UNL     1       2.106   2.743   1.316  0.00  0.00    +0.047 C 
ATOM      2  C   UNL     1       1.473   1.597   0.570  0.00  0.00    -0.011 A 
ATOM      3  C   UNL     1       2.074   0.787  -0.316  0.00  0.00    +0.022 A 
ATOM      4  N   UNL     1       1.169  -0.130  -0.778  0.00  0.00    -0.329 N 
ATOM      5  C   UNL     1      -0.041   0.072  -0.195  0.00  0.00    +0.123 A 
ATOM      6  C   UNL     1       0.078   1.150   0.671  0.00  0.00    +0.095 A 
ATOM      7  C   UNL     1       3.519   0.874  -0.736  0.00  0.00    +0.064 C 
ENDROOT
BRANCH   5   8
ATOM      8  N   UNL     1      -1.191  -0.668  -0.423  0.00  0.00    -0.270 N 
ATOM      9  C   UNL     1      -2.271  -0.082  -0.978  0.00  0.00    +0.229 C 
ATOM     10  O   UNL     1      -2.207   1.067  -1.362  0.00  0.00    -0.275 OA
ATOM     11  H   UNL     1      -1.219  -1.608  -0.184  0.00  0.00    +0.156 HD
BRANCH   9  12
ATOM     12  C   UNL     1      -3.557  -0.853  -1.121  0.00  0.00    +0.172 C 
BRANCH  12  13
ATOM     13  S   UNL     1      -4.812   0.202  -1.897  0.00  0.00    -0.088 S 
BRANCH  13  14
ATOM     14  C   UNL     1      -6.237  -0.830  -1.994  0.00  0.00    +0.160 A 
ATOM     15  N   UNL     1      -6.391  -2.081  -1.603  0.00  0.00    -0.133 NA
ATOM     16  N   UNL     1      -7.605  -2.706  -1.773  0.00  0.00    -0.125 NA
ATOM     17  C   UNL     1      -8.608  -2.053  -2.326  0.00  0.00    +0.180 A 
ATOM     18  S   UNL     1      -7.861  -0.461  -2.639  0.00  0.00    -0.025 S 
ATOM     19  N   UNL     1      -9.902  -2.486  -2.590  0.00  0.00    -0.336 N 
ATOM     20  H   UNL     1     -10.168  -3.389  -2.358  0.00  0.00    +0.144 HD
ATOM     21  H   UNL     1     -10.539  -1.885  -3.007  0.00  0.00    +0.144 HD
ENDBRANCH  13  14
ENDBRANCH  12  13
ENDBRANCH   9  12
ENDBRANCH   5   8
BRANCH   6  22
ATOM     22  C   UNL     1      -0.952   1.715   1.490  0.00  0.00    +0.103 C 
ATOM     23  N   UNL     1      -1.768   2.164   2.140  0.00  0.00    -0.191 NA
ENDBRANCH   6  22
BRANCH   4  24
ATOM     24  C   UNL     1       1.462  -1.178  -1.758  0.00  0.00    +0.154 C 
BRANCH  24  25
ATOM     25  C   UNL     1       1.054  -0.700  -3.153  0.00  0.00    +0.138 C 
ATOM     26  C   UNL     1       1.253  -1.839  -4.176  0.00  0.00    +0.035 C 
ATOM     27  C   UNL     1       1.802  -1.079  -5.414  0.00  0.00    +0.031 C 
ATOM     28  C   UNL     1       2.635   0.035  -4.729  0.00  0.00    +0.160 C 
ATOM     29  O   UNL     1       1.888   0.393  -3.556  0.00  0.00    -0.375 OA
ENDBRANCH  24  25
ENDBRANCH   4  24
TORSDOF 7
