REMARK  Name = ZINC20192126
REMARK  15 active torsions:
REMARK  status: ('A' for Active; 'I' for Inactive)
REMARK    1  A    between atoms: C_1  and  C_2
REMARK    2  A    between atoms: C_2  and  C_3
REMARK    3  A    between atoms: C_2  and  C_4
REMARK    4  A    between atoms: C_2  and  C_5
REMARK    5  A    between atoms: C_7  and  C_16
REMARK    6  A    between atoms: C_9  and  C_12
REMARK    7  A    between atoms: C_10  and  O_11
REMARK    8  A    between atoms: C_12  and  C_13
REMARK    9  A    between atoms: C_12  and  C_14
REMARK   10  A    between atoms: C_12  and  C_15
REMARK   11  A    between atoms: C_16  and  C_18
REMARK   12  A    between atoms: C_16  and  N_24
REMARK   13  A    between atoms: N_27  and  C_30
REMARK   14  A    between atoms: C_30  and  C_31
REMARK   15  A    between atoms: C_31  and  O_32
REMARK                            x       y       z     vdW  Elec       q    Type
REMARK                         _______ _______ _______ _____ _____    ______ ____
ROOT
ATOM      1  C   UNL     1      -0.894   3.463  -2.831  0.00  0.00    -0.007 C 
ENDROOT
BRANCH   1   2
ATOM      2  N   UNL     1      -0.397   2.915  -1.562  0.00  0.00    +0.389 N 
ATOM      3  C   UNL     1       0.925   3.465  -1.232  0.00  0.00    -0.062 C 
ATOM      4  C   UNL     1       1.371   2.932   0.131  0.00  0.00    +0.066 C 
ATOM      5  N   UNL     1       1.409   1.463   0.092  0.00  0.00    -0.304 NA
ATOM      6  C   UNL     1       0.087   0.914  -0.237  0.00  0.00    +0.066 C 
ATOM      7  C   UNL     1      -0.359   1.447  -1.601  0.00  0.00    -0.062 C 
ATOM      8  H   UNL     1      -1.097   3.216  -0.768  0.00  0.00    -0.080 HD
BRANCH   5   9
ATOM      9  C   UNL     1       1.906   0.916   1.361  0.00  0.00    +0.112 C 
BRANCH   9  10
ATOM     10  C   UNL     1       1.830  -0.612   1.322  0.00  0.00    +0.171 C 
BRANCH  10  11
ATOM     11  O   UNL     1       2.684  -1.105   0.288  0.00  0.00    -0.394 OA
ATOM     12  H   UNL     1       2.762  -2.187   0.108  0.00  0.00    +0.209 HD
ENDBRANCH  10  11
ENDBRANCH   9  10
ENDBRANCH   5   9
ENDBRANCH   1   2
BRANCH   1  15
ATOM     13  C   UNL     1      -0.727   7.150  -3.622  0.00  0.00    -0.000 A 
ATOM     14  C   UNL     1      -0.596   5.779  -3.731  0.00  0.00    +0.010 A 
ATOM     15  C   UNL     1      -1.039   4.958  -2.710  0.00  0.00    -0.056 A 
ATOM     16  C   UNL     1      -1.619   5.507  -1.581  0.00  0.00    +0.010 A 
ATOM     17  C   UNL     1      -1.747   6.878  -1.465  0.00  0.00    -0.000 A 
ATOM     18  C   UNL     1      -1.304   7.703  -2.488  0.00  0.00    +0.124 A 
BRANCH  13  20
ATOM     19  C   UNL     1       0.344   7.188  -5.858  0.00  0.00    +0.015 C 
ATOM     20  C   UNL     1      -0.244   8.044  -4.735  0.00  0.00    -0.009 C 
ATOM     21  C   UNL     1      -1.419   8.861  -5.279  0.00  0.00    +0.015 C 
ATOM     22  C   UNL     1       0.831   8.991  -4.199  0.00  0.00    +0.015 C 
ENDBRANCH  13  20
BRANCH  17  23
ATOM     23  C   UNL     1      -2.374   7.475  -0.232  0.00  0.00    -0.009 C 
ATOM     24  C   UNL     1      -2.772   6.355   0.731  0.00  0.00    +0.015 C 
ATOM     25  C   UNL     1      -1.369   8.403   0.453  0.00  0.00    +0.015 C 
ATOM     26  C   UNL     1      -3.618   8.273  -0.628  0.00  0.00    +0.015 C 
ENDBRANCH  17  23
BRANCH  18  27
ATOM     27  O   UNL     1      -1.434   9.052  -2.379  0.00  0.00    -0.506 OA
ATOM     28  H   UNL     1      -1.891   9.489  -1.479  0.00  0.00    +0.292 HD
ENDBRANCH  18  27
ENDBRANCH   1  15
BRANCH   1  29
ATOM     29  C   UNL     1      -2.235   2.853  -3.151  0.00  0.00    -0.054 A 
ATOM     30  C   UNL     1      -3.218   2.750  -2.179  0.00  0.00    +0.022 A 
ATOM     31  C   UNL     1      -4.436   2.189  -2.510  0.00  0.00    +0.111 A 
ATOM     32  N   UNL     1      -4.665   1.746  -3.731  0.00  0.00    -0.263 NA
ATOM     33  C   UNL     1      -3.752   1.823  -4.679  0.00  0.00    +0.111 A 
ATOM     34  C   UNL     1      -2.512   2.377  -4.423  0.00  0.00    +0.022 A 
ENDBRANCH   1  29
TORSDOF 9
