REMARK  Name = ZINC45645364
REMARK  11 active torsions:
REMARK  status: ('A' for Active; 'I' for Inactive)
REMARK    1  A    between atoms: C_1  and  C_2
REMARK    2  A    between atoms: C_2  and  N_3
REMARK    3  A    between atoms: N_3  and  C_4
REMARK    4  A    between atoms: C_12  and  C_14
REMARK    5  A    between atoms: C_14  and  C_16
REMARK    6  A    between atoms: C_14  and  O_17
REMARK    7  A    between atoms: O_17  and  C_18
REMARK    8  A    between atoms: C_18  and  C_20
REMARK    9  A    between atoms: C_20  and  C_21
REMARK   10  A    between atoms: C_21  and  C_22
REMARK   11  A    between atoms: N_32  and  C_33
REMARK                            x       y       z     vdW  Elec       q    Type
REMARK                         _______ _______ _______ _____ _____    ______ ____
ROOT
ATOM      1  C   UNL     1      -4.274  -0.470  -2.788  0.00  0.00    +0.308 C 
ATOM      2  O   UNL     1      -4.494  -0.696  -1.622  0.00  0.00    -0.251 OA
ENDROOT
BRANCH   1   3
ATOM      3  O   UNL     1      -3.124   0.117  -3.153  0.00  0.00    -0.452 OA
BRANCH   3   4
ATOM      4  C   UNL     1      -2.205   0.447  -2.110  0.00  0.00    +0.259 C 
ATOM      5  C   UNL     1      -2.495   1.862  -1.604  0.00  0.00    +0.062 C 
BRANCH   4   7
ATOM      6  N   UNL     1       0.247   0.372  -1.789  0.00  0.00    -0.294 N 
ATOM      7  C   UNL     1      -0.796   0.384  -2.643  0.00  0.00    +0.256 C 
ATOM      8  O   UNL     1      -0.602   0.343  -3.839  0.00  0.00    -0.272 OA
BRANCH   6   9
ATOM      9  C   UNL     1       1.617   0.350  -2.308  0.00  0.00    +0.099 C 
ATOM     10  C   UNL     1       1.816  -0.906  -3.171  0.00  0.00    +0.046 C 
ATOM     11  C   UNL     1       3.151  -0.750  -3.954  0.00  0.00    +0.168 C 
ATOM     12  S   UNL     1       3.058   1.028  -4.427  0.00  0.00    -0.029 S 
ATOM     13  O   UNL     1       2.457   1.134  -5.711  0.00  0.00    -0.174 OA
ATOM     14  O   UNL     1       4.321   1.635  -4.195  0.00  0.00    -0.174 OA
ATOM     15  C   UNL     1       1.865   1.619  -3.159  0.00  0.00    +0.188 C 
ENDBRANCH   6   9
BRANCH   6  17
ATOM     16  C   UNL     1       0.142   1.812   0.185  0.00  0.00    +0.024 C 
ATOM     17  C   UNL     1       0.011   0.382  -0.344  0.00  0.00    +0.105 C 
ENDBRANCH   6  17
ENDBRANCH   4   7
ENDBRANCH   3   4
ENDBRANCH   1   3
BRANCH   1  18
ATOM     18  C   UNL     1      -5.292  -0.848  -3.833  0.00  0.00    +0.128 C 
BRANCH  18  19
ATOM     19  C   UNL     1      -6.502  -1.495  -3.157  0.00  0.00    +0.085 C 
BRANCH  19  20
ATOM     20  C   UNL     1      -7.520  -1.873  -4.202  0.00  0.00    +0.114 A 
ATOM     21  N   UNL     1      -7.248  -1.620  -5.446  0.00  0.00    -0.233 NA
ATOM     22  C   UNL     1      -8.116  -1.932  -6.441  0.00  0.00    +0.078 A 
ATOM     23  C   UNL     1      -7.824  -1.661  -7.780  0.00  0.00    +0.028 A 
ATOM     24  C   UNL     1      -8.733  -1.995  -8.757  0.00  0.00    +0.002 A 
ATOM     25  C   UNL     1      -9.941  -2.599  -8.429  0.00  0.00    +0.001 A 
ATOM     26  C   UNL     1     -10.252  -2.876  -7.116  0.00  0.00    +0.015 A 
ATOM     27  C   UNL     1      -9.344  -2.546  -6.112  0.00  0.00    +0.065 A 
ATOM     28  C   UNL     1      -9.621  -2.818  -4.693  0.00  0.00    +0.262 A 
ATOM     29  O   UNL     1     -10.661  -3.345  -4.342  0.00  0.00    -0.267 OA
ATOM     30  N   UNL     1      -8.673  -2.465  -3.794  0.00  0.00    -0.293 N 
BRANCH  30  31
ATOM     31  C   UNL     1      -8.894  -2.718  -2.369  0.00  0.00    +0.092 C 
ATOM     32  C   UNL     1     -10.246  -2.310  -1.780  0.00  0.00    +0.027 C 
ATOM     33  C   UNL     1      -8.990  -1.504  -1.442  0.00  0.00    +0.027 C 
ENDBRANCH  30  31
ENDBRANCH  19  20
ENDBRANCH  18  19
ENDBRANCH   1  18
TORSDOF 9
