REMARK  Name = ZINC36313032
REMARK  16 active torsions:
REMARK  status: ('A' for Active; 'I' for Inactive)
REMARK    1  A    between atoms: C_1  and  N_2
REMARK    2  A    between atoms: N_2  and  C_3
REMARK    3  A    between atoms: N_2  and  C_4
REMARK    4  A    between atoms: C_4  and  C_5
REMARK    5  A    between atoms: C_5  and  N_6
REMARK    6  A    between atoms: N_6  and  C_7
REMARK    7  A    between atoms: N_6  and  C_25
REMARK    8  A    between atoms: C_7  and  C_8
REMARK    9  A    between atoms: C_9  and  C_19
REMARK   10  A    between atoms: C_12  and  N_13
REMARK   11  A    between atoms: C_25  and  C_26
REMARK   12  A    between atoms: C_26  and  C_28
REMARK   13  A    between atoms: C_26  and  O_33
REMARK   14  A    between atoms: C_28  and  O_29
REMARK   15  A    between atoms: O_29  and  C_30
REMARK   16  A    between atoms: C_30  and  C_31
REMARK                            x       y       z     vdW  Elec       q    Type
REMARK                         _______ _______ _______ _____ _____    ______ ____
ROOT
ATOM      1  C   UNL     1      -2.967  -1.576  -0.828  0.00  0.00    -0.035 C 
ENDROOT
BRANCH   1   2
ATOM      2  C   UNL     1      -3.462  -0.163  -0.657  0.00  0.00    +0.025 A 
ATOM      3  C   UNL     1      -4.647   0.227   0.001  0.00  0.00    +0.117 A 
ATOM      4  N   UNL     1      -4.731   1.536  -0.059  0.00  0.00    -0.076 NA
ATOM      5  O   UNL     1      -3.598   2.016  -0.758  0.00  0.00    -0.339 OA
ATOM      6  C   UNL     1      -2.843   0.959  -1.105  0.00  0.00    +0.222 A 
BRANCH   6   7
ATOM      7  N   UNL     1      -1.647   1.006  -1.797  0.00  0.00    -0.299 N 
ATOM      8  C   UNL     1      -1.634   1.046  -3.266  0.00  0.00    +0.108 C 
ATOM      9  C   UNL     1      -0.796   2.247  -3.718  0.00  0.00    +0.019 C 
ATOM     10  C   UNL     1       0.592   2.165  -3.079  0.00  0.00    +0.003 C 
ATOM     11  C   UNL     1       0.458   2.217  -1.555  0.00  0.00    +0.019 C 
ATOM     12  C   UNL     1      -0.366   1.022  -1.078  0.00  0.00    +0.108 C 
ENDBRANCH   6   7
BRANCH   3  13
ATOM     13  C   UNL     1      -5.627  -0.682   0.647  0.00  0.00    +0.004 A 
ATOM     14  C   UNL     1      -6.035  -1.845  -0.003  0.00  0.00    +0.010 A 
ATOM     15  C   UNL     1      -6.946  -2.687   0.603  0.00  0.00    +0.001 A 
ATOM     16  C   UNL     1      -7.454  -2.378   1.852  0.00  0.00    +0.000 A 
ATOM     17  C   UNL     1      -7.051  -1.225   2.501  0.00  0.00    +0.001 A 
ATOM     18  C   UNL     1      -6.137  -0.378   1.907  0.00  0.00    +0.010 A 
ENDBRANCH   3  13
ENDBRANCH   1   2
BRANCH   1  19
ATOM     19  N   UNL     1      -1.985  -1.881   0.221  0.00  0.00    +0.385 N 
ATOM     20  H   UNL     1      -1.239  -1.202   0.191  0.00  0.00    -0.081 HD
BRANCH  19  21
ATOM     21  C   UNL     1      -1.434  -3.225   0.001  0.00  0.00    -0.063 C 
BRANCH  21  22
ATOM     22  C   UNL     1      -0.715  -3.266  -1.348  0.00  0.00    +0.065 C 
BRANCH  22  24
ATOM     23  C   UNL     1       0.263  -4.765  -2.979  0.00  0.00    +0.104 C 
ATOM     24  N   UNL     1      -0.225  -4.628  -1.601  0.00  0.00    -0.310 NA
ATOM     25  C   UNL     1       0.816  -5.001  -0.634  0.00  0.00    +0.104 C 
ENDBRANCH  22  24
ENDBRANCH  21  22
ENDBRANCH  19  21
BRANCH  19  26
ATOM     26  C   UNL     1      -2.640  -1.829   1.535  0.00  0.00    -0.044 C 
BRANCH  26  27
ATOM     27  C   UNL     1      -1.584  -1.945   2.636  0.00  0.00    +0.124 C 
BRANCH  27  28
ATOM     28  O   UNL     1      -1.019  -3.257   2.618  0.00  0.00    -0.391 OA
ATOM     29  H   UNL     1      -1.662  -3.965   2.764  0.00  0.00    +0.210 HD
ENDBRANCH  27  28
BRANCH  27  30
ATOM     30  C   UNL     1      -2.235  -1.689   3.997  0.00  0.00    +0.190 C 
BRANCH  30  31
ATOM     31  O   UNL     1      -1.230  -1.682   5.013  0.00  0.00    -0.365 OA
BRANCH  31  32
ATOM     32  C   UNL     1      -1.736  -1.449   6.329  0.00  0.00    +0.248 C 
BRANCH  32  33
ATOM     33  C   UNL     1      -0.622  -1.462   7.291  0.00  0.00    -0.077 C 
ATOM     34  C   UNL     1       0.266  -1.473   8.059  0.00  0.00    +0.006 C 
ENDBRANCH  32  33
ENDBRANCH  31  32
ENDBRANCH  30  31
ENDBRANCH  27  30
ENDBRANCH  26  27
ENDBRANCH  19  26
ENDBRANCH   1  19
TORSDOF 14
