REMARK  Name = ZINC38686733
REMARK  10 active torsions:
REMARK  status: ('A' for Active; 'I' for Inactive)
REMARK    1  A    between atoms: C_4  and  C_7
REMARK    2  A    between atoms: C_7  and  C_8
REMARK    3  A    between atoms: C_8  and  O_10
REMARK    4  A    between atoms: O_10  and  C_11
REMARK    5  A    between atoms: C_18  and  N_39
REMARK    6  A    between atoms: C_19  and  C_37
REMARK    7  A    between atoms: C_20  and  C_22
REMARK    8  A    between atoms: C_26  and  O_28
REMARK    9  A    between atoms: O_28  and  C_29
REMARK   10  A    between atoms: C_29  and  C_30
REMARK                            x       y       z     vdW  Elec       q    Type
REMARK                         _______ _______ _______ _____ _____    ______ ____
ROOT
ATOM      1  C   UNL     1       5.786  -1.827   2.864  0.00  0.00    +0.135 A 
ATOM      2  C   UNL     1       5.028  -1.450   3.964  0.00  0.00    +0.047 A 
ATOM      3  C   UNL     1       5.504  -1.676   5.240  0.00  0.00    +0.012 A 
ATOM      4  C   UNL     1       6.736  -2.276   5.429  0.00  0.00    +0.008 A 
ATOM      5  C   UNL     1       7.498  -2.654   4.334  0.00  0.00    +0.138 A 
ATOM      6  C   UNL     1       7.018  -2.433   3.050  0.00  0.00    +0.093 A 
ATOM      7  O   UNL     1       8.708  -3.244   4.499  0.00  0.00    -0.441 OA
ATOM      8  C   UNL     1       9.356  -3.128   5.670  0.00  0.00    +0.199 C 
ATOM      9  C   UNL     1       8.715  -2.785   6.813  0.00  0.00    +0.098 C 
ATOM     10  C   UNL     1       7.237  -2.514   6.829  0.00  0.00    +0.098 C 
ENDROOT
BRANCH  10  11
ATOM     11  C   UNL     1       6.519  -3.699   7.422  0.00  0.00    -0.031 A 
ATOM     12  C   UNL     1       6.619  -4.939   6.819  0.00  0.00    +0.005 A 
ATOM     13  C   UNL     1       5.961  -6.028   7.361  0.00  0.00    +0.004 A 
ATOM     14  C   UNL     1       5.203  -5.880   8.506  0.00  0.00    +0.045 A 
ATOM     15  C   UNL     1       5.101  -4.636   9.112  0.00  0.00    +0.121 A 
ATOM     16  C   UNL     1       5.767  -3.546   8.570  0.00  0.00    +0.050 A 
BRANCH  15  17
ATOM     17  O   UNL     1       4.356  -4.487  10.239  0.00  0.00    -0.487 OA
BRANCH  17  18
ATOM     18  C   UNL     1       3.703  -5.654  10.744  0.00  0.00    +0.264 C 
BRANCH  18  19
ATOM     19  C   UNL     1       2.930  -5.298  11.987  0.00  0.00    -0.010 A 
ATOM     20  C   UNL     1       3.538  -5.377  13.226  0.00  0.00    +0.008 A 
ATOM     21  C   UNL     1       2.829  -5.051  14.367  0.00  0.00    +0.020 A 
ATOM     22  C   UNL     1       1.510  -4.645  14.269  0.00  0.00    +0.041 A 
ATOM     23  C   UNL     1       0.902  -4.566  13.029  0.00  0.00    +0.020 A 
ATOM     24  C   UNL     1       1.614  -4.887  11.888  0.00  0.00    +0.008 A 
ATOM     25 CL   UNL     1       0.619  -4.236  15.701  0.00  0.00    -0.084 Cl
ENDBRANCH  18  19
ENDBRANCH  17  18
ENDBRANCH  15  17
ENDBRANCH  10  11
BRANCH   8  26
ATOM     26  N   UNL     1      10.707  -3.366   5.710  0.00  0.00    -0.328 N 
ATOM     27  H   UNL     1      11.180  -3.613   4.900  0.00  0.00    +0.145 HD
ATOM     28  H   UNL     1      11.189  -3.287   6.548  0.00  0.00    +0.145 HD
ENDBRANCH   8  26
BRANCH   9  29
ATOM     29  C   UNL     1       9.462  -2.678   8.030  0.00  0.00    +0.101 C 
ATOM     30  N   UNL     1      10.054  -2.593   8.996  0.00  0.00    -0.191 NA
ENDBRANCH   9  29
BRANCH   1  31
ATOM     31  O   UNL     1       5.319  -1.605   1.607  0.00  0.00    -0.425 OA
BRANCH  31  32
ATOM     32  C   UNL     1       5.391  -0.356   1.119  0.00  0.00    +0.317 C 
ATOM     33  O   UNL     1       5.778   0.546   1.823  0.00  0.00    -0.250 OA
BRANCH  32  34
ATOM     34  C   UNL     1       4.990  -0.081  -0.307  0.00  0.00    +0.156 C 
BRANCH  34  38
ATOM     35  C   UNL     1       5.480   4.079  -1.148  0.00  0.00    +0.000 A 
ATOM     36  C   UNL     1       6.526   3.201  -1.367  0.00  0.00    +0.000 A 
ATOM     37  C   UNL     1       6.367   1.855  -1.095  0.00  0.00    +0.004 A 
ATOM     38  C   UNL     1       5.163   1.387  -0.603  0.00  0.00    -0.037 A 
ATOM     39  C   UNL     1       4.118   2.264  -0.384  0.00  0.00    +0.004 A 
ATOM     40  C   UNL     1       4.276   3.610  -0.657  0.00  0.00    +0.000 A 
ENDBRANCH  34  38
ENDBRANCH  32  34
ENDBRANCH  31  32
ENDBRANCH   1  31
TORSDOF 10
