REMARK  Name = ZINC06510639
REMARK  5 active torsions:
REMARK  status: ('A' for Active; 'I' for Inactive)
REMARK    1  A    between atoms: C_1  and  C_2
REMARK    2  A    between atoms: C_2  and  C_4
REMARK    3  A    between atoms: C_2  and  N_14
REMARK    4  A    between atoms: C_7  and  S_10
REMARK    5  A    between atoms: S_10  and  N_13
REMARK                            x       y       z     vdW  Elec       q    Type
REMARK                         _______ _______ _______ _____ _____    ______ ____
ROOT
ATOM      1  C   UNL     1       3.196   4.176   1.433  0.00  0.00    +0.033 C 
ATOM      2  C   UNL     1       3.342   3.684  -0.009  0.00  0.00    +0.099 C 
ENDROOT
BRANCH   2   3
ATOM      3  N   UNL     1       3.442   2.223  -0.019  0.00  0.00    -0.322 N 
ATOM      4  C   UNL     1       2.295   1.450  -0.012  0.00  0.00    +0.131 A 
ATOM      5  C   UNL     1       2.380   0.031  -0.022  0.00  0.00    +0.051 A 
ATOM      6  C   UNL     1       3.586  -0.813  -0.040  0.00  0.00    -0.025 A 
ATOM      7  C   UNL     1       3.397  -2.142  -0.043  0.00  0.00    -0.004 A 
ATOM      8  S   UNL     1       1.632  -2.358  -0.025  0.00  0.00    -0.073 S 
ATOM      9  C   UNL     1       1.151  -0.652  -0.013  0.00  0.00    +0.114 A 
ATOM     10  N   UNL     1       0.002  -0.004   0.002  0.00  0.00    -0.228 NA
ATOM     11  C   UNL     1      -0.016   1.315   0.009  0.00  0.00    +0.224 A 
ATOM     12  N   UNL     1       1.101   2.021   0.002  0.00  0.00    -0.220 NA
ATOM     13  C   UNL     1       4.697  -2.901  -0.058  0.00  0.00    +0.043 C 
ATOM     14  C   UNL     1       5.756  -1.864   0.374  0.00  0.00    +0.010 C 
ATOM     15  C   UNL     1       5.093  -0.541  -0.058  0.00  0.00    +0.037 C 
ATOM     16  H   UNL     1       4.314   1.797  -0.030  0.00  0.00    +0.148 HD
ENDBRANCH   2   3
BRANCH   2  17
ATOM     17  C   UNL     1       4.585   4.278  -0.619  0.00  0.00    -0.027 A 
ATOM     18  C   UNL     1       5.823   3.729  -0.337  0.00  0.00    +0.007 A 
ATOM     19  C   UNL     1       6.963   4.271  -0.900  0.00  0.00    +0.029 A 
ATOM     20  C   UNL     1       6.868   5.367  -1.736  0.00  0.00    +0.105 A 
ATOM     21  C   UNL     1       5.631   5.920  -2.013  0.00  0.00    +0.029 A 
ATOM     22  C   UNL     1       4.490   5.375  -1.455  0.00  0.00    +0.007 A 
BRANCH  20  23
ATOM     23  S   UNL     1       8.322   6.062  -2.448  0.00  0.00    +0.056 S 
ATOM     24  O   UNL     1       9.298   5.029  -2.467  0.00  0.00    -0.153 OA
ATOM     25  O   UNL     1       7.912   6.745  -3.624  0.00  0.00    -0.153 OA
BRANCH  23  26
ATOM     26  N   UNL     1       8.877   7.218  -1.399  0.00  0.00    -0.204 NA
ATOM     27  H   UNL     1       8.400   7.391  -0.572  0.00  0.00    +0.144 HD
ATOM     28  H   UNL     1       9.678   7.721  -1.612  0.00  0.00    +0.144 HD
ENDBRANCH  23  26
ENDBRANCH  20  23
ENDBRANCH   2  17
TORSDOF 4
