REMARK  Name = ZINC38726182
REMARK  10 active torsions:
REMARK  status: ('A' for Active; 'I' for Inactive)
REMARK    1  A    between atoms: C_1  and  C_2
REMARK    2  A    between atoms: C_2  and  O_3
REMARK    3  A    between atoms: O_3  and  C_4
REMARK    4  A    between atoms: C_15  and  C_25
REMARK    5  A    between atoms: N_17  and  C_20
REMARK    6  A    between atoms: C_20  and  C_21
REMARK    7  A    between atoms: C_21  and  N_22
REMARK    8  A    between atoms: N_22  and  C_23
REMARK    9  A    between atoms: N_22  and  C_24
REMARK   10  A    between atoms: C_28  and  C_31
REMARK                            x       y       z     vdW  Elec       q    Type
REMARK                         _______ _______ _______ _____ _____    ______ ____
ROOT
ATOM      1  C   UNL     1       0.802  -1.822   1.306  0.00  0.00    +0.124 A 
ATOM      2  C   UNL     1       0.254  -2.667   0.341  0.00  0.00    +0.046 A 
ATOM      3  C   UNL     1       0.360  -4.021   0.476  0.00  0.00    +0.019 A 
ATOM      4  C   UNL     1       1.018  -4.559   1.583  0.00  0.00    +0.065 A 
ATOM      5  C   UNL     1       1.571  -3.719   2.566  0.00  0.00    +0.143 A 
ATOM      6  C   UNL     1       1.460  -2.341   2.406  0.00  0.00    +0.092 A 
ATOM      7  O   UNL     1       2.205  -4.204   3.658  0.00  0.00    -0.449 OA
ATOM      8  C   UNL     1       2.530  -5.511   3.714  0.00  0.00    +0.199 A 
ATOM      9  C   UNL     1       2.050  -6.428   2.824  0.00  0.00    +0.072 A 
ATOM     10  C   UNL     1       1.148  -6.028   1.738  0.00  0.00    +0.199 A 
ATOM     11  O   UNL     1       0.560  -6.828   1.030  0.00  0.00    -0.287 OA
ATOM     12  C   UNL     1       2.612  -7.761   3.196  0.00  0.00    +0.144 C 
ATOM     13  N   UNL     1       3.461  -7.524   4.374  0.00  0.00    -0.285 N 
ATOM     14  C   UNL     1       3.408  -6.209   4.669  0.00  0.00    +0.283 C 
ATOM     15  O   UNL     1       3.998  -5.677   5.589  0.00  0.00    -0.267 OA
ENDROOT
BRANCH  12  16
ATOM     16  C   UNL     1       1.498  -8.716   3.539  0.00  0.00    -0.022 A 
ATOM     17  C   UNL     1       0.881  -8.643   4.774  0.00  0.00    +0.006 A 
ATOM     18  C   UNL     1      -0.141  -9.519   5.089  0.00  0.00    +0.004 A 
ATOM     19  C   UNL     1      -0.545 -10.469   4.170  0.00  0.00    -0.050 A 
ATOM     20  C   UNL     1       0.071 -10.541   2.935  0.00  0.00    +0.004 A 
ATOM     21  C   UNL     1       1.090  -9.662   2.618  0.00  0.00    +0.006 A 
ATOM     22  C   UNL     1      -1.658 -11.425   4.514  0.00  0.00    +0.044 C 
ENDBRANCH  12  16
BRANCH   1  23
ATOM     23  O   UNL     1       0.693  -0.477   1.160  0.00  0.00    -0.492 OA
BRANCH  23  25
ATOM     24  C   UNL     1      -0.019   1.526   0.010  0.00  0.00    +0.048 C 
ATOM     25  C   UNL     1       0.002  -0.004   0.002  0.00  0.00    +0.225 C 
ENDBRANCH  23  25
ENDBRANCH   1  23
BRANCH  13  26
ATOM     26  C   UNL     1       4.229  -8.538   5.100  0.00  0.00    +0.090 C 
BRANCH  26  27
ATOM     27  C   UNL     1       5.628  -8.653   4.490  0.00  0.00    -0.060 C 
BRANCH  27  28
ATOM     28  N   UNL     1       6.398  -9.671   5.218  0.00  0.00    +0.377 N 
ATOM     29  C   UNL     1       7.696  -9.866   4.559  0.00  0.00    -0.097 C 
ATOM     30  C   UNL     1       6.613  -9.225   6.601  0.00  0.00    -0.097 C 
ATOM     31  H   UNL     1       5.887 -10.541   5.220  0.00  0.00    -0.083 HD
ENDBRANCH  27  28
ENDBRANCH  26  27
ENDBRANCH  13  26
TORSDOF 6
