REMARK  Name = ZINC12315329
REMARK  12 active torsions:
REMARK  status: ('A' for Active; 'I' for Inactive)
REMARK    1  A    between atoms: C_1  and  C_2
REMARK    2  A    between atoms: C_2  and  C_3
REMARK    3  A    between atoms: C_2  and  C_4
REMARK    4  A    between atoms: C_2  and  C_30
REMARK    5  A    between atoms: C_4  and  N_5
REMARK    6  A    between atoms: C_6  and  C_8
REMARK    7  A    between atoms: C_8  and  C_9
REMARK    8  A    between atoms: C_16  and  C_17
REMARK    9  A    between atoms: C_16  and  N_64
REMARK   10  A    between atoms: C_17  and  C_18
REMARK   11  A    between atoms: C_17  and  C_24
REMARK   12  A    between atoms: C_30  and  O_31
REMARK                            x       y       z     vdW  Elec       q    Type
REMARK                         _______ _______ _______ _____ _____    ______ ____
ROOT
ATOM      1  C   UNL     1       1.762   2.288  -0.188  0.00  0.00    +0.028 C 
ATOM      2  C   UNL     1       1.766   3.781  -0.018  0.00  0.00    +0.200 C 
ATOM      3  O   UNL     1       2.818   4.375  -0.123  0.00  0.00    -0.278 OA
ATOM      4  N   UNL     1       0.658   4.481   0.245  0.00  0.00    -0.318 N 
ATOM      5  C   UNL     1      -0.662   3.867   0.356  0.00  0.00    +0.085 C 
ATOM      6  C   UNL     1      -0.522   2.361   0.581  0.00  0.00    -0.059 C 
ATOM      7  H   UNL     1       0.735   5.440   0.369  0.00  0.00    +0.149 HD
ATOM      8  N   UNL     1       0.387   1.826  -0.452  0.00  0.00    +0.389 N 
ATOM      9  H   UNL     1       0.088   2.170  -1.372  0.00  0.00    -0.081 HD
ENDROOT
BRANCH   1  10
ATOM     10  C   UNL     1       2.651   1.910  -1.375  0.00  0.00    +0.089 C 
BRANCH  10  12
ATOM     11  N   UNL     1       2.669   2.252  -3.824  0.00  0.00    -0.315 N 
ATOM     12  C   UNL     1       2.079   2.499  -2.638  0.00  0.00    +0.212 C 
ATOM     13  O   UNL     1       1.088   3.197  -2.587  0.00  0.00    -0.276 OA
ATOM     14  H   UNL     1       3.462   1.694  -3.865  0.00  0.00    +0.149 HD
BRANCH  11  15
ATOM     15  C   UNL     1       2.114   2.825  -5.053  0.00  0.00    +0.112 C 
BRANCH  15  17
ATOM     16  C   UNL     1       4.400   2.889  -6.057  0.00  0.00    +0.015 C 
ATOM     17  C   UNL     1       2.965   2.393  -6.248  0.00  0.00    +0.004 C 
ATOM     18  C   UNL     1       2.963   0.867  -6.351  0.00  0.00    +0.015 C 
BRANCH  17  19
ATOM     19  C   UNL     1       2.385   2.992  -7.531  0.00  0.00    +0.163 C 
BRANCH  19  20
ATOM     20  O   UNL     1       3.181   2.589  -8.647  0.00  0.00    -0.394 OA
ATOM     21  H   UNL     1       2.870   2.933  -9.496  0.00  0.00    +0.209 HD
ENDBRANCH  19  20
ENDBRANCH  17  19
ENDBRANCH  15  17
ENDBRANCH  11  15
ENDBRANCH  10  12
ENDBRANCH   1  10
BRANCH   8  22
ATOM     22  C   UNL     1       0.341   0.346  -0.453  0.00  0.00    -0.065 C 
BRANCH  22  23
ATOM     23  C   UNL     1       0.366  -0.185   0.981  0.00  0.00    +0.032 C 
BRANCH  23  24
ATOM     24  C   UNL     1       0.126  -1.673   0.970  0.00  0.00    -0.042 A 
ATOM     25  C   UNL     1       0.888  -2.490   0.157  0.00  0.00    +0.004 A 
ATOM     26  C   UNL     1       0.671  -3.855   0.150  0.00  0.00    +0.000 A 
ATOM     27  C   UNL     1      -0.315  -4.402   0.950  0.00  0.00    +0.000 A 
ATOM     28  C   UNL     1      -1.080  -3.585   1.760  0.00  0.00    +0.000 A 
ATOM     29  C   UNL     1      -0.860  -2.220   1.770  0.00  0.00    +0.004 A 
ENDBRANCH  23  24
BRANCH  23  30
ATOM     30  C   UNL     1       1.709   0.102   1.600  0.00  0.00    -0.042 A 
ATOM     31  C   UNL     1       2.862  -0.362   0.995  0.00  0.00    +0.004 A 
ATOM     32  C   UNL     1       4.095  -0.095   1.561  0.00  0.00    +0.000 A 
ATOM     33  C   UNL     1       4.175   0.629   2.736  0.00  0.00    +0.000 A 
ATOM     34  C   UNL     1       3.021   1.089   3.343  0.00  0.00    +0.000 A 
ATOM     35  C   UNL     1       1.788   0.825   2.776  0.00  0.00    +0.004 A 
ENDBRANCH  23  30
ENDBRANCH  22  23
ENDBRANCH   8  22
TORSDOF 10
