REMARK  Name = ZINC64048496
REMARK  9 active torsions:
REMARK  status: ('A' for Active; 'I' for Inactive)
REMARK    1  A    between atoms: C_1  and  C_2
REMARK    2  A    between atoms: C_4  and  C_12
REMARK    3  A    between atoms: C_12  and  C_14
REMARK    4  A    between atoms: C_14  and  C_16
REMARK    5  A    between atoms: C_14  and  O_17
REMARK    6  A    between atoms: O_17  and  C_18
REMARK    7  A    between atoms: C_18  and  C_20
REMARK    8  A    between atoms: C_20  and  C_21
REMARK    9  A    between atoms: C_21  and  N_22
REMARK                            x       y       z     vdW  Elec       q    Type
REMARK                         _______ _______ _______ _____ _____    ______ ____
ROOT
ATOM      1  O   UNL     1      -4.727  -0.331  -1.600  0.00  0.00    -0.454 OA
ENDROOT
BRANCH   1   2
ATOM      2  C   UNL     1      -3.787  -0.953  -0.721  0.00  0.00    +0.244 C 
ATOM      3  C   UNL     1      -3.714  -2.450  -1.030  0.00  0.00    +0.061 C 
BRANCH   2   4
ATOM      4  C   UNL     1      -2.428  -0.333  -0.919  0.00  0.00    +0.202 C 
ATOM      5  O   UNL     1      -2.209   0.349  -1.899  0.00  0.00    -0.288 OA
BRANCH   4   8
ATOM      6  C   UNL     1      -0.019   1.526   0.010  0.00  0.00    +0.035 C 
ATOM      7  C   UNL     1       0.002  -0.004   0.002  0.00  0.00    +0.111 C 
ATOM      8  C   UNL     1      -1.411  -0.544   0.036  0.00  0.00    +0.030 C 
ATOM      9  C   UNL     1      -1.496  -1.289   1.198  0.00  0.00    +0.007 A 
ATOM     10  C   UNL     1      -2.543  -2.035   1.788  0.00  0.00    +0.010 A 
ATOM     11  C   UNL     1      -2.344  -2.680   2.960  0.00  0.00    +0.001 A 
ATOM     12  C   UNL     1      -1.116  -2.646   3.640  0.00  0.00    +0.002 A 
ATOM     13  C   UNL     1      -0.053  -1.963   3.162  0.00  0.00    +0.026 A 
ATOM     14  C   UNL     1      -0.185  -1.232   1.891  0.00  0.00    +0.043 A 
ATOM     15  N   UNL     1       0.660  -0.506   1.212  0.00  0.00    -0.377 N 
ATOM     16  H   UNL     1       1.578  -0.327   1.468  0.00  0.00    +0.160 HD
ENDBRANCH   4   8
ENDBRANCH   2   4
ENDBRANCH   1   2
BRANCH   1  17
ATOM     17  C   UNL     1      -6.002  -0.272  -1.185  0.00  0.00    +0.309 C 
ATOM     18  O   UNL     1      -6.310  -0.732  -0.111  0.00  0.00    -0.251 OA
BRANCH  17  19
ATOM     19  C   UNL     1      -7.050   0.370  -2.058  0.00  0.00    +0.140 C 
BRANCH  19  20
ATOM     20  C   UNL     1      -8.408   0.307  -1.355  0.00  0.00    +0.129 C 
BRANCH  20  21
ATOM     21  N   UNL     1      -9.426   0.930  -2.204  0.00  0.00    -0.224 N 
ATOM     22  C   UNL     1      -9.747   2.241  -2.166  0.00  0.00    +0.247 C 
ATOM     23  O   UNL     1      -9.267   3.096  -1.452  0.00  0.00    -0.273 OA
ATOM     24  C   UNL     1     -10.828   2.417  -3.202  0.00  0.00    +0.113 C 
ATOM     25  C   UNL     1     -10.397   3.414  -4.286  0.00  0.00    +0.035 C 
ATOM     26  C   UNL     1     -11.710   4.149  -4.662  0.00  0.00    +0.003 C 
ATOM     27  C   UNL     1     -12.436   4.276  -3.299  0.00  0.00    +0.003 C 
ATOM     28  C   UNL     1     -12.118   2.950  -2.574  0.00  0.00    +0.035 C 
ATOM     29  N   UNL     1     -11.020   1.077  -3.761  0.00  0.00    -0.285 N 
ATOM     30  C   UNL     1     -10.150   0.272  -3.118  0.00  0.00    +0.309 C 
ATOM     31  O   UNL     1     -10.039  -0.918  -3.341  0.00  0.00    -0.252 OA
ATOM     32  H   UNL     1     -11.645   0.821  -4.457  0.00  0.00    +0.151 HD
ENDBRANCH  20  21
ENDBRANCH  19  20
ENDBRANCH  17  19
ENDBRANCH   1  17
TORSDOF 7
