REMARK  Name = ZINC35554707
REMARK  5 active torsions:
REMARK  status: ('A' for Active; 'I' for Inactive)
REMARK    1  A    between atoms: C_8  and  C_24
REMARK    2  A    between atoms: N_15  and  C_17
REMARK    3  A    between atoms: N_26  and  C_27
REMARK    4  A    between atoms: C_27  and  C_28
REMARK    5  A    between atoms: C_28  and  C_29
REMARK                            x       y       z     vdW  Elec       q    Type
REMARK                         _______ _______ _______ _____ _____    ______ ____
ROOT
ATOM      1  C   UNL     1      -0.035   1.344   0.001  0.00  0.00    +0.000 A 
ATOM      2  C   UNL     1       1.145   2.066   0.005  0.00  0.00    +0.002 A 
ATOM      3  C   UNL     1       2.356   1.401  -0.004  0.00  0.00    +0.023 A 
ATOM      4  C   UNL     1       2.381   0.013  -0.019  0.00  0.00    +0.033 A 
ATOM      5  C   UNL     1       1.202  -0.714  -0.031  0.00  0.00    -0.026 A 
ATOM      6  C   UNL     1      -0.008  -0.036  -0.016  0.00  0.00    +0.005 A 
ATOM      7  C   UNL     1       1.183  -2.219  -0.074  0.00  0.00    +0.051 C 
ATOM      8  C   UNL     1       2.546  -2.796   0.317  0.00  0.00    +0.101 C 
ATOM      9  C   UNL     1       3.625  -2.032  -0.449  0.00  0.00    +0.103 C 
ATOM     10  N   UNL     1       3.627  -0.650  -0.013  0.00  0.00    -0.323 N 
ATOM     11  C   UNL     1       4.785   0.077   0.478  0.00  0.00    +0.124 C 
ATOM     12  C   UNL     1       6.106  -0.577   0.121  0.00  0.00    +0.124 C 
ATOM     13  N   UNL     1       6.003  -2.029   0.206  0.00  0.00    -0.327 N 
ATOM     14  C   UNL     1       4.949  -2.736  -0.468  0.00  0.00    +0.128 C 
ENDROOT
BRANCH  13  15
ATOM     15  C   UNL     1       6.937  -2.742   0.962  0.00  0.00    +0.030 A 
ATOM     16  C   UNL     1       6.787  -4.111   1.141  0.00  0.00    +0.024 A 
ATOM     17  C   UNL     1       7.713  -4.814   1.888  0.00  0.00    +0.022 A 
ATOM     18  C   UNL     1       8.788  -4.155   2.458  0.00  0.00    +0.041 A 
ATOM     19  C   UNL     1       8.939  -2.791   2.281  0.00  0.00    +0.022 A 
ATOM     20  C   UNL     1       8.020  -2.084   1.530  0.00  0.00    +0.024 A 
ATOM     21 CL   UNL     1       9.948  -5.041   3.398  0.00  0.00    -0.084 Cl
ENDBRANCH  13  15
BRANCH   8  22
ATOM     22  C   UNL     1       2.761  -2.632   1.799  0.00  0.00    +0.218 C 
ATOM     23  O   UNL     1       3.702  -1.986   2.208  0.00  0.00    -0.275 OA
ATOM     24  N   UNL     1       1.907  -3.204   2.671  0.00  0.00    -0.315 N 
ATOM     25  H   UNL     1       1.154  -3.721   2.344  0.00  0.00    +0.149 HD
BRANCH  24  26
ATOM     26  C   UNL     1       2.116  -3.046   4.112  0.00  0.00    +0.109 C 
BRANCH  26  27
ATOM     27  C   UNL     1       1.014  -3.788   4.872  0.00  0.00    +0.061 C 
BRANCH  27  28
ATOM     28  C   UNL     1       1.229  -3.624   6.355  0.00  0.00    -0.009 A 
ATOM     29  C   UNL     1       0.753  -2.664   7.186  0.00  0.00    +0.011 A 
ATOM     30  C   UNL     1       1.083  -2.715   8.527  0.00  0.00    +0.008 A 
ATOM     31  C   UNL     1       1.873  -3.723   8.972  0.00  0.00    +0.045 A 
ATOM     32  S   UNL     1       2.170  -4.648   7.474  0.00  0.00    -0.102 S 
ENDBRANCH  27  28
ENDBRANCH  26  27
ENDBRANCH  24  26
ENDBRANCH   8  22
TORSDOF 5
