REMARK  Name = ZINC31056708
REMARK  9 active torsions:
REMARK  status: ('A' for Active; 'I' for Inactive)
REMARK    1  A    between atoms: C_1  and  C_2
REMARK    2  A    between atoms: C_2  and  C_4
REMARK    3  A    between atoms: C_2  and  N_10
REMARK    4  A    between atoms: C_11  and  C_13
REMARK    5  A    between atoms: C_18  and  N_19
REMARK    6  A    between atoms: C_20  and  C_22
REMARK    7  A    between atoms: N_27  and  C_29
REMARK    8  A    between atoms: C_29  and  C_30
REMARK    9  A    between atoms: C_32  and  C_35
REMARK                            x       y       z     vdW  Elec       q    Type
REMARK                         _______ _______ _______ _____ _____    ______ ____
ROOT
ATOM      1  N   UNL     1       1.154   3.462   0.006  0.00  0.00    -0.285 N 
ATOM      2  C   UNL     1      -0.021   4.114   0.116  0.00  0.00    +0.219 C 
ATOM      3  O   UNL     1      -1.045   3.492   0.300  0.00  0.00    -0.275 OA
ATOM      4  H   UNL     1       2.093   4.030  -0.075  0.00  0.00    +0.155 HD
ENDROOT
BRANCH   2   5
ATOM      5  C   UNL     1      -0.061   5.617   0.009  0.00  0.00    +0.059 C 
ATOM      6  C   UNL     1       0.803   6.231   1.114  0.00  0.00    +0.009 C 
ATOM      7  C   UNL     1       0.708   7.758   1.036  0.00  0.00    -0.018 C 
ATOM      8  C   UNL     1      -0.757   8.180   1.165  0.00  0.00    -0.078 C 
ATOM      9  N   UNL     1      -1.541   7.567   0.085  0.00  0.00    +0.386 N 
ATOM     10  C   UNL     1      -1.504   6.102   0.168  0.00  0.00    -0.065 C 
ATOM     11  H   UNL     1      -1.083   7.861  -0.871  0.00  0.00    -0.081 HD
BRANCH   9  12
ATOM     12  C   UNL     1      -2.925   8.060   0.095  0.00  0.00    +0.022 C 
BRANCH  12  13
ATOM     13  C   UNL     1      -2.937   9.530  -0.236  0.00  0.00    +0.211 A 
ATOM     14  N   UNL     1      -3.027  10.057  -1.431  0.00  0.00    -0.192 NA
ATOM     15  C   UNL     1      -3.002  11.397  -1.241  0.00  0.00    +0.209 A 
ATOM     16  N   UNL     1      -2.890  11.601   0.049  0.00  0.00    -0.056 NA
ATOM     17  O   UNL     1      -2.852  10.540   0.636  0.00  0.00    -0.340 OA
BRANCH  15  18
ATOM     18  C   UNL     1      -3.079  12.434  -2.290  0.00  0.00    +0.060 A 
ATOM     19  C   UNL     1      -3.053  13.798  -2.159  0.00  0.00    +0.019 A 
ATOM     20  C   UNL     1      -3.140  14.573  -3.293  0.00  0.00    +0.008 A 
ATOM     21  C   UNL     1      -3.250  13.966  -4.504  0.00  0.00    +0.046 A 
ATOM     22  S   UNL     1      -3.223  12.237  -4.059  0.00  0.00    -0.093 S 
ENDBRANCH  15  18
ENDBRANCH  12  13
ENDBRANCH   9  12
ENDBRANCH   2   5
BRANCH   1  28
ATOM     23  C   UNL     1       2.244   1.379   0.591  0.00  0.00    +0.058 A 
ATOM     24  C   UNL     1       2.258  -0.018   0.572  0.00  0.00    +0.015 A 
ATOM     25  C   UNL     1       1.228  -0.707  -0.031  0.00  0.00    +0.001 A 
ATOM     26  C   UNL     1       0.177  -0.021  -0.619  0.00  0.00    +0.002 A 
ATOM     27  C   UNL     1       0.150   1.359  -0.609  0.00  0.00    +0.024 A 
ATOM     28  C   UNL     1       1.179   2.070  -0.006  0.00  0.00    +0.046 A 
BRANCH  23  30
ATOM     29  N   UNL     1       4.312   1.458   1.895  0.00  0.00    -0.305 N 
ATOM     30  C   UNL     1       3.343   2.123   1.235  0.00  0.00    +0.246 C 
ATOM     31  O   UNL     1       3.375   3.337   1.171  0.00  0.00    -0.270 OA
ATOM     32  H   UNL     1       4.283   0.359   1.952  0.00  0.00    +0.150 HD
BRANCH  29  34
ATOM     33  C   UNL     1       4.965   2.646   3.930  0.00  0.00    +0.033 C 
ATOM     34  C   UNL     1       5.403   2.196   2.534  0.00  0.00    +0.100 C 
BRANCH  34  35
ATOM     35  C   UNL     1       6.613   1.305   2.650  0.00  0.00    -0.027 A 
ATOM     36  C   UNL     1       6.461  -0.024   2.999  0.00  0.00    +0.005 A 
ATOM     37  C   UNL     1       7.571  -0.842   3.101  0.00  0.00    +0.000 A 
ATOM     38  C   UNL     1       8.832  -0.329   2.864  0.00  0.00    +0.000 A 
ATOM     39  C   UNL     1       8.984   1.001   2.520  0.00  0.00    +0.000 A 
ATOM     40  C   UNL     1       7.874   1.818   2.413  0.00  0.00    +0.005 A 
ENDBRANCH  34  35
ENDBRANCH  29  34
ENDBRANCH  23  30
ENDBRANCH   1  28
TORSDOF 8
