REMARK  Name = ZINC00663548
REMARK  6 active torsions:
REMARK  status: ('A' for Active; 'I' for Inactive)
REMARK    1  A    between atoms: C_15  and  C_23
REMARK    2  A    between atoms: C_16  and  N_22
REMARK    3  A    between atoms: C_17  and  C_18
REMARK    4  A    between atoms: C_17  and  C_20
REMARK    5  A    between atoms: N_27  and  C_28
REMARK    6  A    between atoms: C_28  and  C_29
REMARK                            x       y       z     vdW  Elec       q    Type
REMARK                         _______ _______ _______ _____ _____    ______ ____
ROOT
ATOM      1  C   UNL     1      -1.169   1.065  -5.603  0.00  0.00    +0.000 A 
ATOM      2  C   UNL     1      -0.219   0.077  -5.761  0.00  0.00    +0.002 A 
ATOM      3  C   UNL     1      -0.002  -0.893  -4.795  0.00  0.00    +0.024 A 
ATOM      4  C   UNL     1      -0.789  -0.837  -3.644  0.00  0.00    +0.041 A 
ATOM      5  C   UNL     1      -1.751   0.170  -3.498  0.00  0.00    -0.008 A 
ATOM      6  C   UNL     1      -1.961   1.133  -4.461  0.00  0.00    +0.006 A 
ATOM      7  C   UNL     1      -2.403  -0.063  -2.171  0.00  0.00    +0.117 C 
ATOM      8  C   UNL     1      -2.198   1.128  -1.242  0.00  0.00    +0.042 C 
ATOM      9  C   UNL     1      -0.762   1.597  -1.221  0.00  0.00    +0.010 C 
ATOM     10  C   UNL     1      -0.013   1.086   0.008  0.00  0.00    +0.005 C 
ATOM     11  C   UNL     1      -0.742   1.586   1.262  0.00  0.00    +0.027 C 
ATOM     12  C   UNL     1      -2.135   1.010   1.243  0.00  0.00    -0.022 C 
ATOM     13  C   UNL     1      -2.763   0.788   0.105  0.00  0.00    -0.028 C 
ATOM     14  C   UNL     1      -4.090   0.119   0.131  0.00  0.00    +0.074 C 
ATOM     15  C   UNL     1      -4.594  -0.412  -1.012  0.00  0.00    +0.055 C 
ATOM     16  C   UNL     1      -3.893  -0.344  -2.336  0.00  0.00    +0.199 C 
ATOM     17  C   UNL     1      -1.701  -1.285  -1.618  0.00  0.00    +0.234 C 
ATOM     18  O   UNL     1      -1.918  -1.821  -0.552  0.00  0.00    -0.274 OA
ATOM     19  N   UNL     1      -0.786  -1.664  -2.535  0.00  0.00    -0.266 N 
ENDROOT
BRANCH  15  20
ATOM     20  N   UNL     1      -5.804  -1.044  -0.952  0.00  0.00    -0.358 N 
ATOM     21  H   UNL     1      -6.240  -1.485  -1.861  0.00  0.00    +0.142 HD
ATOM     22  H   UNL     1      -6.343  -1.111   0.004  0.00  0.00    +0.142 HD
ENDBRANCH  15  20
BRANCH  16  23
ATOM     23  C   UNL     1      -4.065  -1.627  -3.037  0.00  0.00    +0.092 C 
ATOM     24  N   UNL     1      -4.198  -2.617  -3.577  0.00  0.00    -0.194 NA
ENDBRANCH  16  23
BRANCH  16  25
ATOM     25  C   UNL     1      -4.496   0.729  -3.143  0.00  0.00    +0.092 C 
ATOM     26  N   UNL     1      -4.961   1.556  -3.767  0.00  0.00    -0.194 NA
ENDBRANCH  16  25
BRANCH  14  27
ATOM     27  C   UNL     1      -4.832   0.035   1.353  0.00  0.00    +0.101 C 
ATOM     28  N   UNL     1      -5.420  -0.032   2.322  0.00  0.00    -0.191 NA
ENDBRANCH  14  27
BRANCH  19  29
ATOM     29  C   UNL     1       0.105  -2.816  -2.376  0.00  0.00    +0.148 C 
BRANCH  29  30
ATOM     30  C   UNL     1       1.378  -2.376  -1.701  0.00  0.00    -0.030 A 
ATOM     31  C   UNL     1       2.452  -1.951  -2.462  0.00  0.00    +0.006 A 
ATOM     32  C   UNL     1       3.618  -1.542  -1.843  0.00  0.00    +0.020 A 
ATOM     33  C   UNL     1       3.715  -1.569  -0.463  0.00  0.00    +0.041 A 
ATOM     34  C   UNL     1       2.643  -2.000   0.297  0.00  0.00    +0.020 A 
ATOM     35  C   UNL     1       1.475  -2.403  -0.322  0.00  0.00    +0.006 A 
ATOM     36 CL   UNL     1       5.183  -1.063   0.314  0.00  0.00    -0.084 Cl
ENDBRANCH  29  30
ENDBRANCH  19  29
TORSDOF 6
