REMARK  Name = ZINC38605249
REMARK  13 active torsions:
REMARK  status: ('A' for Active; 'I' for Inactive)
REMARK    1  A    between atoms: C_1  and  C_2
REMARK    2  A    between atoms: C_2  and  C_3
REMARK    3  A    between atoms: C_3  and  C_5
REMARK    4  A    between atoms: C_3  and  N_6
REMARK    5  A    between atoms: C_10  and  C_11
REMARK    6  A    between atoms: C_13  and  O_21
REMARK    7  A    between atoms: C_14  and  O_19
REMARK    8  A    between atoms: C_15  and  O_17
REMARK    9  A    between atoms: O_17  and  C_18
REMARK   10  A    between atoms: O_19  and  C_20
REMARK   11  A    between atoms: O_21  and  C_22
REMARK   12  A    between atoms: C_23  and  C_29
REMARK   13  A    between atoms: C_24  and  C_27
REMARK                            x       y       z     vdW  Elec       q    Type
REMARK                         _______ _______ _______ _____ _____    ______ ____
ROOT
ATOM      1  N   UNL     1       2.323  -0.349   1.051  0.00  0.00    -0.231 N 
ATOM      2  C   UNL     1       2.801   0.584   1.893  0.00  0.00    +0.254 C 
ATOM      3  O   UNL     1       2.072   1.474   2.288  0.00  0.00    -0.270 OA
ATOM      4  C   UNL     1       4.203   0.533   2.340  0.00  0.00    +0.042 C 
ATOM      5  C   UNL     1       4.699   1.496   3.211  0.00  0.00    +0.021 C 
ATOM      6  C   UNL     1       5.037  -0.509   1.872  0.00  0.00    -0.016 C 
ATOM      7  C   UNL     1       4.506  -1.450   1.005  0.00  0.00    +0.117 C 
ATOM      8  C   UNL     1       3.101  -1.349   0.601  0.00  0.00    +0.264 C 
ATOM      9  O   UNL     1       2.633  -2.179  -0.157  0.00  0.00    -0.269 OA
ATOM     10  C   UNL     1       6.478  -0.593   2.308  0.00  0.00    +0.046 C 
ENDROOT
BRANCH   5  11
ATOM     11  C   UNL     1       6.088   1.774   3.243  0.00  0.00    -0.017 A 
ATOM     12  C   UNL     1       6.773   2.081   2.055  0.00  0.00    +0.057 A 
ATOM     13  C   UNL     1       8.125   2.351   2.091  0.00  0.00    +0.166 A 
ATOM     14  C   UNL     1       8.813   2.319   3.304  0.00  0.00    +0.204 A 
ATOM     15  C   UNL     1       8.138   2.015   4.487  0.00  0.00    +0.166 A 
ATOM     16  C   UNL     1       6.784   1.749   4.462  0.00  0.00    +0.057 A 
BRANCH  15  17
ATOM     17  O   UNL     1       8.814   1.986   5.666  0.00  0.00    -0.491 OA
ATOM     18  C   UNL     1       8.061   1.667   6.838  0.00  0.00    +0.277 C 
ENDBRANCH  15  17
BRANCH  14  19
ATOM     19  O   UNL     1      10.144   2.585   3.335  0.00  0.00    -0.488 OA
ATOM     20  C   UNL     1      10.529   3.948   3.523  0.00  0.00    +0.277 C 
ENDBRANCH  14  19
BRANCH  13  21
ATOM     21  O   UNL     1       8.789   2.648   0.942  0.00  0.00    -0.491 OA
ATOM     22  C   UNL     1       8.005   2.776  -0.246  0.00  0.00    +0.277 C 
ENDBRANCH  13  21
ENDBRANCH   5  11
BRANCH   1  23
ATOM     23  C   UNL     1       0.925  -0.278   0.620  0.00  0.00    +0.081 C 
ATOM     24  C   UNL     1       0.193  -1.551   1.051  0.00  0.00    +0.028 C 
BRANCH  23  26
ATOM     25  C   UNL     1       1.489   1.186  -1.325  0.00  0.00    +0.006 C 
ATOM     26  C   UNL     1       0.867  -0.147  -0.903  0.00  0.00    +0.019 C 
ENDBRANCH  23  26
ENDBRANCH   1  23
BRANCH   7  27
ATOM     27  C   UNL     1       5.323  -2.518   0.512  0.00  0.00    +0.105 C 
ATOM     28  N   UNL     1       5.971  -3.364   0.121  0.00  0.00    -0.191 NA
ENDBRANCH   7  27
TORSDOF 7
