REMARK  Name = ZINC00971425
REMARK  9 active torsions:
REMARK  status: ('A' for Active; 'I' for Inactive)
REMARK    1  A    between atoms: C_1  and  C_2
REMARK    2  A    between atoms: C_2  and  C_3
REMARK    3  A    between atoms: C_2  and  C_4
REMARK    4  A    between atoms: C_10  and  C_18
REMARK    5  A    between atoms: C_12  and  C_16
REMARK    6  A    between atoms: C_13  and  N_15
REMARK    7  A    between atoms: C_23  and  O_24
REMARK    8  A    between atoms: O_24  and  C_25
REMARK    9  A    between atoms: C_25  and  C_26
REMARK                            x       y       z     vdW  Elec       q    Type
REMARK                         _______ _______ _______ _____ _____    ______ ____
ROOT
ATOM      1  C   UNL     1      -1.412  -0.526   0.013  0.00  0.00    +0.057 C 
ATOM      2  N   UNL     1      -2.497   0.172   0.111  0.00  0.00    -0.154 NA
ATOM      3  N   UNL     1      -3.646  -0.617   0.060  0.00  0.00    -0.115 NA
ATOM      4  C   UNL     1      -3.370  -1.857  -0.119  0.00  0.00    +0.227 C 
ATOM      5  C   UNL     1      -1.847  -1.968  -0.096  0.00  0.00    +0.136 C 
ATOM      6  C   UNL     1      -1.454  -2.567  -1.451  0.00  0.00    +0.086 C 
ATOM      7  C   UNL     1      -2.416  -3.675  -1.790  0.00  0.00    +0.095 C 
ATOM      8  C   UNL     1      -3.646  -3.808  -1.252  0.00  0.00    +0.200 C 
ATOM      9  O   UNL     1      -4.141  -2.947  -0.320  0.00  0.00    -0.425 OA
ENDROOT
BRANCH   6  10
ATOM     10  C   UNL     1      -0.053  -3.117  -1.372  0.00  0.00    +0.004 A 
ATOM     11  C   UNL     1       0.246  -4.121  -0.471  0.00  0.00    +0.008 A 
ATOM     12  C   UNL     1       1.531  -4.625  -0.398  0.00  0.00    +0.001 A 
ATOM     13  C   UNL     1       2.520  -4.128  -1.227  0.00  0.00    +0.004 A 
ATOM     14  C   UNL     1       2.225  -3.125  -2.130  0.00  0.00    +0.046 A 
ATOM     15  C   UNL     1       0.935  -2.620  -2.209  0.00  0.00    +0.125 A 
BRANCH  15  16
ATOM     16  O   UNL     1       0.642  -1.637  -3.100  0.00  0.00    -0.487 OA
BRANCH  16  17
ATOM     17  C   UNL     1       1.710  -1.174  -3.930  0.00  0.00    +0.266 C 
BRANCH  17  18
ATOM     18  C   UNL     1       1.200  -0.093  -4.847  0.00  0.00    +0.008 A 
ATOM     19  C   UNL     1      -0.124   0.299  -4.785  0.00  0.00    +0.008 A 
ATOM     20  C   UNL     1      -0.592   1.291  -5.626  0.00  0.00    +0.000 A 
ATOM     21  C   UNL     1       0.264   1.892  -6.531  0.00  0.00    +0.001 A 
ATOM     22  C   UNL     1       1.588   1.501  -6.594  0.00  0.00    +0.020 A 
ATOM     23  C   UNL     1       2.058   0.512  -5.748  0.00  0.00    +0.047 A 
ATOM     24 CL   UNL     1       3.723   0.025  -5.822  0.00  0.00    -0.083 Cl
ENDBRANCH  17  18
ENDBRANCH  16  17
ENDBRANCH  15  16
ENDBRANCH   6  10
BRANCH   1  26
ATOM     25  C   UNL     1      -0.019   1.526   0.010  0.00  0.00    +0.013 C 
ATOM     26  C   UNL     1       0.002  -0.004   0.002  0.00  0.00    +0.030 C 
ATOM     27  C   UNL     1       0.742  -0.511   1.242  0.00  0.00    +0.013 C 
ENDBRANCH   1  26
BRANCH   8  28
ATOM     28  N   UNL     1      -4.431  -4.859  -1.657  0.00  0.00    -0.328 N 
ATOM     29  H   UNL     1      -4.097  -5.486  -2.317  0.00  0.00    +0.145 HD
ATOM     30  H   UNL     1      -5.318  -4.973  -1.284  0.00  0.00    +0.145 HD
ENDBRANCH   8  28
BRANCH   7  31
ATOM     31  C   UNL     1      -1.996  -4.655  -2.747  0.00  0.00    +0.100 C 
ATOM     32  N   UNL     1      -1.664  -5.431  -3.506  0.00  0.00    -0.191 NA
ENDBRANCH   7  31
TORSDOF 7
