REMARK  Name = ZINC13114644
REMARK  9 active torsions:
REMARK  status: ('A' for Active; 'I' for Inactive)
REMARK    1  A    between atoms: C_1  and  C_2
REMARK    2  A    between atoms: C_3  and  C_33
REMARK    3  A    between atoms: N_4  and  C_27
REMARK    4  A    between atoms: C_5  and  N_9
REMARK    5  A    between atoms: C_6  and  C_7
REMARK    6  A    between atoms: C_10  and  C_12
REMARK    7  A    between atoms: C_12  and  N_58
REMARK    8  A    between atoms: C_16  and  C_18
REMARK    9  A    between atoms: C_27  and  C_28
REMARK                            x       y       z     vdW  Elec       q    Type
REMARK                         _______ _______ _______ _____ _____    ______ ____
ROOT
ATOM      1  N   UNL     1      -0.252  -4.121   3.502  0.00  0.00    -0.272 N 
ATOM      2  C   UNL     1      -0.238  -4.737   2.304  0.00  0.00    +0.202 C 
ATOM      3  O   UNL     1      -0.652  -5.872   2.201  0.00  0.00    -0.278 OA
ATOM      4  H   UNL     1       0.147  -3.242   3.600  0.00  0.00    +0.156 HD
ENDROOT
BRANCH   1   9
ATOM      5  C   UNL     1      -1.202  -7.245   7.358  0.00  0.00    +0.047 C 
ATOM      6  C   UNL     1      -1.294  -6.135   6.343  0.00  0.00    -0.011 A 
ATOM      7  C   UNL     1      -2.269  -5.217   6.245  0.00  0.00    +0.022 A 
ATOM      8  N   UNL     1      -1.994  -4.376   5.200  0.00  0.00    -0.327 N 
ATOM      9  C   UNL     1      -0.835  -4.743   4.596  0.00  0.00    +0.124 A 
ATOM     10  C   UNL     1      -0.335  -5.849   5.269  0.00  0.00    +0.095 A 
ATOM     11  C   UNL     1      -3.473  -5.123   7.147  0.00  0.00    +0.064 C 
BRANCH  10  12
ATOM     12  C   UNL     1       0.871  -6.564   4.977  0.00  0.00    +0.103 C 
ATOM     13  N   UNL     1       1.827  -7.131   4.744  0.00  0.00    -0.191 NA
ENDBRANCH  10  12
BRANCH   8  14
ATOM     14  C   UNL     1      -2.832  -3.245   4.791  0.00  0.00    +0.165 C 
BRANCH  14  15
ATOM     15  C   UNL     1      -3.821  -3.703   3.751  0.00  0.00    +0.009 A 
ATOM     16  C   UNL     1      -5.071  -4.198   3.921  0.00  0.00    +0.013 A 
ATOM     17  C   UNL     1      -5.808  -4.557   2.808  0.00  0.00    +0.008 A 
ATOM     18  C   UNL     1      -5.258  -4.403   1.579  0.00  0.00    +0.045 A 
ATOM     19  S   UNL     1      -3.654  -3.726   1.974  0.00  0.00    -0.100 S 
ENDBRANCH  14  15
ENDBRANCH   8  14
ENDBRANCH   1   9
BRANCH   2  20
ATOM     20  C   UNL     1       0.291  -4.015   1.091  0.00  0.00    +0.020 C 
BRANCH  20  25
ATOM     21  C   UNL     1      -1.212  -5.112  -0.471  0.00  0.00    -0.077 C 
ATOM     22  C   UNL     1      -1.181  -5.237  -2.014  0.00  0.00    -0.020 C 
ATOM     23  C   UNL     1      -0.092  -4.200  -2.392  0.00  0.00    -0.010 C 
ATOM     24  C   UNL     1       0.919  -4.320  -1.232  0.00  0.00    -0.011 C 
ATOM     25  N   UNL     1       0.201  -4.911  -0.091  0.00  0.00    +0.391 N 
ATOM     26  H   UNL     1       0.622  -5.818   0.142  0.00  0.00    -0.080 HD
BRANCH  24  27
ATOM     27  C   UNL     1       1.452  -2.956  -0.874  0.00  0.00    +0.066 A 
ATOM     28  N   UNL     1       0.841  -1.987  -0.253  0.00  0.00    -0.246 NA
ATOM     29  C   UNL     1       1.437  -0.805   0.009  0.00  0.00    +0.078 A 
ATOM     30  C   UNL     1       0.912   0.330   0.666  0.00  0.00    +0.029 A 
ATOM     31  C   UNL     1       1.672   1.445   0.841  0.00  0.00    +0.002 A 
ATOM     32  C   UNL     1       2.981   1.512   0.385  0.00  0.00    +0.001 A 
ATOM     33  C   UNL     1       3.531   0.422  -0.263  0.00  0.00    +0.017 A 
ATOM     34  C   UNL     1       2.772  -0.708  -0.444  0.00  0.00    +0.039 A 
ATOM     35  S   UNL     1       3.028  -2.300  -1.187  0.00  0.00    -0.074 S 
ENDBRANCH  24  27
ENDBRANCH  20  25
ENDBRANCH   2  20
TORSDOF 7
