REMARK  Name = ZINC16363953
REMARK  11 active torsions:
REMARK  status: ('A' for Active; 'I' for Inactive)
REMARK    1  A    between atoms: C_1  and  N_2
REMARK    2  A    between atoms: C_6  and  C_13
REMARK    3  A    between atoms: N_9  and  C_12
REMARK    4  A    between atoms: C_13  and  C_15
REMARK    5  A    between atoms: C_13  and  O_30
REMARK    6  A    between atoms: C_15  and  O_16
REMARK    7  A    between atoms: O_16  and  C_17
REMARK    8  A    between atoms: C_20  and  C_23
REMARK    9  A    between atoms: C_23  and  N_54
REMARK   10  A    between atoms: C_24  and  C_25
REMARK   11  A    between atoms: C_24  and  N_54
REMARK                            x       y       z     vdW  Elec       q    Type
REMARK                         _______ _______ _______ _____ _____    ______ ____
ROOT
ATOM      1  O   UNL     1      -3.927  -3.367   6.806  0.00  0.00    -0.489 OA
ENDROOT
BRANCH   1   2
ATOM      2  C   UNL     1      -3.618  -3.093   5.511  0.00  0.00    +0.121 A 
ATOM      3  C   UNL     1      -4.229  -2.030   4.862  0.00  0.00    +0.046 A 
ATOM      4  C   UNL     1      -3.913  -1.753   3.546  0.00  0.00    +0.005 A 
ATOM      5  C   UNL     1      -2.989  -2.534   2.876  0.00  0.00    -0.064 A 
ATOM      6  C   UNL     1      -2.383  -3.598   3.520  0.00  0.00    +0.005 A 
ATOM      7  C   UNL     1      -2.691  -3.875   4.838  0.00  0.00    +0.046 A 
BRANCH   5   8
ATOM      8  C   UNL     1      -2.646  -2.230   1.441  0.00  0.00    -0.046 C 
BRANCH   8   9
ATOM      9  N   UNL     1      -1.513  -1.285   1.404  0.00  0.00    +0.385 N 
ATOM     10  H   UNL     1      -0.704  -1.709   1.873  0.00  0.00    -0.085 HD
ATOM     11  H   UNL     1      -1.778  -0.421   1.890  0.00  0.00    -0.085 HD
BRANCH   9  12
ATOM     12  C   UNL     1      -1.155  -0.969   0.008  0.00  0.00    -0.039 C 
BRANCH  12  13
ATOM     13  C   UNL     1       0.002  -0.004   0.002  0.00  0.00    -0.027 A 
ATOM     14  C   UNL     1       1.332  -0.266  -0.012  0.00  0.00    +0.009 A 
ATOM     15  C   UNL     1       2.223   0.790  -0.015  0.00  0.00    +0.008 A 
ATOM     16  C   UNL     1       1.742   2.057  -0.004  0.00  0.00    +0.045 A 
ATOM     17  S   UNL     1      -0.022   1.781   0.012  0.00  0.00    -0.104 S 
ENDBRANCH  12  13
ENDBRANCH   9  12
ENDBRANCH   8   9
ENDBRANCH   5   8
ENDBRANCH   1   2
BRANCH   1  18
ATOM     18  C   UNL     1      -3.259  -4.477   7.411  0.00  0.00    +0.265 C 
BRANCH  18  19
ATOM     19  C   UNL     1      -3.732  -4.629   8.858  0.00  0.00    +0.182 C 
BRANCH  19  25
ATOM     20  C   UNL     1      -0.578  -9.959  11.591  0.00  0.00    +0.154 C 
ATOM     21  N   UNL     1      -0.600  -8.496  11.515  0.00  0.00    -0.295 N 
ATOM     22  C   UNL     1      -1.494  -7.731  10.770  0.00  0.00    +0.070 A 
ATOM     23  C   UNL     1      -2.555  -8.052   9.935  0.00  0.00    +0.028 A 
ATOM     24  C   UNL     1      -3.277  -7.045   9.325  0.00  0.00    +0.008 A 
ATOM     25  C   UNL     1      -2.941  -5.719   9.534  0.00  0.00    -0.014 A 
ATOM     26  C   UNL     1      -1.886  -5.390  10.363  0.00  0.00    +0.034 A 
ATOM     27  C   UNL     1      -1.158  -6.393  10.984  0.00  0.00    +0.070 A 
ATOM     28  N   UNL     1      -0.070  -6.386  11.853  0.00  0.00    -0.295 N 
ATOM     29  C   UNL     1       0.242  -7.661  12.153  0.00  0.00    +0.330 A 
ATOM     30  O   UNL     1       1.147  -8.007  12.890  0.00  0.00    -0.246 OA
ATOM     31  C   UNL     1       0.619  -5.194  12.355  0.00  0.00    +0.154 C 
ENDBRANCH  19  25
BRANCH  19  32
ATOM     32  O   UNL     1      -5.120  -4.969   8.873  0.00  0.00    -0.384 OA
ATOM     33  H   UNL     1      -5.327  -5.796   8.416  0.00  0.00    +0.210 HD
ENDBRANCH  19  32
ENDBRANCH  18  19
ENDBRANCH   1  18
TORSDOF 9
