REMARK  Name = ZINC39531568
REMARK  7 active torsions:
REMARK  status: ('A' for Active; 'I' for Inactive)
REMARK    1  A    between atoms: C_7  and  C_10
REMARK    2  A    between atoms: C_10  and  C_11
REMARK    3  A    between atoms: C_11  and  C_12
REMARK    4  A    between atoms: C_21  and  C_25
REMARK    5  A    between atoms: C_25  and  C_26
REMARK    6  A    between atoms: C_26  and  N_27
REMARK    7  A    between atoms: C_28  and  C_30
REMARK                            x       y       z     vdW  Elec       q    Type
REMARK                         _______ _______ _______ _____ _____    ______ ____
ROOT
ATOM      1  C   UNL     1      -4.978   5.087  -1.361  0.00  0.00    +0.216 C 
ATOM      2  O   UNL     1      -5.271   5.614  -0.309  0.00  0.00    -0.276 OA
ATOM      3  N   UNL     1      -5.135   5.758  -2.519  0.00  0.00    -0.300 N 
ATOM      4  C   UNL     1      -5.654   7.108  -2.429  0.00  0.00    +0.111 C 
ATOM      5  C   UNL     1      -7.173   7.100  -2.558  0.00  0.00    +0.062 C 
ATOM      6  C   UNL     1      -7.527   7.087  -4.057  0.00  0.00    +0.178 C 
ATOM      7  N   UNL     1      -7.369   8.414  -4.656  0.00  0.00    -0.247 N 
ATOM      8  N   UNL     1      -6.622   8.192  -5.824  0.00  0.00    -0.175 NA
ATOM      9  C   UNL     1      -6.230   6.976  -5.901  0.00  0.00    +0.118 C 
ATOM     10  N   UNL     1      -6.625   6.219  -4.786  0.00  0.00    -0.296 N 
ATOM     11  C   UNL     1      -6.078   4.899  -4.540  0.00  0.00    +0.127 C 
ATOM     12  C   UNL     1      -4.764   5.065  -3.733  0.00  0.00    +0.126 C 
ATOM     13  H   UNL     1      -7.705   9.259  -4.320  0.00  0.00    +0.170 HD
ENDROOT
BRANCH   1  14
ATOM     14  C   UNL     1      -4.437   3.680  -1.374  0.00  0.00    +0.100 C 
BRANCH  14  15
ATOM     15  C   UNL     1      -4.358   3.151   0.060  0.00  0.00    +0.046 C 
BRANCH  15  22
ATOM     16  C   UNL     1      -0.017   1.384   0.010  0.00  0.00    +0.001 A 
ATOM     17  C   UNL     1       0.002  -0.004   0.002  0.00  0.00    +0.002 A 
ATOM     18  C   UNL     1      -1.173  -0.723   0.009  0.00  0.00    +0.026 A 
ATOM     19  C   UNL     1      -2.392  -0.053   0.024  0.00  0.00    +0.047 A 
ATOM     20  N   UNL     1      -3.704  -0.472   0.034  0.00  0.00    -0.360 N 
ATOM     21  C   UNL     1      -4.539   0.612   0.047  0.00  0.00    +0.087 A 
ATOM     22  C   UNL     1      -3.818   1.744   0.047  0.00  0.00    -0.022 A 
ATOM     23  C   UNL     1      -2.406   1.353   0.032  0.00  0.00    +0.003 A 
ATOM     24  C   UNL     1      -1.203   2.062   0.030  0.00  0.00    +0.010 A 
ATOM     25  H   UNL     1      -3.993  -1.398   0.030  0.00  0.00    +0.165 HD
ENDBRANCH  15  22
ENDBRANCH  14  15
ENDBRANCH   1  14
BRANCH   9  26
ATOM     26  C   UNL     1      -5.434   6.421  -7.055  0.00  0.00    +0.092 C 
BRANCH  26  27
ATOM     27  C   UNL     1      -5.185   7.529  -8.081  0.00  0.00    +0.111 C 
BRANCH  27  28
ATOM     28  N   UNL     1      -4.411   6.990  -9.202  0.00  0.00    -0.315 N 
ATOM     29  C   UNL     1      -4.072   7.790 -10.233  0.00  0.00    +0.216 C 
ATOM     30  O   UNL     1      -4.407   8.955 -10.232  0.00  0.00    -0.276 OA
ATOM     31  H   UNL     1      -4.143   6.058  -9.203  0.00  0.00    +0.149 HD
BRANCH  29  32
ATOM     32  C   UNL     1      -3.276   7.236 -11.386  0.00  0.00    +0.075 C 
ATOM     33  C   UNL     1      -1.936   6.705 -10.873  0.00  0.00    +0.013 C 
ATOM     34  C   UNL     1      -1.128   6.142 -12.044  0.00  0.00    +0.001 C 
ATOM     35  C   UNL     1      -0.878   7.250 -13.070  0.00  0.00    +0.000 C 
ATOM     36  C   UNL     1      -2.219   7.780 -13.584  0.00  0.00    +0.001 C 
ATOM     37  C   UNL     1      -3.027   8.343 -12.412  0.00  0.00    +0.013 C 
ENDBRANCH  29  32
ENDBRANCH  27  28
ENDBRANCH  26  27
ENDBRANCH   9  26
TORSDOF 7
