REMARK  Name = ZINC05490066
REMARK  6 active torsions:
REMARK  status: ('A' for Active; 'I' for Inactive)
REMARK    1  A    between atoms: C_1  and  S_2
REMARK    2  A    between atoms: S_2  and  C_3
REMARK    3  A    between atoms: C_6  and  C_9
REMARK    4  A    between atoms: C_12  and  C_23
REMARK    5  A    between atoms: C_18  and  N_22
REMARK    6  A    between atoms: C_19  and  C_20
REMARK                            x       y       z     vdW  Elec       q    Type
REMARK                         _______ _______ _______ _____ _____    ______ ____
ROOT
ATOM      1  C   UNL     1       3.040  -1.433   5.122  0.00  0.00    +0.102 C 
ATOM      2  C   UNL     1       4.175  -2.345   4.736  0.00  0.00    +0.054 A 
ATOM      3  C   UNL     1       5.361  -2.043   4.059  0.00  0.00    +0.102 A 
ATOM      4  N   UNL     1       6.056  -3.159   3.942  0.00  0.00    -0.171 NA
ATOM      5  N   UNL     1       5.329  -4.199   4.541  0.00  0.00    -0.246 N 
ATOM      6  H   UNL     1       5.603  -5.127   4.599  0.00  0.00    +0.192 HD
ATOM      7  C   UNL     1       4.180  -3.679   5.022  0.00  0.00    +0.223 A 
ATOM      8  O   UNL     1       3.164  -4.290   5.681  0.00  0.00    -0.423 OA
ATOM      9  C   UNL     1       2.258  -3.505   6.298  0.00  0.00    +0.200 C 
ATOM     10  C   UNL     1       2.147  -2.174   6.087  0.00  0.00    +0.098 C 
ENDROOT
BRANCH   3  11
ATOM     11  C   UNL     1       5.767  -0.705   3.562  0.00  0.00    +0.021 A 
ATOM     12  C   UNL     1       5.678   0.407   4.396  0.00  0.00    +0.011 A 
ATOM     13  C   UNL     1       6.057   1.649   3.928  0.00  0.00    +0.001 A 
ATOM     14  C   UNL     1       6.524   1.792   2.634  0.00  0.00    +0.001 A 
ATOM     15  C   UNL     1       6.614   0.692   1.801  0.00  0.00    +0.020 A 
ATOM     16  C   UNL     1       6.243  -0.558   2.260  0.00  0.00    +0.050 A 
ATOM     17 CL   UNL     1       6.363  -1.939   1.216  0.00  0.00    -0.083 Cl
ENDBRANCH   3  11
BRANCH   1  21
ATOM     18  C   UNL     1       0.814  -0.345   1.640  0.00  0.00    +0.008 A 
ATOM     19  C   UNL     1       1.369   0.640   2.447  0.00  0.00    +0.015 A 
ATOM     20  C   UNL     1       2.088   0.285   3.571  0.00  0.00    +0.005 A 
ATOM     21  C   UNL     1       2.255  -1.049   3.895  0.00  0.00    -0.034 A 
ATOM     22  C   UNL     1       1.704  -2.033   3.093  0.00  0.00    +0.005 A 
ATOM     23  C   UNL     1       0.979  -1.685   1.971  0.00  0.00    +0.015 A 
BRANCH  18  25
ATOM     24  C   UNL     1      -0.043   1.916   0.193  0.00  0.00    +0.090 C 
ATOM     25  S   UNL     1      -0.104   0.103   0.204  0.00  0.00    -0.129 S 
ENDBRANCH  18  25
ENDBRANCH   1  21
BRANCH   9  26
ATOM     26  N   UNL     1       1.396  -4.090   7.192  0.00  0.00    -0.328 N 
ATOM     27  H   UNL     1       1.451  -5.043   7.365  0.00  0.00    +0.145 HD
ATOM     28  H   UNL     1       0.733  -3.551   7.651  0.00  0.00    +0.145 HD
ENDBRANCH   9  26
BRANCH  10  29
ATOM     29  C   UNL     1       1.148  -1.440   6.804  0.00  0.00    +0.101 C 
ATOM     30  N   UNL     1       0.355  -0.859   7.373  0.00  0.00    -0.191 NA
ENDBRANCH  10  29
TORSDOF 5
