REMARK  Name = ZINC64870012
REMARK  3 active torsions:
REMARK  status: ('A' for Active; 'I' for Inactive)
REMARK    1  A    between atoms: C_6  and  C_7
REMARK    2  A    between atoms: C_9  and  C_13
REMARK    3  A    between atoms: N_23  and  C_26
REMARK                            x       y       z     vdW  Elec       q    Type
REMARK                         _______ _______ _______ _____ _____    ______ ____
ROOT
ATOM      1  C   UNL     1      -3.176  -3.106   1.749  0.00  0.00    +0.006 A 
ATOM      2  C   UNL     1      -2.421  -2.994   2.907  0.00  0.00    +0.009 A 
ATOM      3  C   UNL     1      -2.996  -3.217   4.140  0.00  0.00    +0.016 A 
ATOM      4  C   UNL     1      -4.345  -3.556   4.217  0.00  0.00    +0.063 A 
ATOM      5  C   UNL     1      -5.110  -3.669   3.043  0.00  0.00    +0.056 A 
ATOM      6  C   UNL     1      -4.516  -3.436   1.812  0.00  0.00    +0.034 A 
ATOM      7  N   UNL     1      -6.451  -4.007   3.150  0.00  0.00    -0.307 N 
ATOM      8  H   UNL     1      -6.991  -4.089   2.349  0.00  0.00    +0.170 HD
ATOM      9  C   UNL     1      -7.008  -4.224   4.354  0.00  0.00    +0.334 A 
ATOM     10  O   UNL     1      -8.187  -4.519   4.405  0.00  0.00    -0.246 OA
ATOM     11  N   UNL     1      -6.320  -4.128   5.502  0.00  0.00    -0.229 N 
ATOM     12  C   UNL     1      -5.009  -3.804   5.509  0.00  0.00    +0.269 A 
ATOM     13  O   UNL     1      -4.392  -3.720   6.554  0.00  0.00    -0.266 OA
ENDROOT
BRANCH   1  16
ATOM     14  C   UNL     1      -0.400  -2.171   0.200  0.00  0.00    +0.134 C 
ATOM     15  N   UNL     1      -1.111  -3.225   0.455  0.00  0.00    -0.339 N 
ATOM     16  C   UNL     1      -2.531  -2.858   0.410  0.00  0.00    +0.274 C 
ATOM     17  O   UNL     1      -2.554  -1.457   0.097  0.00  0.00    -0.243 OA
ATOM     18  N   UNL     1      -1.194  -1.072  -0.020  0.00  0.00    -0.247 N 
ATOM     19  H   UNL     1      -0.876  -0.179  -0.224  0.00  0.00    +0.196 HD
ATOM     20  H   UNL     1      -0.761  -4.111   0.643  0.00  0.00    +0.164 HD
BRANCH  14  26
ATOM     21  C   UNL     1       1.776  -0.994   0.503  0.00  0.00    +0.013 A 
ATOM     22  C   UNL     1       3.154  -0.982   0.462  0.00  0.00    +0.021 A 
ATOM     23  C   UNL     1       3.848  -2.118   0.079  0.00  0.00    +0.041 A 
ATOM     24  C   UNL     1       3.162  -3.271  -0.266  0.00  0.00    +0.021 A 
ATOM     25  C   UNL     1       1.783  -3.293  -0.229  0.00  0.00    +0.013 A 
ATOM     26  C   UNL     1       1.080  -2.152   0.157  0.00  0.00    +0.017 A 
ATOM     27 CL   UNL     1       5.583  -2.097   0.029  0.00  0.00    -0.084 Cl
ENDBRANCH  14  26
ENDBRANCH   1  16
BRANCH  11  28
ATOM     28  C   UNL     1      -6.975  -4.369   6.719  0.00  0.00    +0.055 A 
ATOM     29  C   UNL     1      -7.009  -5.652   7.248  0.00  0.00    +0.029 A 
ATOM     30  C   UNL     1      -7.654  -5.887   8.446  0.00  0.00    +0.040 A 
ATOM     31  C   UNL     1      -8.267  -4.844   9.120  0.00  0.00    +0.124 A 
ATOM     32  C   UNL     1      -8.234  -3.563   8.594  0.00  0.00    +0.040 A 
ATOM     33  C   UNL     1      -7.585  -3.323   7.398  0.00  0.00    +0.029 A 
ATOM     34  F   UNL     1      -8.898  -5.075  10.291  0.00  0.00    -0.205 F 
ENDBRANCH  11  28
TORSDOF 3
