REMARK  Name = ZINC61795151
REMARK  9 active torsions:
REMARK  status: ('A' for Active; 'I' for Inactive)
REMARK    1  A    between atoms: C_1  and  N_2
REMARK    2  A    between atoms: N_2  and  C_3
REMARK    3  A    between atoms: N_2  and  C_4
REMARK    4  A    between atoms: C_4  and  C_5
REMARK    5  A    between atoms: C_4  and  C_21
REMARK    6  A    between atoms: C_5  and  N_6
REMARK    7  A    between atoms: N_9  and  N_10
REMARK    8  A    between atoms: C_11  and  C_13
REMARK    9  A    between atoms: C_16  and  C_19
REMARK                            x       y       z     vdW  Elec       q    Type
REMARK                         _______ _______ _______ _____ _____    ______ ____
ROOT
ATOM      1  N   UNL     1      -0.924  -2.532   0.575  0.00  0.00    -0.299 N 
ATOM      2  C   UNL     1      -0.991  -3.878   0.545  0.00  0.00    +0.316 C 
ATOM      3  O   UNL     1      -1.651  -4.435  -0.310  0.00  0.00    -0.251 OA
ATOM      4  N   UNL     1      -0.327  -4.606   1.465  0.00  0.00    -0.218 N 
ATOM      5  H   UNL     1      -0.397  -2.088   1.257  0.00  0.00    +0.150 HD
ATOM      6  H   UNL     1      -0.376  -5.575   1.444  0.00  0.00    +0.174 HD
ENDROOT
BRANCH   4   7
ATOM      7  N   UNL     1       0.434  -3.965   2.451  0.00  0.00    -0.229 N 
ATOM      8  C   UNL     1       1.098  -4.693   3.370  0.00  0.00    +0.260 C 
ATOM      9  O   UNL     1       1.037  -5.906   3.343  0.00  0.00    -0.269 OA
ATOM     10  H   UNL     1       0.482  -2.996   2.472  0.00  0.00    +0.173 HD
BRANCH   8  11
ATOM     11  C   UNL     1       1.901  -4.015   4.411  0.00  0.00    +0.038 A 
ATOM     12  C   UNL     1       1.966  -2.621   4.444  0.00  0.00    +0.014 A 
ATOM     13  C   UNL     1       2.714  -1.989   5.414  0.00  0.00    +0.019 A 
ATOM     14  C   UNL     1       3.407  -2.744   6.363  0.00  0.00    +0.052 A 
ATOM     15  C   UNL     1       3.341  -4.139   6.329  0.00  0.00    +0.019 A 
ATOM     16  C   UNL     1       2.589  -4.770   5.363  0.00  0.00    +0.014 A 
BRANCH  14  17
ATOM     17  C   UNL     1       4.185  -2.088   7.370  0.00  0.00    +0.099 C 
ATOM     18  N   UNL     1       4.802  -1.568   8.170  0.00  0.00    -0.191 NA
ENDBRANCH  14  17
ENDBRANCH   8  11
ENDBRANCH   4   7
BRANCH   1  19
ATOM     19  C   UNL     1      -1.645  -1.741  -0.425  0.00  0.00    +0.098 C 
BRANCH  19  20
ATOM     20  C   UNL     1      -1.509  -0.254  -0.093  0.00  0.00    +0.016 C 
BRANCH  20  21
ATOM     21  C   UNL     1      -0.067   0.163  -0.235  0.00  0.00    +0.093 A 
ATOM     22  C   UNL     1       0.465   0.807  -1.289  0.00  0.00    +0.043 A 
ATOM     23  C   UNL     1       1.837   0.996  -1.003  0.00  0.00    +0.041 A 
ATOM     24  C   UNL     1       2.060   0.456   0.209  0.00  0.00    +0.195 A 
ATOM     25  O   UNL     1       0.902  -0.043   0.671  0.00  0.00    -0.469 OA
ENDBRANCH  20  21
BRANCH  20  27
ATOM     26  C   UNL     1      -1.813   1.410   1.609  0.00  0.00    -0.096 C 
ATOM     27  N   UNL     1      -1.953  -0.017   1.287  0.00  0.00    +0.384 N 
ATOM     28  C   UNL     1      -3.361  -0.414   1.423  0.00  0.00    -0.096 C 
ATOM     29  H   UNL     1      -1.387  -0.561   1.921  0.00  0.00    -0.082 HD
ENDBRANCH  20  27
ENDBRANCH  19  20
ENDBRANCH   1  19
TORSDOF 7
