REMARK  Name = ZINC40610218
REMARK  7 active torsions:
REMARK  status: ('A' for Active; 'I' for Inactive)
REMARK    1  A    between atoms: C_1  and  C_2
REMARK    2  A    between atoms: C_9  and  N_12
REMARK    3  A    between atoms: C_14  and  N_28
REMARK    4  A    between atoms: C_15  and  N_19
REMARK    5  A    between atoms: N_19  and  C_20
REMARK    6  A    between atoms: C_20  and  C_21
REMARK    7  A    between atoms: C_21  and  C_22
REMARK                            x       y       z     vdW  Elec       q    Type
REMARK                         _______ _______ _______ _____ _____    ______ ____
ROOT
ATOM      1  N   UNL     1       0.045  -1.962   3.622  0.00  0.00    -0.296 N 
ATOM      2  C   UNL     1      -0.045  -2.641   4.828  0.00  0.00    +0.159 A 
ATOM      3  C   UNL     1      -0.161  -1.941   6.026  0.00  0.00    +0.205 A 
ATOM      4  C   UNL     1      -0.248  -2.668   7.209  0.00  0.00    +0.154 A 
ATOM      5  N   UNL     1      -0.217  -3.999   7.153  0.00  0.00    -0.218 NA
ATOM      6  C   UNL     1      -0.105  -4.625   5.999  0.00  0.00    +0.225 A 
ATOM      7  N   UNL     1      -0.026  -3.972   4.857  0.00  0.00    -0.218 NA
ATOM      8  H   UNL     1       0.114  -0.994   3.614  0.00  0.00    +0.154 HD
ENDROOT
BRANCH   1  17
ATOM      9  C   UNL     1       2.396   0.967   0.313  0.00  0.00    +0.065 C 
ATOM     10  C   UNL     1       1.757  -0.395   0.223  0.00  0.00    +0.039 A 
ATOM     11  C   UNL     1       1.767  -1.070  -0.996  0.00  0.00    +0.023 A 
ATOM     12  C   UNL     1       1.193  -2.305  -1.096  0.00  0.00    +0.012 A 
ATOM     13  C   UNL     1       0.603  -2.858   0.057  0.00  0.00    +0.002 A 
ATOM     14  C   UNL     1      -0.005  -4.124   0.029  0.00  0.00    +0.010 A 
ATOM     15  C   UNL     1      -0.568  -4.633   1.160  0.00  0.00    +0.003 A 
ATOM     16  C   UNL     1      -0.551  -3.915   2.353  0.00  0.00    +0.025 A 
ATOM     17  C   UNL     1       0.036  -2.671   2.420  0.00  0.00    +0.059 A 
ATOM     18  C   UNL     1       0.628  -2.118   1.263  0.00  0.00    +0.092 A 
ATOM     19  N   UNL     1       1.210  -0.916   1.295  0.00  0.00    -0.250 NA
ENDBRANCH   1  17
BRANCH   3  20
ATOM     20  N   UNL     1      -0.191  -0.461   6.040  0.00  0.00    +0.063 N 
ATOM     21  O   UNL     1      -1.247   0.123   5.957  0.00  0.00    -0.126 OA
ATOM     22  O   UNL     1       0.839   0.164   6.136  0.00  0.00    -0.126 OA
ENDBRANCH   3  20
BRANCH   4  23
ATOM     23  N   UNL     1      -0.365  -2.018   8.427  0.00  0.00    -0.327 N 
ATOM     24  H   UNL     1      -0.387  -1.048   8.460  0.00  0.00    +0.148 HD
BRANCH  23  25
ATOM     25  C   UNL     1      -0.456  -2.794   9.666  0.00  0.00    +0.107 C 
BRANCH  25  26
ATOM     26  C   UNL     1      -0.576  -1.842  10.857  0.00  0.00    +0.054 C 
BRANCH  26  27
ATOM     27  C   UNL     1      -0.669  -2.640  12.132  0.00  0.00    -0.046 A 
ATOM     28  C   UNL     1      -1.904  -3.035  12.612  0.00  0.00    +0.004 A 
ATOM     29  C   UNL     1      -1.990  -3.768  13.781  0.00  0.00    +0.000 A 
ATOM     30  C   UNL     1      -0.840  -4.106  14.470  0.00  0.00    +0.000 A 
ATOM     31  C   UNL     1       0.395  -3.712  13.990  0.00  0.00    +0.000 A 
ATOM     32  C   UNL     1       0.481  -2.983  12.818  0.00  0.00    +0.004 A 
ENDBRANCH  26  27
ENDBRANCH  25  26
ENDBRANCH  23  25
ENDBRANCH   4  23
TORSDOF 6
