REMARK  Name = ZINC25578932
REMARK  9 active torsions:
REMARK  status: ('A' for Active; 'I' for Inactive)
REMARK    1  A    between atoms: C_1  and  O_2
REMARK    2  A    between atoms: O_2  and  C_3
REMARK    3  A    between atoms: C_6  and  C_9
REMARK    4  A    between atoms: C_9  and  N_10
REMARK    5  A    between atoms: N_19  and  C_22
REMARK    6  A    between atoms: C_22  and  C_23
REMARK    7  A    between atoms: C_23  and  N_24
REMARK    8  A    between atoms: N_24  and  C_25
REMARK    9  A    between atoms: C_25  and  C_26
REMARK                            x       y       z     vdW  Elec       q    Type
REMARK                         _______ _______ _______ _____ _____    ______ ____
ROOT
ATOM      1  N   UNL     1       0.002  -0.004   0.002  0.00  0.00    -0.256 N 
ATOM      2  C   UNL     1      -0.006  -0.660  -1.179  0.00  0.00    +0.265 A 
ATOM      3  O   UNL     1      -0.029  -0.051  -2.231  0.00  0.00    -0.267 OA
ATOM      4  C   UNL     1       0.020  -2.134  -1.159  0.00  0.00    +0.063 A 
ATOM      5  C   UNL     1       0.018  -2.882  -2.333  0.00  0.00    +0.015 A 
ATOM      6  C   UNL     1       0.037  -4.259  -2.261  0.00  0.00    +0.001 A 
ATOM      7  C   UNL     1       0.058  -4.897  -1.031  0.00  0.00    +0.002 A 
ATOM      8  C   UNL     1       0.059  -4.167   0.141  0.00  0.00    +0.027 A 
ATOM      9  C   UNL     1       0.041  -2.782   0.088  0.00  0.00    +0.059 A 
ATOM     10  N   UNL     1       0.042  -2.010   1.242  0.00  0.00    -0.295 N 
ATOM     11  C   UNL     1       0.022  -0.668   1.168  0.00  0.00    +0.333 A 
ATOM     12  O   UNL     1       0.023  -0.029   2.202  0.00  0.00    -0.246 OA
ENDROOT
BRANCH   1  13
ATOM     13  C   UNL     1      -0.018   1.461   0.010  0.00  0.00    +0.165 C 
BRANCH  13  17
ATOM     14  C   UNL     1       3.991   2.940  -0.020  0.00  0.00    +0.120 A 
ATOM     15  C   UNL     1       3.328   2.706  -1.216  0.00  0.00    +0.046 A 
ATOM     16  C   UNL     1       2.032   2.228  -1.204  0.00  0.00    +0.009 A 
ATOM     17  C   UNL     1       1.396   1.982  -0.001  0.00  0.00    -0.027 A 
ATOM     18  C   UNL     1       2.053   2.220   1.192  0.00  0.00    +0.009 A 
ATOM     19  C   UNL     1       3.351   2.693   1.185  0.00  0.00    +0.046 A 
BRANCH  14  21
ATOM     20  C   UNL     1       5.887   3.628   1.239  0.00  0.00    +0.277 C 
ATOM     21  O   UNL     1       5.266   3.410  -0.030  0.00  0.00    -0.495 OA
ENDBRANCH  14  21
ENDBRANCH  13  17
ENDBRANCH   1  13
BRANCH  10  22
ATOM     22  C   UNL     1       0.063  -2.665   2.552  0.00  0.00    +0.108 C 
BRANCH  22  23
ATOM     23  C   UNL     1      -1.371  -2.913   3.022  0.00  0.00    -0.060 C 
BRANCH  23  24
ATOM     24  N   UNL     1      -1.349  -3.569   4.336  0.00  0.00    +0.383 N 
ATOM     25  H   UNL     1      -0.818  -4.529   4.258  0.00  0.00    -0.086 HD
ATOM     26  H   UNL     1      -0.833  -2.922   5.061  0.00  0.00    -0.086 HD
BRANCH  24  27
ATOM     27  C   UNL     1      -2.713  -3.824   4.821  0.00  0.00    -0.034 C 
BRANCH  27  28
ATOM     28  C   UNL     1      -2.649  -4.506   6.188  0.00  0.00    +0.194 C 
ATOM     29  C   UNL     1      -4.071  -4.802   6.686  0.00  0.00    +0.271 C 
ATOM     30  O   UNL     1      -3.974  -5.451   7.958  0.00  0.00    -0.485 OA
ATOM     31  C   UNL     1      -3.072  -6.465   8.060  0.00  0.00    +0.162 A 
ATOM     32  C   UNL     1      -3.170  -7.359   9.117  0.00  0.00    +0.049 A 
ATOM     33  C   UNL     1      -2.259  -8.391   9.236  0.00  0.00    +0.004 A 
ATOM     34  C   UNL     1      -1.248  -8.536   8.304  0.00  0.00    +0.004 A 
ATOM     35  C   UNL     1      -1.146  -7.649   7.248  0.00  0.00    +0.049 A 
ATOM     36  C   UNL     1      -2.058  -6.612   7.122  0.00  0.00    +0.162 A 
ATOM     37  O   UNL     1      -1.946  -5.748   6.076  0.00  0.00    -0.484 OA
ENDBRANCH  27  28
ENDBRANCH  24  27
ENDBRANCH  23  24
ENDBRANCH  22  23
ENDBRANCH  10  22
TORSDOF 8
