REMARK  Name = ZINC39530587
REMARK  9 active torsions:
REMARK  status: ('A' for Active; 'I' for Inactive)
REMARK    1  A    between atoms: C_1  and  C_2
REMARK    2  A    between atoms: C_2  and  O_3
REMARK    3  A    between atoms: O_3  and  C_4
REMARK    4  A    between atoms: C_7  and  N_20
REMARK    5  A    between atoms: C_8  and  S_10
REMARK    6  A    between atoms: S_10  and  O_13
REMARK    7  A    between atoms: O_13  and  C_14
REMARK    8  A    between atoms: C_24  and  C_27
REMARK    9  A    between atoms: C_27  and  C_28
REMARK                            x       y       z     vdW  Elec       q    Type
REMARK                         _______ _______ _______ _____ _____    ______ ____
ROOT
ATOM      1  C   UNL     1       1.029  -1.663  -1.353  0.00  0.00    +0.123 A 
ATOM      2  C   UNL     1       0.614  -2.463  -0.298  0.00  0.00    +0.047 A 
ATOM      3  C   UNL     1       0.727  -3.836  -0.387  0.00  0.00    +0.029 A 
ATOM      4  C   UNL     1       1.257  -4.417  -1.532  0.00  0.00    +0.058 A 
ATOM      5  C   UNL     1       1.672  -3.616  -2.587  0.00  0.00    +0.152 A 
ATOM      6  C   UNL     1       1.553  -2.242  -2.499  0.00  0.00    +0.078 A 
ENDROOT
BRANCH   4   7
ATOM      7  N   UNL     1       1.372  -5.809  -1.622  0.00  0.00    -0.332 N 
ATOM      8  C   UNL     1       2.588  -6.498  -1.162  0.00  0.00    +0.086 C 
ATOM      9  C   UNL     1       2.175  -7.642  -0.230  0.00  0.00    -0.063 C 
ATOM     10  N   UNL     1       1.210  -8.509  -0.919  0.00  0.00    +0.383 N 
ATOM     11  C   UNL     1      -0.023  -7.762  -1.198  0.00  0.00    -0.050 C 
ATOM     12  C   UNL     1       0.279  -6.624  -2.173  0.00  0.00    +0.089 C 
ATOM     13  H   UNL     1       1.610  -8.832  -1.787  0.00  0.00    -0.085 HD
ATOM     14  H   UNL     1       0.996  -9.302  -0.334  0.00  0.00    -0.085 HD
BRANCH  11  15
ATOM     15  C   UNL     1      -1.060  -8.702  -1.815  0.00  0.00    +0.021 C 
BRANCH  15  16
ATOM     16  C   UNL     1      -1.450  -9.751  -0.805  0.00  0.00    -0.049 A 
ATOM     17  C   UNL     1      -0.746 -10.939  -0.737  0.00  0.00    +0.003 A 
ATOM     18  C   UNL     1      -1.103 -11.902   0.189  0.00  0.00    +0.000 A 
ATOM     19  C   UNL     1      -2.164 -11.676   1.046  0.00  0.00    +0.000 A 
ATOM     20  C   UNL     1      -2.867 -10.488   0.978  0.00  0.00    +0.000 A 
ATOM     21  C   UNL     1      -2.507  -9.524   0.055  0.00  0.00    +0.003 A 
ENDBRANCH  15  16
ENDBRANCH  11  15
ENDBRANCH   4   7
BRANCH   5  22
ATOM     22  S   UNL     1       2.345  -4.351  -4.040  0.00  0.00    +0.153 S 
ATOM     23  O   UNL     1       3.756  -4.350  -3.879  0.00  0.00    -0.131 OA
ATOM     24  O   UNL     1       1.605  -5.542  -4.272  0.00  0.00    -0.131 OA
BRANCH  22  25
ATOM     25  O   UNL     1       2.038  -3.415  -5.201  0.00  0.00    -0.342 OA
BRANCH  25  26
ATOM     26  C   UNL     1       0.747  -3.461  -5.622  0.00  0.00    +0.157 A 
ATOM     27  C   UNL     1       0.346  -4.431  -6.530  0.00  0.00    +0.048 A 
ATOM     28  C   UNL     1      -0.967  -4.475  -6.956  0.00  0.00    +0.004 A 
ATOM     29  C   UNL     1      -1.882  -3.555  -6.478  0.00  0.00    +0.000 A 
ATOM     30  C   UNL     1      -1.485  -2.588  -5.574  0.00  0.00    +0.004 A 
ATOM     31  C   UNL     1      -0.174  -2.543  -5.140  0.00  0.00    +0.048 A 
ENDBRANCH  25  26
ENDBRANCH  22  25
ENDBRANCH   5  22
BRANCH   1  32
ATOM     32  O   UNL     1       0.918  -0.310  -1.265  0.00  0.00    -0.492 OA
BRANCH  32  34
ATOM     33  C   UNL     1       0.323   1.745  -0.142  0.00  0.00    +0.048 C 
ATOM     34  C   UNL     1       0.369   0.218  -0.056  0.00  0.00    +0.225 C 
ENDBRANCH  32  34
ENDBRANCH   1  32
TORSDOF 8
