REMARK  Name = ZINC40241994
REMARK  5 active torsions:
REMARK  status: ('A' for Active; 'I' for Inactive)
REMARK    1  A    between atoms: C_1  and  O_2
REMARK    2  A    between atoms: O_2  and  C_3
REMARK    3  A    between atoms: C_4  and  C_11
REMARK    4  A    between atoms: C_11  and  C_13
REMARK    5  A    between atoms: C_11  and  O_20
REMARK                            x       y       z     vdW  Elec       q    Type
REMARK                         _______ _______ _______ _____ _____    ______ ____
ROOT
ATOM      1  C   UNL     1      -1.803  -2.188   0.818  0.00  0.00    +0.140 A 
ATOM      2  C   UNL     1      -1.621  -0.907   1.318  0.00  0.00    +0.029 A 
ATOM      3  C   UNL     1      -2.061   0.185   0.595  0.00  0.00    +0.030 A 
ATOM      4  C   UNL     1      -2.684   0.002  -0.627  0.00  0.00    +0.043 A 
ATOM      5  C   UNL     1      -2.867  -1.275  -1.128  0.00  0.00    +0.039 A 
ATOM      6  C   UNL     1      -2.423  -2.370  -0.410  0.00  0.00    +0.061 A 
ATOM      7 BR   UNL     1      -2.666  -4.114  -1.099  0.00  0.00    -0.046 Br
ATOM      8 CL   UNL     1      -3.237   1.376  -1.532  0.00  0.00    -0.083 Cl
ENDROOT
BRANCH   1  10
ATOM      9  C   UNL     1      -0.038  -3.715   1.274  0.00  0.00    +0.277 C 
ATOM     10  O   UNL     1      -1.370  -3.264   1.528  0.00  0.00    -0.494 OA
ENDBRANCH   1  10
BRANCH   2  11
ATOM     11  C   UNL     1      -0.944  -0.707   2.649  0.00  0.00    +0.179 C 
BRANCH  11  12
ATOM     12  C   UNL     1      -1.280   0.662   3.183  0.00  0.00    -0.002 A 
ATOM     13  C   UNL     1      -2.356   0.827   4.035  0.00  0.00    +0.007 A 
ATOM     14  C   UNL     1      -2.664   2.083   4.524  0.00  0.00    +0.000 A 
ATOM     15  C   UNL     1      -1.896   3.174   4.162  0.00  0.00    +0.001 A 
ATOM     16  C   UNL     1      -0.820   3.009   3.310  0.00  0.00    +0.015 A 
ATOM     17  C   UNL     1      -0.508   1.752   2.824  0.00  0.00    +0.019 A 
ATOM     18  I   UNL     1       1.127   1.501   1.540  0.00  0.00    -0.043 I 
ENDBRANCH  11  12
BRANCH  11  19
ATOM     19  O   UNL     1      -1.399  -1.701   3.570  0.00  0.00    -0.382 OA
ATOM     20  H   UNL     1      -2.352  -1.683   3.729  0.00  0.00    +0.211 HD
ENDBRANCH  11  19
ENDBRANCH   2  11
TORSDOF 4
