REMARK  Name = ZINC39232512
REMARK  6 active torsions:
REMARK  status: ('A' for Active; 'I' for Inactive)
REMARK    1  A    between atoms: C_8  and  C_14
REMARK    2  A    between atoms: C_19  and  O_20
REMARK    3  A    between atoms: O_20  and  C_21
REMARK    4  A    between atoms: N_22  and  C_23
REMARK    5  A    between atoms: C_23  and  C_24
REMARK    6  A    between atoms: C_24  and  C_25
REMARK                            x       y       z     vdW  Elec       q    Type
REMARK                         _______ _______ _______ _____ _____    ______ ____
ROOT
ATOM      1  C   UNL     1      -0.016   1.337   0.009  0.00  0.00    +0.033 C 
ATOM      2  C   UNL     1       0.002  -0.004   0.002  0.00  0.00    +0.031 C 
ATOM      3  N   UNL     1      -1.190  -0.749   0.004  0.00  0.00    -0.287 N 
ATOM      4  C   UNL     1      -1.134  -2.034  -0.469  0.00  0.00    +0.199 C 
ATOM      5  N   UNL     1      -2.191  -2.586  -1.027  0.00  0.00    -0.186 NA
ATOM      6  C   UNL     1      -2.128  -3.824  -1.548  0.00  0.00    +0.193 C 
ATOM      7  N   UNL     1      -1.102  -4.606  -1.353  0.00  0.00    -0.335 N 
ATOM      8  C   UNL     1       0.000  -4.202  -0.477  0.00  0.00    +0.215 C 
ATOM      9  N   UNL     1       0.038  -2.740  -0.384  0.00  0.00    -0.214 N 
ATOM     10  C   UNL     1       1.243  -2.085  -0.217  0.00  0.00    +0.249 C 
ATOM     11  C   UNL     1       1.272  -0.751  -0.014  0.00  0.00    +0.090 C 
ATOM     12  O   UNL     1       2.401  -2.784  -0.263  0.00  0.00    -0.270 OA
ATOM     13  N   UNL     1      -3.182  -4.282  -2.312  0.00  0.00    -0.315 N 
ATOM     14  H   UNL     1      -3.152  -5.173  -2.695  0.00  0.00    +0.149 HD
ATOM     15  H   UNL     1      -2.021  -0.368   0.327  0.00  0.00    +0.155 HD
ATOM     16  H   UNL     1      -1.068  -5.468  -1.796  0.00  0.00    +0.164 HD
ENDROOT
BRANCH   8  17
ATOM     17  C   UNL     1      -0.209  -4.787   0.896  0.00  0.00    +0.035 A 
ATOM     18  C   UNL     1       0.168  -4.073   2.017  0.00  0.00    +0.011 A 
ATOM     19  C   UNL     1      -0.024  -4.609   3.277  0.00  0.00    +0.001 A 
ATOM     20  C   UNL     1      -0.593  -5.861   3.418  0.00  0.00    +0.004 A 
ATOM     21  C   UNL     1      -0.972  -6.579   2.301  0.00  0.00    +0.046 A 
ATOM     22  C   UNL     1      -0.786  -6.041   1.036  0.00  0.00    +0.127 A 
BRANCH  22  23
ATOM     23  O   UNL     1      -1.163  -6.743  -0.065  0.00  0.00    -0.495 OA
ATOM     24  C   UNL     1      -1.750  -8.028   0.154  0.00  0.00    +0.277 C 
ENDBRANCH  22  23
ENDBRANCH   8  17
BRANCH  13  25
ATOM     25  C   UNL     1      -4.346  -3.423  -2.545  0.00  0.00    +0.109 C 
BRANCH  25  26
ATOM     26  C   UNL     1      -5.361  -4.165  -3.416  0.00  0.00    +0.056 C 
BRANCH  26  27
ATOM     27  C   UNL     1      -6.558  -3.281  -3.655  0.00  0.00    -0.021 A 
ATOM     28  C   UNL     1      -7.699  -3.272  -2.947  0.00  0.00    +0.087 A 
ATOM     29  N   UNL     1      -8.557  -2.337  -3.457  0.00  0.00    -0.360 N 
ATOM     30  H   UNL     1      -9.444  -2.147  -3.112  0.00  0.00    +0.165 HD
ATOM     31  C   UNL     1      -7.976  -1.705  -4.534  0.00  0.00    +0.047 A 
ATOM     32  C   UNL     1      -6.696  -2.265  -4.701  0.00  0.00    +0.003 A 
ATOM     33  C   UNL     1      -5.865  -1.808  -5.726  0.00  0.00    +0.010 A 
ATOM     34  C   UNL     1      -6.299  -0.817  -6.561  0.00  0.00    +0.001 A 
ATOM     35  C   UNL     1      -7.559  -0.259  -6.397  0.00  0.00    +0.002 A 
ATOM     36  C   UNL     1      -8.399  -0.701  -5.398  0.00  0.00    +0.026 A 
ENDBRANCH  26  27
ENDBRANCH  25  26
ENDBRANCH  13  25
TORSDOF 5
