REMARK  Name = ZINC52094361
REMARK  5 active torsions:
REMARK  status: ('A' for Active; 'I' for Inactive)
REMARK    1  A    between atoms: C_1  and  C_2
REMARK    2  A    between atoms: C_2  and  C_3
REMARK    3  A    between atoms: C_6  and  C_9
REMARK    4  A    between atoms: C_9  and  C_11
REMARK    5  A    between atoms: C_9  and  N_24
REMARK                            x       y       z     vdW  Elec       q    Type
REMARK                         _______ _______ _______ _____ _____    ______ ____
ROOT
ATOM      1  C   UNL     1       2.707  -1.868  -4.752  0.00  0.00    -0.012 C 
ENDROOT
BRANCH   1   2
ATOM      2  C   UNL     1       3.373  -0.705  -5.441  0.00  0.00    -0.042 A 
ATOM      3  C   UNL     1       4.728  -0.493  -5.277  0.00  0.00    +0.031 A 
ATOM      4  C   UNL     1       5.341   0.577  -5.910  0.00  0.00    +0.067 A 
ATOM      5  C   UNL     1       4.587   1.436  -6.711  0.00  0.00    +0.068 A 
ATOM      6  C   UNL     1       3.228   1.216  -6.870  0.00  0.00    +0.043 A 
ATOM      7  C   UNL     1       2.626   0.144  -6.240  0.00  0.00    +0.022 A 
ATOM      8 BR   UNL     1       0.773  -0.162  -6.463  0.00  0.00    -0.050 Br
ATOM      9  N   UNL     1       5.463   2.399  -7.205  0.00  0.00    -0.306 N 
ATOM     10  H   UNL     1       5.227   3.134  -7.793  0.00  0.00    +0.170 HD
ATOM     11  C   UNL     1       6.694   2.138  -6.726  0.00  0.00    +0.325 A 
ATOM     12  O   UNL     1       7.693   2.792  -6.966  0.00  0.00    -0.247 OA
ATOM     13  N   UNL     1       6.653   1.045  -5.942  0.00  0.00    -0.306 N 
ATOM     14  H   UNL     1       7.408   0.650  -5.478  0.00  0.00    +0.170 HD
ENDBRANCH   1   2
BRANCH   1  18
ATOM     15  C   UNL     1       0.707  -0.490  -1.238  0.00  0.00    -0.048 A 
ATOM     16  C   UNL     1      -0.011  -0.719  -2.397  0.00  0.00    +0.004 A 
ATOM     17  C   UNL     1       0.636  -1.164  -3.534  0.00  0.00    +0.002 A 
ATOM     18  C   UNL     1       2.002  -1.381  -3.513  0.00  0.00    -0.058 A 
ATOM     19  C   UNL     1       2.720  -1.152  -2.354  0.00  0.00    +0.002 A 
ATOM     20  C   UNL     1       2.073  -0.702  -1.218  0.00  0.00    +0.004 A 
BRANCH  15  22
ATOM     21  C   UNL     1      -0.019   1.526   0.010  0.00  0.00    +0.009 C 
ATOM     22  C   UNL     1       0.002  -0.004   0.002  0.00  0.00    +0.032 C 
ENDBRANCH  15  22
ENDBRANCH   1  18
BRANCH   1  23
ATOM     23  N   UNL     1       3.721  -2.863  -4.380  0.00  0.00    +0.385 N 
ATOM     24  H   UNL     1       4.193  -3.189  -5.210  0.00  0.00    -0.089 HD
ATOM     25  H   UNL     1       4.392  -2.442  -3.755  0.00  0.00    -0.089 HD
ATOM     26  H   UNL     1       3.275  -3.642  -3.919  0.00  0.00    -0.089 HD
ENDBRANCH   1  23
TORSDOF 4
