REMARK  Name = ZINC38573613
REMARK  7 active torsions:
REMARK  status: ('A' for Active; 'I' for Inactive)
REMARK    1  A    between atoms: C_1  and  C_2
REMARK    2  A    between atoms: C_2  and  C_29
REMARK    3  A    between atoms: C_7  and  O_28
REMARK    4  A    between atoms: C_9  and  O_13
REMARK    5  A    between atoms: O_13  and  C_14
REMARK    6  A    between atoms: C_14  and  C_15
REMARK    7  A    between atoms: N_17  and  C_18
REMARK                            x       y       z     vdW  Elec       q    Type
REMARK                         _______ _______ _______ _____ _____    ______ ____
ROOT
ATOM      1  C   UNL     1      -0.076   1.247   0.039  0.00  0.00    +0.056 C 
ATOM      2  C   UNL     1       0.014  -0.280   0.010  0.00  0.00    +0.112 C 
ATOM      3  C   UNL     1       0.754  -0.725  -1.260  0.00  0.00    +0.127 C 
ATOM      4  C   UNL     1       2.152  -0.136  -1.194  0.00  0.00    +0.174 C 
ATOM      5  O   UNL     1       2.698   0.322  -2.176  0.00  0.00    -0.292 OA
ATOM      6  C   UNL     1       2.809  -0.150   0.118  0.00  0.00    +0.101 A 
ATOM      7  C   UNL     1       4.179   0.132   0.236  0.00  0.00    +0.134 A 
ATOM      8  C   UNL     1       4.771   0.124   1.486  0.00  0.00    +0.092 A 
ATOM      9  C   UNL     1       4.012  -0.162   2.614  0.00  0.00    +0.128 A 
ATOM     10  C   UNL     1       2.657  -0.447   2.503  0.00  0.00    +0.092 A 
ATOM     11  C   UNL     1       2.045  -0.447   1.262  0.00  0.00    +0.139 A 
ATOM     12  O   UNL     1       0.727  -0.737   1.158  0.00  0.00    -0.485 OA
ATOM     13  C   UNL     1      -1.396  -0.875   0.014  0.00  0.00    +0.056 C 
ENDROOT
BRANCH   7  14
ATOM     14  O   UNL     1       4.917   0.409  -0.868  0.00  0.00    -0.506 OA
ATOM     15  H   UNL     1       4.947   1.348  -1.095  0.00  0.00    +0.292 HD
ENDBRANCH   7  14
BRANCH   9  16
ATOM     16  O   UNL     1       4.601  -0.165   3.837  0.00  0.00    -0.483 OA
BRANCH  16  17
ATOM     17  C   UNL     1       5.997   0.135   3.885  0.00  0.00    +0.324 C 
BRANCH  17  18
ATOM     18  C   UNL     1       6.472   0.086   5.314  0.00  0.00    +0.255 C 
ATOM     19  O   UNL     1       5.691  -0.179   6.204  0.00  0.00    -0.272 OA
ATOM     20  N   UNL     1       7.764   0.338   5.604  0.00  0.00    -0.283 N 
ATOM     21  H   UNL     1       8.403   0.479   4.888  0.00  0.00    +0.155 HD
BRANCH  20  22
ATOM     22  C   UNL     1       8.180   0.394   6.926  0.00  0.00    +0.034 C 
ATOM     23  C   UNL     1       8.794   1.529   7.409  0.00  0.00    +0.029 C 
ATOM     24  C   UNL     1       9.119   1.496   8.770  0.00  0.00    -0.016 C 
ATOM     25  C   UNL     1      10.108   2.064   9.489  0.00  0.00    +0.025 C 
ATOM     26  C   UNL     1      10.147   1.480  10.771  0.00  0.00    +0.106 C 
ATOM     27  N   UNL     1       9.173   0.631  10.955  0.00  0.00    -0.279 NA
ATOM     28  C   UNL     1       8.329   0.668   9.770  0.00  0.00    +0.158 C 
ATOM     29  C   UNL     1       8.056  -0.666   9.142  0.00  0.00    +0.006 C 
ATOM     30  C   UNL     1       7.963  -0.751   7.814  0.00  0.00    +0.021 C 
ENDBRANCH  20  22
ENDBRANCH  17  18
ENDBRANCH  16  17
ENDBRANCH   9  16
TORSDOF 5
