REMARK  Name = ZINC15781325
REMARK  2 active torsions:
REMARK  status: ('A' for Active; 'I' for Inactive)
REMARK    1  A    between atoms: N_9  and  C_10
REMARK    2  A    between atoms: C_10  and  N_11
REMARK                            x       y       z     vdW  Elec       q    Type
REMARK                         _______ _______ _______ _____ _____    ______ ____
ROOT
ATOM      1  C   UNL     1       0.488   7.015   0.430  0.00  0.00    +0.002 A 
ATOM      2  C   UNL     1      -0.851   7.374   0.524  0.00  0.00    +0.002 A 
ATOM      3  C   UNL     1      -1.833   6.430   0.413  0.00  0.00    +0.030 A 
ATOM      4  C   UNL     1      -1.492   5.100   0.192  0.00  0.00    +0.091 A 
ATOM      5  C   UNL     1      -0.140   4.730   0.095  0.00  0.00    +0.113 A 
ATOM      6  C   UNL     1       0.849   5.716   0.219  0.00  0.00    +0.032 A 
ATOM      7  N   UNL     1      -0.093   3.399  -0.112  0.00  0.00    -0.129 NA
ATOM      8  N   UNL     1      -1.283   2.911  -0.153  0.00  0.00    -0.063 NA
ATOM      9  N   UNL     1      -2.216   3.942   0.034  0.00  0.00    -0.226 N 
ENDROOT
BRANCH   9  10
ATOM     10  C   UNL     1      -3.675   3.810   0.056  0.00  0.00    +0.253 C 
BRANCH  10  11
ATOM     11  N   UNL     1      -4.190   3.851  -1.315  0.00  0.00    -0.299 N 
ATOM     12  C   UNL     1      -4.562   5.118  -1.899  0.00  0.00    +0.119 C 
ATOM     13  C   UNL     1      -5.081   4.992  -3.347  0.00  0.00    +0.095 C 
ATOM     14  S   UNL     1      -4.962   3.181  -3.600  0.00  0.00    -0.101 S 
ATOM     15  C   UNL     1      -4.314   2.710  -2.009  0.00  0.00    +0.111 C 
ATOM     16  S   UNL     1      -3.931   1.129  -1.475  0.00  0.00    -0.028 S 
ENDBRANCH  10  11
ENDBRANCH   9  10
TORSDOF 2
