REMARK  Name = ZINC00939724
REMARK  9 active torsions:
REMARK  status: ('A' for Active; 'I' for Inactive)
REMARK    1  A    between atoms: C_1  and  O_2
REMARK    2  A    between atoms: O_2  and  C_3
REMARK    3  A    between atoms: C_3  and  C_5
REMARK    4  A    between atoms: C_5  and  C_7
REMARK    5  A    between atoms: C_5  and  N_18
REMARK    6  A    between atoms: C_7  and  C_8
REMARK    7  A    between atoms: C_19  and  C_21
REMARK    8  A    between atoms: C_23  and  O_28
REMARK    9  A    between atoms: C_25  and  O_27
REMARK                            x       y       z     vdW  Elec       q    Type
REMARK                         _______ _______ _______ _____ _____    ______ ____
ROOT
ATOM      1  C   UNL     1       4.175   0.620   1.402  0.00  0.00    +0.186 C 
ENDROOT
BRANCH   1   2
ATOM      2  N   UNL     1       3.743  -0.556   2.161  0.00  0.00    -0.298 N 
ATOM      3  C   UNL     1       3.633  -0.488   3.503  0.00  0.00    +0.245 C 
ATOM      4  O   UNL     1       3.892   0.548   4.082  0.00  0.00    -0.270 OA
ATOM      5  H   UNL     1       3.536  -1.383   1.699  0.00  0.00    +0.150 HD
BRANCH   3   6
ATOM      6  C   UNL     1       3.197  -1.675   4.270  0.00  0.00    +0.044 A 
ATOM      7  C   UNL     1       2.893  -2.864   3.606  0.00  0.00    +0.058 A 
ATOM      8  C   UNL     1       2.491  -3.975   4.329  0.00  0.00    +0.121 A 
ATOM      9  C   UNL     1       2.378  -3.903   5.710  0.00  0.00    +0.090 A 
ATOM     10  C   UNL     1       2.673  -2.721   6.373  0.00  0.00    +0.121 A 
ATOM     11  C   UNL     1       3.082  -1.607   5.659  0.00  0.00    +0.058 A 
BRANCH  10  12
ATOM     12  O   UNL     1       2.561  -2.656   7.726  0.00  0.00    -0.507 OA
ATOM     13  H   UNL     1       1.688  -2.381   8.036  0.00  0.00    +0.292 HD
ENDBRANCH  10  12
BRANCH   8  14
ATOM     14  O   UNL     1       2.201  -5.136   3.684  0.00  0.00    -0.507 OA
ATOM     15  H   UNL     1       1.276  -5.215   3.415  0.00  0.00    +0.292 HD
ENDBRANCH   8  14
ENDBRANCH   3   6
ENDBRANCH   1   2
BRANCH   1  16
ATOM     16  C   UNL     1       5.681   0.677   1.378  0.00  0.00    +0.328 C 
ATOM     17  O   UNL     1       6.327  -0.177   1.938  0.00  0.00    -0.249 OA
BRANCH  16  19
ATOM     18  C   UNL     1       7.757   1.667   0.753  0.00  0.00    +0.280 C 
ATOM     19  O   UNL     1       6.305   1.676   0.734  0.00  0.00    -0.467 OA
ENDBRANCH  16  19
ENDBRANCH   1  16
BRANCH   1  20
ATOM     20  C   UNL     1       3.646   0.524  -0.031  0.00  0.00    +0.071 C 
BRANCH  20  21
ATOM     21  C   UNL     1       2.140   0.591  -0.015  0.00  0.00    -0.020 A 
ATOM     22  C   UNL     1       1.295  -0.452  -0.013  0.00  0.00    +0.087 A 
ATOM     23  N   UNL     1       0.002  -0.004   0.002  0.00  0.00    -0.360 N 
ATOM     24  H   UNL     1      -0.784  -0.572   0.006  0.00  0.00    +0.165 HD
ATOM     25  C   UNL     1      -0.017   1.373   0.010  0.00  0.00    +0.047 A 
ATOM     26  C   UNL     1       1.322   1.806  -0.001  0.00  0.00    +0.003 A 
ATOM     27  C   UNL     1       1.612   3.171   0.004  0.00  0.00    +0.010 A 
ATOM     28  C   UNL     1       0.593   4.082   0.019  0.00  0.00    +0.001 A 
ATOM     29  C   UNL     1      -0.729   3.659   0.029  0.00  0.00    +0.002 A 
ATOM     30  C   UNL     1      -1.038   2.317   0.029  0.00  0.00    +0.026 A 
ENDBRANCH  20  21
ENDBRANCH   1  20
TORSDOF 8
