REMARK  Name = ZINC02126366
REMARK  9 active torsions:
REMARK  status: ('A' for Active; 'I' for Inactive)
REMARK    1  A    between atoms: C_1  and  C_2
REMARK    2  A    between atoms: C_4  and  C_32
REMARK    3  A    between atoms: N_5  and  C_7
REMARK    4  A    between atoms: C_7  and  C_8
REMARK    5  A    between atoms: C_10  and  C_16
REMARK    6  A    between atoms: C_13  and  O_14
REMARK    7  A    between atoms: O_14  and  C_15
REMARK    8  A    between atoms: C_22  and  O_28
REMARK    9  A    between atoms: O_28  and  C_29
REMARK                            x       y       z     vdW  Elec       q    Type
REMARK                         _______ _______ _______ _____ _____    ______ ____
ROOT
ATOM      1  C   UNL     1       2.616   0.483   5.521  0.00  0.00    +0.007 C 
ATOM      2  C   UNL     1       3.675   1.540   5.727  0.00  0.00    +0.010 A 
ATOM      3  C   UNL     1       4.958   1.243   6.045  0.00  0.00    -0.022 A 
ATOM      4  C   UNL     1       5.672   2.495   6.153  0.00  0.00    +0.006 A 
ATOM      5  C   UNL     1       7.002   2.809   6.454  0.00  0.00    +0.056 A 
ATOM      6  C   UNL     1       7.340   4.154   6.467  0.00  0.00    +0.121 A 
ATOM      7  C   UNL     1       6.406   5.146   6.196  0.00  0.00    +0.047 A 
ATOM      8  C   UNL     1       5.087   4.855   5.896  0.00  0.00    +0.030 A 
ATOM      9  C   UNL     1       4.721   3.511   5.876  0.00  0.00    +0.047 A 
ATOM     10  N   UNL     1       3.527   2.894   5.623  0.00  0.00    -0.359 N 
ATOM     11  H   UNL     1       2.699   3.348   5.404  0.00  0.00    +0.166 HD
ATOM     12  C   UNL     1       5.464  -0.165   6.237  0.00  0.00    +0.018 C 
ATOM     13  C   UNL     1       4.248  -1.088   6.399  0.00  0.00    -0.076 C 
ATOM     14  N   UNL     1       3.278  -0.825   5.317  0.00  0.00    +0.387 N 
ATOM     15  H   UNL     1       3.771  -0.817   4.416  0.00  0.00    -0.084 HD
ATOM     16  H   UNL     1       2.568  -1.566   5.312  0.00  0.00    -0.084 HD
ENDROOT
BRANCH   1  19
ATOM     17  C   UNL     1      -0.197   1.724   3.330  0.00  0.00    +0.016 A 
ATOM     18  C   UNL     1       0.555   1.410   4.446  0.00  0.00    +0.011 A 
ATOM     19  C   UNL     1       1.796   0.819   4.302  0.00  0.00    -0.055 A 
ATOM     20  C   UNL     1       2.286   0.534   3.040  0.00  0.00    +0.006 A 
ATOM     21  C   UNL     1       1.537   0.842   1.921  0.00  0.00    +0.046 A 
ATOM     22  C   UNL     1       0.291   1.435   2.064  0.00  0.00    +0.125 A 
BRANCH  22  23
ATOM     23  O   UNL     1      -0.449   1.738   0.965  0.00  0.00    -0.495 OA
ATOM     24  C   UNL     1       0.118   1.418  -0.307  0.00  0.00    +0.277 C 
ENDBRANCH  22  23
BRANCH  17  25
ATOM     25  C   UNL     1      -1.547   2.374   3.489  0.00  0.00    +0.182 C 
BRANCH  25  30
ATOM     26  C   UNL     1      -1.185   6.961   1.483  0.00  0.00    +0.067 C 
ATOM     27  C   UNL     1      -1.250   5.824   2.470  0.00  0.00    +0.060 A 
ATOM     28  C   UNL     1      -1.166   5.941   3.861  0.00  0.00    +0.047 A 
ATOM     29  C   UNL     1      -1.265   4.699   4.389  0.00  0.00    +0.037 A 
ATOM     30  N   UNL     1      -1.406   3.828   3.368  0.00  0.00    -0.264 N 
ATOM     31  N   UNL     1      -1.388   4.558   2.173  0.00  0.00    -0.176 NA
ATOM     32  C   UNL     1      -1.224   4.351   5.855  0.00  0.00    +0.065 C 
ENDBRANCH  25  30
ENDBRANCH  17  25
ENDBRANCH   1  19
BRANCH   6  33
ATOM     33  O   UNL     1       8.620   4.511   6.753  0.00  0.00    -0.495 OA
ATOM     34  C   UNL     1       8.919   5.909   6.755  0.00  0.00    +0.277 C 
ENDBRANCH   6  33
TORSDOF 5
