REMARK  Name = ZINC36154421
REMARK  6 active torsions:
REMARK  status: ('A' for Active; 'I' for Inactive)
REMARK    1  A    between atoms: C_1  and  C_2
REMARK    2  A    between atoms: C_5  and  C_9
REMARK    3  A    between atoms: C_6  and  C_8
REMARK    4  A    between atoms: C_18  and  C_20
REMARK    5  A    between atoms: C_20  and  N_21
REMARK    6  A    between atoms: N_21  and  C_22
REMARK                            x       y       z     vdW  Elec       q    Type
REMARK                         _______ _______ _______ _____ _____    ______ ____
ROOT
ATOM      1  C   UNL     1       0.059  -4.255  -0.021  0.00  0.00    +0.004 A 
ATOM      2  C   UNL     1       1.125  -4.928  -0.518  0.00  0.00    +0.056 A 
ATOM      3  S   UNL     1       0.668  -6.638  -0.304  0.00  0.00    -0.076 S 
ATOM      4  C   UNL     1      -0.926  -6.411   0.440  0.00  0.00    +0.116 A 
ATOM      5  C   UNL     1      -1.065  -5.015   0.510  0.00  0.00    +0.080 A 
ATOM      6  C   UNL     1      -2.287  -4.542   1.087  0.00  0.00    +0.260 A 
ATOM      7  O   UNL     1      -2.502  -3.347   1.187  0.00  0.00    -0.267 OA
ATOM      8  N   UNL     1      -3.196  -5.438   1.516  0.00  0.00    -0.312 N 
ATOM      9  H   UNL     1      -4.025  -5.123   1.907  0.00  0.00    +0.170 HD
ATOM     10  C   UNL     1      -2.973  -6.773   1.412  0.00  0.00    +0.094 A 
ATOM     11  N   UNL     1      -1.873  -7.235   0.881  0.00  0.00    -0.229 NA
ENDROOT
BRANCH   1  16
ATOM     12  C   UNL     1      -0.018   1.503   0.010  0.00  0.00    +0.044 C 
ATOM     13  C   UNL     1       0.002  -0.004   0.002  0.00  0.00    -0.050 A 
ATOM     14  C   UNL     1       0.006  -0.686  -1.202  0.00  0.00    +0.004 A 
ATOM     15  C   UNL     1       0.024  -2.066  -1.215  0.00  0.00    +0.009 A 
ATOM     16  C   UNL     1       0.040  -2.772  -0.013  0.00  0.00    -0.014 A 
ATOM     17  C   UNL     1       0.036  -2.079   1.196  0.00  0.00    -0.042 A 
ATOM     18  C   UNL     1       0.023  -0.699   1.198  0.00  0.00    +0.007 A 
ATOM     19  C   UNL     1       0.052  -2.836   2.500  0.00  0.00    +0.044 C 
ENDBRANCH   1  16
BRANCH  10  20
ATOM     20  C   UNL     1      -4.019  -7.739   1.905  0.00  0.00    -0.007 C 
BRANCH  20  21
ATOM     21  N   UNL     1      -3.557  -9.116   1.688  0.00  0.00    +0.386 N 
ATOM     22  H   UNL     1      -3.399  -9.266   0.702  0.00  0.00    -0.085 HD
ATOM     23  H   UNL     1      -2.696  -9.265   2.192  0.00  0.00    -0.085 HD
BRANCH  21  24
ATOM     24  C   UNL     1      -4.577 -10.057   2.169  0.00  0.00    -0.071 C 
ATOM     25  C   UNL     1      -4.726  -9.916   3.685  0.00  0.00    -0.016 C 
ATOM     26  C   UNL     1      -5.788 -10.896   4.186  0.00  0.00    -0.002 C 
ATOM     27  C   UNL     1      -5.363 -12.326   3.847  0.00  0.00    -0.000 C 
ATOM     28  C   UNL     1      -5.214 -12.468   2.331  0.00  0.00    -0.002 C 
ATOM     29  C   UNL     1      -4.151 -11.487   1.830  0.00  0.00    -0.016 C 
ENDBRANCH  21  24
ENDBRANCH  20  21
ENDBRANCH  10  20
TORSDOF 4
