REMARK  Name = ZINC42330432
REMARK  6 active torsions:
REMARK  status: ('A' for Active; 'I' for Inactive)
REMARK    1  A    between atoms: C_1  and  C_2
REMARK    2  A    between atoms: C_5  and  N_11
REMARK    3  A    between atoms: C_7  and  N_8
REMARK    4  A    between atoms: N_11  and  C_12
REMARK    5  A    between atoms: C_12  and  C_14
REMARK    6  A    between atoms: C_12  and  C_19
REMARK                            x       y       z     vdW  Elec       q    Type
REMARK                         _______ _______ _______ _____ _____    ______ ____
ROOT
ATOM      1  N   UNL     1       0.585  -3.992  -0.568  0.00  0.00    -0.336 N 
ATOM      2  H   UNL     1       1.491  -3.883  -0.238  0.00  0.00    +0.147 HD
ENDROOT
BRANCH   1   7
ATOM      3  C   UNL     1      -3.797  -2.147   2.522  0.00  0.00    +0.046 C 
ATOM      4  C   UNL     1      -2.633  -2.638   1.701  0.00  0.00    -0.020 A 
ATOM      5  C   UNL     1      -2.860  -3.354   0.540  0.00  0.00    +0.007 A 
ATOM      6  C   UNL     1      -1.795  -3.805  -0.214  0.00  0.00    +0.023 A 
ATOM      7  C   UNL     1      -0.494  -3.537   0.193  0.00  0.00    +0.030 A 
ATOM      8  C   UNL     1      -0.270  -2.817   1.360  0.00  0.00    +0.056 A 
ATOM      9  C   UNL     1      -1.339  -2.365   2.107  0.00  0.00    +0.131 A 
BRANCH   9  10
ATOM     10  N   UNL     1      -1.101  -1.593   3.347  0.00  0.00    +0.057 N 
ATOM     11  O   UNL     1      -1.827  -0.670   3.633  0.00  0.00    -0.126 OA
ATOM     12  O   UNL     1      -0.180  -1.884   4.073  0.00  0.00    -0.126 OA
ENDBRANCH   9  10
ENDBRANCH   1   7
BRANCH   1  13
ATOM     13  C   UNL     1       0.349  -4.634  -1.863  0.00  0.00    +0.110 C 
BRANCH  13  14
ATOM     14  C   UNL     1       0.050  -6.095  -1.653  0.00  0.00    +0.010 A 
ATOM     15  C   UNL     1      -0.857  -6.880  -2.285  0.00  0.00    +0.013 A 
ATOM     16  C   UNL     1      -0.959  -8.211  -1.923  0.00  0.00    +0.008 A 
ATOM     17  C   UNL     1      -0.149  -8.691  -0.948  0.00  0.00    +0.045 A 
ATOM     18  S   UNL     1       0.802  -7.245  -0.512  0.00  0.00    -0.100 S 
ENDBRANCH  13  14
BRANCH  13  19
ATOM     19  C   UNL     1       1.596  -4.489  -2.738  0.00  0.00    +0.014 C 
ATOM     20  C   UNL     1       1.408  -3.930  -4.150  0.00  0.00    +0.006 C 
ATOM     21  C   UNL     1       2.068  -3.072  -3.068  0.00  0.00    +0.006 C 
ENDBRANCH  13  19
ENDBRANCH   1  13
TORSDOF 5
