REMARK  Name = ZINC36234993
REMARK  8 active torsions:
REMARK  status: ('A' for Active; 'I' for Inactive)
REMARK    1  A    between atoms: C_1  and  C_2
REMARK    2  A    between atoms: C_2  and  C_3
REMARK    3  A    between atoms: C_3  and  C_4
REMARK    4  A    between atoms: C_4  and  C_5
REMARK    5  A    between atoms: C_6  and  C_25
REMARK    6  A    between atoms: C_8  and  S_11
REMARK    7  A    between atoms: S_11  and  C_12
REMARK    8  A    between atoms: C_12  and  C_13
REMARK                            x       y       z     vdW  Elec       q    Type
REMARK                         _______ _______ _______ _____ _____    ______ ____
ROOT
ATOM      1  C   UNL     1       3.343  -4.138  -6.760  0.00  0.00    +0.173 C 
ENDROOT
BRANCH   1   2
ATOM      2  C   UNL     1       3.312  -4.626  -8.186  0.00  0.00    +0.229 C 
ATOM      3  O   UNL     1       2.252  -4.737  -8.766  0.00  0.00    -0.275 OA
ATOM      4  N   UNL     1       4.461  -4.939  -8.816  0.00  0.00    -0.264 N 
ATOM      5  C   UNL     1       4.432  -5.389 -10.131  0.00  0.00    +0.165 A 
ATOM      6  N   UNL     1       3.389  -5.564 -10.912  0.00  0.00    -0.229 NA
ATOM      7  C   UNL     1       3.511  -6.005 -12.161  0.00  0.00    +0.054 A 
ATOM      8  C   UNL     1       4.786  -6.256 -12.555  0.00  0.00    +0.014 A 
ATOM      9  S   UNL     1       5.726  -5.836 -11.114  0.00  0.00    -0.057 S 
ATOM     10  C   UNL     1       5.248  -6.756 -13.882  0.00  0.00    +0.044 C 
ATOM     11  C   UNL     1       4.028  -7.301 -14.641  0.00  0.00    +0.006 C 
ATOM     12  C   UNL     1       2.891  -6.280 -14.546  0.00  0.00    +0.006 C 
ATOM     13  C   UNL     1       2.348  -6.227 -13.117  0.00  0.00    +0.056 C 
ATOM     14  H   UNL     1       5.308  -4.851  -8.352  0.00  0.00    +0.157 HD
ENDBRANCH   1   2
BRANCH   1  15
ATOM     15  S   UNL     1       1.651  -3.803  -6.199  0.00  0.00    -0.079 S 
BRANCH  15  19
ATOM     16  C   UNL     1       1.444  -2.513  -2.505  0.00  0.00    +0.039 A 
ATOM     17  C   UNL     1       2.769  -2.678  -2.659  0.00  0.00    +0.060 A 
ATOM     18  N   UNL     1       2.998  -3.126  -3.905  0.00  0.00    -0.227 NA
ATOM     19  C   UNL     1       1.855  -3.249  -4.538  0.00  0.00    +0.167 A 
ATOM     20  N   UNL     1       0.854  -2.879  -3.694  0.00  0.00    -0.336 N 
ATOM     21  H   UNL     1      -0.096  -2.873  -3.892  0.00  0.00    +0.168 HD
ATOM     22  C   UNL     1       3.819  -2.405  -1.613  0.00  0.00    +0.067 C 
BRANCH  16  23
ATOM     23  C   UNL     1       0.739  -2.027  -1.265  0.00  0.00    +0.055 C 
BRANCH  23  24
ATOM     24  C   UNL     1       0.718  -0.497  -1.257  0.00  0.00    +0.006 C 
BRANCH  24  26
ATOM     25  C   UNL     1      -0.019   1.526   0.010  0.00  0.00    +0.004 C 
ATOM     26  C   UNL     1       0.002  -0.004   0.002  0.00  0.00    -0.003 C 
ENDBRANCH  24  26
ENDBRANCH  23  24
ENDBRANCH  16  23
ENDBRANCH  15  19
ENDBRANCH   1  15
TORSDOF 6
