REMARK  Name = ZINC23422534
REMARK  10 active torsions:
REMARK  status: ('A' for Active; 'I' for Inactive)
REMARK    1  A    between atoms: C_1  and  C_2
REMARK    2  A    between atoms: C_2  and  C_4
REMARK    3  A    between atoms: C_2  and  N_11
REMARK    4  A    between atoms: C_12  and  C_14
REMARK    5  A    between atoms: C_14  and  S_15
REMARK    6  A    between atoms: S_15  and  C_16
REMARK    7  A    between atoms: C_19  and  C_22
REMARK    8  A    between atoms: N_20  and  N_21
REMARK    9  A    between atoms: C_25  and  O_28
REMARK   10  A    between atoms: O_28  and  C_29
REMARK                            x       y       z     vdW  Elec       q    Type
REMARK                         _______ _______ _______ _____ _____    ______ ____
ROOT
ATOM      1  C   UNL     1       0.108   0.797  -2.654  0.00  0.00    +0.209 A 
ATOM      2  N   UNL     1       1.202   0.070  -2.623  0.00  0.00    -0.121 NA
ATOM      3  N   UNL     1       1.706  -0.021  -3.801  0.00  0.00    -0.127 NA
ATOM      4  C   UNL     1       0.969   0.650  -4.656  0.00  0.00    +0.182 A 
ATOM      5  N   UNL     1      -0.077   1.195  -3.947  0.00  0.00    -0.224 N 
ENDROOT
BRANCH   4   6
ATOM      6  C   UNL     1       1.217   0.794  -6.106  0.00  0.00    +0.021 A 
ATOM      7  C   UNL     1       2.093  -0.077  -6.756  0.00  0.00    +0.015 A 
ATOM      8  C   UNL     1       2.318   0.057  -8.110  0.00  0.00    +0.046 A 
ATOM      9  C   UNL     1       1.682   1.064  -8.825  0.00  0.00    +0.120 A 
ATOM     10  C   UNL     1       0.814   1.935  -8.181  0.00  0.00    +0.046 A 
ATOM     11  C   UNL     1       0.580   1.804  -6.829  0.00  0.00    +0.015 A 
BRANCH   9  12
ATOM     12  O   UNL     1       1.911   1.197 -10.157  0.00  0.00    -0.495 OA
ATOM     13  C   UNL     1       2.815   0.267 -10.756  0.00  0.00    +0.277 C 
ENDBRANCH   9  12
ENDBRANCH   4   6
BRANCH   5  14
ATOM     14  N   UNL     1      -1.089   1.971  -4.436  0.00  0.00    -0.295 N 
ATOM     15  H   UNL     1      -1.123   2.221  -5.506  0.00  0.00    +0.163 HD
ATOM     16  H   UNL     1      -1.870   2.346  -3.758  0.00  0.00    +0.163 HD
ENDBRANCH   5  14
BRANCH   1  17
ATOM     17  S   UNL     1      -0.923   1.192  -1.281  0.00  0.00    -0.075 S 
BRANCH  17  18
ATOM     18  C   UNL     1      -0.038   0.324   0.038  0.00  0.00    +0.173 C 
BRANCH  18  20
ATOM     19  N   UNL     1      -0.280  -0.033   2.474  0.00  0.00    -0.308 N 
ATOM     20  C   UNL     1      -0.760   0.526   1.345  0.00  0.00    +0.224 C 
ATOM     21  O   UNL     1      -1.772   1.193   1.382  0.00  0.00    -0.275 OA
ATOM     22  H   UNL     1       0.639  -0.637   2.440  0.00  0.00    +0.149 HD
BRANCH  19  24
ATOM     23  C   UNL     1      -2.096  -0.875   3.878  0.00  0.00    +0.033 C 
ATOM     24  C   UNL     1      -0.981   0.164   3.744  0.00  0.00    +0.100 C 
BRANCH  24  25
ATOM     25  C   UNL     1      -0.008   0.007   4.885  0.00  0.00    -0.027 A 
ATOM     26  C   UNL     1       0.953  -0.986   4.842  0.00  0.00    +0.006 A 
ATOM     27  C   UNL     1       1.848  -1.127   5.885  0.00  0.00    +0.015 A 
ATOM     28  C   UNL     1       1.776  -0.281   6.977  0.00  0.00    +0.018 A 
ATOM     29  C   UNL     1       0.811   0.709   7.022  0.00  0.00    +0.015 A 
ATOM     30  C   UNL     1      -0.080   0.853   5.976  0.00  0.00    +0.006 A 
ATOM     31 BR   UNL     1       2.996  -0.479   8.408  0.00  0.00    -0.050 Br
ENDBRANCH  24  25
ENDBRANCH  19  24
ENDBRANCH  18  20
ENDBRANCH  17  18
ENDBRANCH   1  17
TORSDOF 8
