REMARK  Name = ZINC31192196
REMARK  8 active torsions:
REMARK  status: ('A' for Active; 'I' for Inactive)
REMARK    1  A    between atoms: C_1  and  C_2
REMARK    2  A    between atoms: C_4  and  O_5
REMARK    3  A    between atoms: C_14  and  C_16
REMARK    4  A    between atoms: C_16  and  C_17
REMARK    5  A    between atoms: C_16  and  N_21
REMARK    6  A    between atoms: C_17  and  C_18
REMARK    7  A    between atoms: C_18  and  S_19
REMARK    8  A    between atoms: S_19  and  C_20
REMARK                            x       y       z     vdW  Elec       q    Type
REMARK                         _______ _______ _______ _____ _____    ______ ____
ROOT
ATOM      1  C   UNL     1       0.308   1.444  -0.040  0.00  0.00    +0.045 C 
ATOM      2  C   UNL     1      -0.134   0.004   0.011  0.00  0.00    -0.033 A 
ATOM      3  C   UNL     1      -0.601  -0.632  -1.122  0.00  0.00    +0.091 A 
ATOM      4  C   UNL     1      -1.003  -1.958  -1.055  0.00  0.00    +0.285 A 
ATOM      5  O   UNL     1      -0.949  -2.645   0.091  0.00  0.00    -0.425 OA
ATOM      6  C   UNL     1      -0.501  -2.073   1.227  0.00  0.00    +0.141 A 
ATOM      7  C   UNL     1      -0.074  -0.726   1.217  0.00  0.00    +0.021 A 
ATOM      8  C   UNL     1       0.399  -0.128   2.398  0.00  0.00    +0.013 A 
ATOM      9  C   UNL     1       0.449  -0.848   3.550  0.00  0.00    +0.024 A 
ATOM     10  C   UNL     1       0.030  -2.190   3.568  0.00  0.00    +0.037 A 
ATOM     11  C   UNL     1      -0.451  -2.795   2.406  0.00  0.00    +0.070 A 
ATOM     12  N   UNL     1       0.086  -2.900   4.729  0.00  0.00    -0.284 N 
ATOM     13  C   UNL     1       0.004  -4.216   4.701  0.00  0.00    +0.238 C 
ATOM     14  O   UNL     1       0.002  -4.804   3.633  0.00  0.00    -0.273 OA
ATOM     15  H   UNL     1       0.185  -2.438   5.576  0.00  0.00    +0.155 HD
ENDROOT
BRANCH   4  16
ATOM     16  O   UNL     1      -1.456  -2.567  -2.168  0.00  0.00    -0.480 OA
ATOM     17  H   UNL     1      -1.715  -3.489  -2.034  0.00  0.00    +0.295 HD
ENDBRANCH   4  16
BRANCH  13  18
ATOM     18  C   UNL     1      -0.086  -4.993   5.989  0.00  0.00    +0.171 C 
BRANCH  18  19
ATOM     19  N   UNL     1      -0.166  -6.425   5.691  0.00  0.00    -0.230 N 
ATOM     20  C   UNL     1      -1.161  -6.978   4.945  0.00  0.00    +0.226 C 
ATOM     21  O   UNL     1      -2.201  -6.452   4.611  0.00  0.00    -0.275 OA
ATOM     22  C   UNL     1      -0.710  -8.367   4.622  0.00  0.00    +0.087 C 
ATOM     23  C   UNL     1      -1.727  -9.477   4.506  0.00  0.00    +0.013 C 
ATOM     24  C   UNL     1      -0.941 -10.771   4.226  0.00  0.00    +0.001 C 
ATOM     25  C   UNL     1       0.108 -11.048   5.297  0.00  0.00    +0.001 C 
ATOM     26  C   UNL     1       1.040  -9.839   5.516  0.00  0.00    +0.013 C 
ATOM     27  C   UNL     1       0.143  -8.678   5.888  0.00  0.00    +0.087 C 
ATOM     28  C   UNL     1       0.750  -7.331   6.127  0.00  0.00    +0.226 C 
ATOM     29  O   UNL     1       1.835  -7.094   6.613  0.00  0.00    -0.275 OA
ENDBRANCH  18  19
BRANCH  18  30
ATOM     30  C   UNL     1      -1.337  -4.561   6.758  0.00  0.00    +0.043 C 
BRANCH  30  31
ATOM     31  C   UNL     1      -1.364  -5.257   8.120  0.00  0.00    +0.071 C 
BRANCH  31  32
ATOM     32  S   UNL     1      -2.846  -4.746   9.031  0.00  0.00    -0.164 S 
ATOM     33  C   UNL     1      -2.729  -5.647  10.601  0.00  0.00    +0.084 C 
ENDBRANCH  31  32
ENDBRANCH  30  31
ENDBRANCH  18  30
ENDBRANCH  13  18
TORSDOF 6
