REMARK  Name = ZINC46672673
REMARK  7 active torsions:
REMARK  status: ('A' for Active; 'I' for Inactive)
REMARK    1  A    between atoms: C_4  and  S_7
REMARK    2  A    between atoms: S_7  and  N_10
REMARK    3  A    between atoms: C_14  and  C_17
REMARK    4  A    between atoms: N_19  and  C_20
REMARK    5  A    between atoms: C_20  and  C_21
REMARK    6  A    between atoms: C_21  and  C_23
REMARK    7  A    between atoms: C_21  and  N_30
REMARK                            x       y       z     vdW  Elec       q    Type
REMARK                         _______ _______ _______ _____ _____    ______ ____
ROOT
ATOM      1  C   UNL     1       2.319  -3.695   4.075  0.00  0.00    +0.217 C 
ATOM      2  O   UNL     1       2.461  -4.858   3.761  0.00  0.00    -0.275 OA
ATOM      3  N   UNL     1       2.036  -3.372   5.352  0.00  0.00    -0.316 N 
ATOM      4  H   UNL     1       1.922  -2.442   5.604  0.00  0.00    +0.149 HD
ENDROOT
BRANCH   1   9
ATOM      5  N   UNL     1       3.043  -2.170   0.709  0.00  0.00    -0.176 NA
ATOM      6  C   UNL     1       4.050  -1.151   1.036  0.00  0.00    +0.109 C 
ATOM      7  C   UNL     1       3.712  -0.544   2.401  0.00  0.00    +0.018 C 
ATOM      8  C   UNL     1       3.591  -1.664   3.438  0.00  0.00    +0.015 C 
ATOM      9  C   UNL     1       2.459  -2.612   3.037  0.00  0.00    +0.091 C 
ATOM     10  C   UNL     1       2.778  -3.239   1.681  0.00  0.00    +0.122 C 
BRANCH   5  11
ATOM     11  S   UNL     1       2.217  -2.110  -0.725  0.00  0.00    +0.061 S 
ATOM     12  O   UNL     1       1.774  -3.433  -0.994  0.00  0.00    -0.153 OA
ATOM     13  O   UNL     1       3.031  -1.380  -1.632  0.00  0.00    -0.153 OA
BRANCH  11  17
ATOM     14  C   UNL     1      -1.498   0.382  -0.029  0.00  0.00    +0.000 A 
ATOM     15  C   UNL     1      -0.326   0.988  -0.441  0.00  0.00    +0.002 A 
ATOM     16  C   UNL     1       0.809   0.228  -0.653  0.00  0.00    +0.028 A 
ATOM     17  C   UNL     1       0.771  -1.140  -0.453  0.00  0.00    +0.105 A 
ATOM     18  C   UNL     1      -0.400  -1.746  -0.040  0.00  0.00    +0.028 A 
ATOM     19  C   UNL     1      -1.535  -0.986   0.171  0.00  0.00    +0.002 A 
ENDBRANCH  11  17
ENDBRANCH   5  11
ENDBRANCH   1   9
BRANCH   3  20
ATOM     20  C   UNL     1       1.899  -4.425   6.361  0.00  0.00    +0.093 C 
BRANCH  20  21
ATOM     21  C   UNL     1       1.454  -3.806   7.688  0.00  0.00    -0.019 C 
BRANCH  21  22
ATOM     22  C   UNL     1       2.537  -2.894   8.205  0.00  0.00    -0.041 A 
ATOM     23  C   UNL     1       2.431  -1.527   8.030  0.00  0.00    +0.003 A 
ATOM     24  C   UNL     1       3.424  -0.691   8.504  0.00  0.00    +0.000 A 
ATOM     25  C   UNL     1       4.523  -1.220   9.155  0.00  0.00    +0.001 A 
ATOM     26  C   UNL     1       4.629  -2.587   9.330  0.00  0.00    +0.020 A 
ATOM     27  C   UNL     1       3.633  -3.425   8.861  0.00  0.00    +0.043 A 
ATOM     28 CL   UNL     1       3.763  -5.141   9.087  0.00  0.00    -0.083 Cl
ENDBRANCH  21  22
BRANCH  21  29
ATOM     29  N   UNL     1       0.222  -3.034   7.479  0.00  0.00    +0.385 N 
ATOM     30  C   UNL     1      -0.847  -3.912   6.937  0.00  0.00    -0.078 C 
ATOM     31  C   UNL     1      -2.148  -3.154   7.302  0.00  0.00    -0.020 C 
ATOM     32  C   UNL     1      -1.826  -2.569   8.696  0.00  0.00    -0.020 C 
ATOM     33  C   UNL     1      -0.289  -2.529   8.771  0.00  0.00    -0.078 C 
ATOM     34  H   UNL     1       0.395  -2.266   6.848  0.00  0.00    -0.081 HD
ENDBRANCH  21  29
ENDBRANCH  20  21
ENDBRANCH   3  20
TORSDOF 7
