REMARK  Name = ZINC42168466
REMARK  6 active torsions:
REMARK  status: ('A' for Active; 'I' for Inactive)
REMARK    1  A    between atoms: C_1  and  O_2
REMARK    2  A    between atoms: O_2  and  C_3
REMARK    3  A    between atoms: C_3  and  C_5
REMARK    4  A    between atoms: C_10  and  N_11
REMARK    5  A    between atoms: C_12  and  C_14
REMARK    6  A    between atoms: C_14  and  C_15
REMARK                            x       y       z     vdW  Elec       q    Type
REMARK                         _______ _______ _______ _____ _____    ______ ____
ROOT
ATOM      1  C   UNL     1      -0.204  -2.819  -2.107  0.00  0.00    +0.082 A 
ATOM      2  C   UNL     1      -0.720  -3.553  -1.036  0.00  0.00    +0.032 A 
ATOM      3  C   UNL     1       0.136  -4.199  -0.169  0.00  0.00    +0.020 A 
ATOM      4  C   UNL     1       1.508  -4.123  -0.354  0.00  0.00    +0.032 A 
ATOM      5  C   UNL     1       2.032  -3.401  -1.408  0.00  0.00    +0.041 A 
ATOM      6  C   UNL     1       1.185  -2.750  -2.295  0.00  0.00    +0.062 A 
ATOM      7 BR   UNL     1       3.906  -3.306  -1.648  0.00  0.00    -0.048 Br
ATOM      8 BR   UNL     1      -0.565  -5.191   1.280  0.00  0.00    -0.050 Br
ENDROOT
BRANCH   6   9
ATOM      9  N   UNL     1       1.712  -2.026  -3.363  0.00  0.00    -0.284 N 
ATOM     10  C   UNL     1       2.393  -2.661  -4.336  0.00  0.00    +0.216 C 
ATOM     11  O   UNL     1       2.495  -3.869  -4.316  0.00  0.00    -0.276 OA
ATOM     12  H   UNL     1       1.587  -1.065  -3.405  0.00  0.00    +0.155 HD
BRANCH  10  13
ATOM     13  C   UNL     1       3.030  -1.869  -5.450  0.00  0.00    +0.080 C 
BRANCH  13  14
ATOM     14  C   UNL     1       3.736  -2.824  -6.415  0.00  0.00    -0.063 C 
ATOM     15  C   UNL     1       4.460  -2.018  -7.514  0.00  0.00    -0.017 C 
ATOM     16  C   UNL     1       4.235  -2.879  -8.784  0.00  0.00    -0.021 C 
ATOM     17  C   UNL     1       2.807  -3.429  -8.540  0.00  0.00    -0.082 C 
ATOM     18  N   UNL     1       2.745  -3.687  -7.082  0.00  0.00    +0.381 N 
ATOM     19  H   UNL     1       2.958  -4.655  -6.897  0.00  0.00    -0.086 HD
ATOM     20  H   UNL     1       1.821  -3.472  -6.738  0.00  0.00    -0.086 HD
ENDBRANCH  13  14
ENDBRANCH  10  13
ENDBRANCH   6   9
BRANCH   1  21
ATOM     21  C   UNL     1      -1.113  -2.128  -3.038  0.00  0.00    +0.341 C 
ATOM     22  O   UNL     1      -0.669  -1.583  -4.029  0.00  0.00    -0.245 OA
BRANCH  21  24
ATOM     23  C   UNL     1      -3.260  -1.411  -3.735  0.00  0.00    +0.280 C 
ATOM     24  O   UNL     1      -2.437  -2.099  -2.790  0.00  0.00    -0.464 OA
ENDBRANCH  21  24
ENDBRANCH   1  21
TORSDOF 5
