REMARK  Name = ZINC20611076
REMARK  2 active torsions:
REMARK  status: ('A' for Active; 'I' for Inactive)
REMARK    1  A    between atoms: C_11  and  C_16
REMARK    2  A    between atoms: N_20  and  C_23
REMARK                            x       y       z     vdW  Elec       q    Type
REMARK                         _______ _______ _______ _____ _____    ______ ____
ROOT
ATOM      1  C   UNL     1      -0.016   1.361   0.009  0.00  0.00    +0.001 A 
ATOM      2  C   UNL     1       1.169   2.083   0.002  0.00  0.00    +0.002 A 
ATOM      3  C   UNL     1       2.385   1.435  -0.013  0.00  0.00    +0.026 A 
ATOM      4  C   UNL     1       2.428   0.045  -0.021  0.00  0.00    +0.047 A 
ATOM      5  C   UNL     1       1.222  -0.684  -0.013  0.00  0.00    +0.003 A 
ATOM      6  C   UNL     1       0.002  -0.004   0.002  0.00  0.00    +0.010 A 
ATOM      7  C   UNL     1       1.609  -2.088  -0.023  0.00  0.00    -0.022 A 
ATOM      8  C   UNL     1       2.957  -2.137  -0.038  0.00  0.00    +0.011 A 
ATOM      9  N   UNL     1       3.460  -0.869  -0.035  0.00  0.00    -0.359 N 
ATOM     10  H   UNL     1       4.404  -0.644  -0.043  0.00  0.00    +0.166 HD
ATOM     11  C   UNL     1       3.729  -3.436  -0.057  0.00  0.00    +0.018 C 
ATOM     12  N   UNL     1       2.821  -4.513  -0.479  0.00  0.00    +0.388 N 
ATOM     13  C   UNL     1       1.612  -4.516   0.355  0.00  0.00    -0.076 C 
ATOM     14  C   UNL     1       0.732  -3.313  -0.016  0.00  0.00    +0.018 C 
ATOM     15  H   UNL     1       2.562  -4.373  -1.444  0.00  0.00    -0.084 HD
ATOM     16  H   UNL     1       3.292  -5.402  -0.388  0.00  0.00    -0.084 HD
ENDROOT
BRANCH  11  17
ATOM     17  C   UNL     1       4.878  -3.327  -1.027  0.00  0.00    +0.073 A 
ATOM     18  C   UNL     1       6.165  -3.389  -0.583  0.00  0.00    +0.260 A 
ATOM     19  N   UNL     1       7.196  -3.288  -1.483  0.00  0.00    -0.275 N 
ATOM     20  C   UNL     1       6.941  -3.129  -2.795  0.00  0.00    +0.332 A 
ATOM     21  N   UNL     1       5.678  -3.066  -3.253  0.00  0.00    -0.258 N 
ATOM     22  C   UNL     1       4.636  -3.168  -2.403  0.00  0.00    +0.262 A 
ATOM     23  O   UNL     1       3.494  -3.115  -2.823  0.00  0.00    -0.267 OA
ATOM     24  O   UNL     1       7.867  -3.041  -3.578  0.00  0.00    -0.246 OA
ATOM     25  O   UNL     1       6.425  -3.547   0.733  0.00  0.00    -0.267 OA
ATOM     26  H   UNL     1       8.113  -3.331  -1.172  0.00  0.00    +0.173 HD
BRANCH  21  27
ATOM     27  C   UNL     1       5.431  -2.892  -4.686  0.00  0.00    +0.095 C 
ATOM     28  C   UNL     1       6.049  -4.062  -5.455  0.00  0.00    +0.025 C 
ATOM     29  C   UNL     1       5.792  -3.880  -6.953  0.00  0.00    +0.002 C 
ATOM     30  C   UNL     1       6.425  -2.569  -7.424  0.00  0.00    +0.000 C 
ATOM     31  C   UNL     1       5.807  -1.399  -6.654  0.00  0.00    +0.002 C 
ATOM     32  C   UNL     1       6.064  -1.581  -5.157  0.00  0.00    +0.025 C 
ENDBRANCH  21  27
ENDBRANCH  11  17
TORSDOF 2
