REMARK  Name = ZINC19945346
REMARK  4 active torsions:
REMARK  status: ('A' for Active; 'I' for Inactive)
REMARK    1  A    between atoms: C_1  and  C_2
REMARK    2  A    between atoms: C_4  and  N_12
REMARK    3  A    between atoms: C_5  and  C_10
REMARK    4  A    between atoms: N_8  and  C_9
REMARK                            x       y       z     vdW  Elec       q    Type
REMARK                         _______ _______ _______ _____ _____    ______ ____
ROOT
ATOM      1  C   UNL     1      -0.706   1.595   4.846  0.00  0.00    +0.063 C 
ATOM      2  C   UNL     1      -1.082   2.028   3.452  0.00  0.00    +0.020 A 
ATOM      3  C   UNL     1      -0.386   1.547   2.399  0.00  0.00    +0.045 A 
ATOM      4  C   UNL     1      -0.722   1.945   1.092  0.00  0.00    +0.055 A 
ATOM      5  C   UNL     1      -1.794   2.836   0.913  0.00  0.00    +0.137 A 
ATOM      6  C   UNL     1      -2.490   3.301   2.054  0.00  0.00    +0.271 A 
ATOM      7  O   UNL     1      -3.423   4.075   1.926  0.00  0.00    -0.266 OA
ATOM      8  N   UNL     1      -2.119   2.889   3.280  0.00  0.00    -0.315 N 
ATOM      9  C   UNL     1      -2.848   3.379   4.453  0.00  0.00    +0.152 C 
ENDROOT
BRANCH   4  10
ATOM     10  N   UNL     1      -0.018   1.467   0.010  0.00  0.00    -0.324 N 
ATOM     11  C   UNL     1      -0.057  -0.003  -0.037  0.00  0.00    +0.110 C 
ATOM     12  C   UNL     1       0.408  -0.457  -1.421  0.00  0.00    +0.054 C 
ATOM     13  C   UNL     1       1.711   0.214  -1.772  0.00  0.00    -0.041 A 
ATOM     14  C   UNL     1       2.470  -0.314  -2.806  0.00  0.00    +0.004 A 
ATOM     15  C   UNL     1       3.667   0.273  -3.163  0.00  0.00    +0.000 A 
ATOM     16  C   UNL     1       4.112   1.393  -2.486  0.00  0.00    +0.000 A 
ATOM     17  C   UNL     1       3.358   1.919  -1.456  0.00  0.00    +0.005 A 
ATOM     18  C   UNL     1       2.155   1.330  -1.096  0.00  0.00    -0.027 A 
ATOM     19  C   UNL     1       1.371   1.938   0.037  0.00  0.00    +0.140 C 
ENDBRANCH   4  10
BRANCH   5  20
ATOM     20  C   UNL     1      -2.175   3.264  -0.400  0.00  0.00    +0.106 C 
ATOM     21  N   UNL     1      -2.478   3.603  -1.441  0.00  0.00    -0.191 NA
ENDBRANCH   5  20
TORSDOF 2
