REMARK  Name = ZINC39383983
REMARK  6 active torsions:
REMARK  status: ('A' for Active; 'I' for Inactive)
REMARK    1  A    between atoms: C_1  and  N_2
REMARK    2  A    between atoms: C_4  and  C_21
REMARK    3  A    between atoms: N_9  and  C_14
REMARK    4  A    between atoms: N_23  and  C_24
REMARK    5  A    between atoms: C_24  and  C_25
REMARK    6  A    between atoms: C_25  and  C_26
REMARK                            x       y       z     vdW  Elec       q    Type
REMARK                         _______ _______ _______ _____ _____    ______ ____
ROOT
ATOM      1  C   UNL     1       1.619   0.782  -0.873  0.00  0.00    +0.130 C 
ATOM      2  N   UNL     1       0.986  -0.488  -0.508  0.00  0.00    -0.322 N 
ATOM      3  C   UNL     1       0.695  -1.507  -1.343  0.00  0.00    +0.085 C 
ATOM      4  C   UNL     1       0.305  -2.646  -0.655  0.00  0.00    +0.072 C 
ATOM      5  C   UNL     1       0.393  -2.397   0.720  0.00  0.00    +0.078 C 
ATOM      6  N   UNL     1       0.391  -3.165   1.778  0.00  0.00    -0.164 NA
ATOM      7  C   UNL     1       0.854  -2.645   2.933  0.00  0.00    +0.337 C 
ATOM      8  O   UNL     1       0.639  -3.235   3.975  0.00  0.00    -0.250 OA
ATOM      9  N   UNL     1       1.548  -1.494   2.964  0.00  0.00    -0.191 N 
ATOM     10  C   UNL     1       1.545  -0.627   1.921  0.00  0.00    +0.254 C 
ATOM     11  O   UNL     1       2.310   0.312   1.876  0.00  0.00    -0.272 OA
ATOM     12  C   UNL     1       0.557  -0.887   0.826  0.00  0.00    +0.208 C 
ENDROOT
BRANCH   9  13
ATOM     13  C   UNL     1       2.295  -1.180   4.108  0.00  0.00    +0.046 A 
ATOM     14  C   UNL     1       1.733  -0.407   5.115  0.00  0.00    +0.025 A 
ATOM     15  C   UNL     1       2.471  -0.100   6.241  0.00  0.00    +0.022 A 
ATOM     16  C   UNL     1       3.770  -0.560   6.366  0.00  0.00    +0.041 A 
ATOM     17  C   UNL     1       4.333  -1.330   5.363  0.00  0.00    +0.022 A 
ATOM     18  C   UNL     1       3.596  -1.646   4.238  0.00  0.00    +0.025 A 
ATOM     19 CL   UNL     1       4.696  -0.171   7.782  0.00  0.00    -0.084 Cl
ENDBRANCH   9  13
BRANCH   4  20
ATOM     20  C   UNL     1      -0.130  -3.909  -1.269  0.00  0.00    +0.247 C 
ATOM     21  O   UNL     1      -0.168  -4.015  -2.480  0.00  0.00    -0.270 OA
ATOM     22  N   UNL     1      -0.486  -4.950  -0.490  0.00  0.00    -0.311 N 
ATOM     23  H   UNL     1      -0.455  -4.865   0.476  0.00  0.00    +0.149 HD
BRANCH  22  24
ATOM     24  C   UNL     1      -0.919  -6.208  -1.102  0.00  0.00    +0.109 C 
BRANCH  24  25
ATOM     25  C   UNL     1      -1.264  -7.217  -0.004  0.00  0.00    +0.049 C 
BRANCH  25  26
ATOM     26  C   UNL     1      -1.710  -8.512  -0.633  0.00  0.00    -0.072 C 
ATOM     27  C   UNL     1      -0.827  -9.444  -0.793  0.00  0.00    -0.028 C 
ATOM     28  C   UNL     1      -1.117 -10.780  -1.413  0.00  0.00    +0.027 C 
ATOM     29  C   UNL     1      -2.625 -11.037  -1.427  0.00  0.00    +0.004 C 
ATOM     30  C   UNL     1      -3.323  -9.803  -2.014  0.00  0.00    +0.005 C 
ATOM     31  C   UNL     1      -3.151  -8.641  -1.030  0.00  0.00    +0.030 C 
ENDBRANCH  25  26
ENDBRANCH  24  25
ENDBRANCH  22  24
ENDBRANCH   4  20
TORSDOF 5
