REMARK  Name = ZINC03555121
REMARK  10 active torsions:
REMARK  status: ('A' for Active; 'I' for Inactive)
REMARK    1  A    between atoms: C_1  and  C_2
REMARK    2  A    between atoms: C_4  and  C_14
REMARK    3  A    between atoms: C_5  and  C_13
REMARK    4  A    between atoms: C_9  and  C_12
REMARK    5  A    between atoms: C_14  and  C_16
REMARK    6  A    between atoms: C_16  and  O_17
REMARK    7  A    between atoms: O_17  and  C_18
REMARK    8  A    between atoms: C_18  and  C_20
REMARK    9  A    between atoms: C_22  and  S_27
REMARK   10  A    between atoms: S_27  and  C_30
REMARK                            x       y       z     vdW  Elec       q    Type
REMARK                         _______ _______ _______ _____ _____    ______ ____
ROOT
ATOM      1  C   UNL     1       3.614   6.306   0.335  0.00  0.00    +0.202 C 
ATOM      2  O   UNL     1       4.566   5.554   0.287  0.00  0.00    -0.288 OA
ENDROOT
BRANCH   1   6
ATOM      3  C   UNL     1       2.744  11.308  -0.094  0.00  0.00    +0.064 C 
ATOM      4  C   UNL     1       3.405   9.955  -0.036  0.00  0.00    +0.023 A 
ATOM      5  C   UNL     1       2.773   8.788   0.172  0.00  0.00    +0.034 A 
ATOM      6  C   UNL     1       3.809   7.746   0.151  0.00  0.00    +0.042 A 
ATOM      7  C   UNL     1       5.002   8.401  -0.083  0.00  0.00    +0.033 A 
ATOM      8  N   UNL     1       4.743   9.719  -0.192  0.00  0.00    -0.299 N 
ATOM      9  C   UNL     1       5.705  10.706  -0.432  0.00  0.00    +0.181 A 
ATOM     10  C   UNL     1       5.629  11.758  -1.382  0.00  0.00    +0.094 A 
ATOM     11  C   UNL     1       6.793  12.427  -1.222  0.00  0.00    +0.136 A 
ATOM     12  O   UNL     1       7.469  11.794  -0.252  0.00  0.00    -0.358 OA
ATOM     13  N   UNL     1       6.852  10.847   0.178  0.00  0.00    -0.060 NA
ATOM     14  C   UNL     1       7.243  13.647  -1.984  0.00  0.00    +0.089 C 
ATOM     15  C   UNL     1       6.359   7.754  -0.197  0.00  0.00    +0.064 C 
ENDBRANCH   1   6
BRANCH   1  16
ATOM     16  C   UNL     1       2.233   5.758   0.583  0.00  0.00    +0.311 C 
BRANCH  16  17
ATOM     17  O   UNL     1       2.304   4.315   0.731  0.00  0.00    -0.453 OA
BRANCH  17  18
ATOM     18  C   UNL     1       1.146   3.666   0.960  0.00  0.00    +0.341 C 
ATOM     19  O   UNL     1       0.105   4.288   1.034  0.00  0.00    -0.245 OA
BRANCH  18  20
ATOM     20  C   UNL     1       1.142   2.198   1.121  0.00  0.00    +0.079 A 
ATOM     21  C   UNL     1       2.336   1.479   1.036  0.00  0.00    +0.043 A 
ATOM     22  C   UNL     1       2.325   0.109   1.186  0.00  0.00    +0.089 A 
ATOM     23  C   UNL     1       1.134  -0.556   1.421  0.00  0.00    +0.028 A 
ATOM     24  C   UNL     1      -0.053   0.148   1.507  0.00  0.00    +0.022 A 
ATOM     25  C   UNL     1      -0.058   1.521   1.358  0.00  0.00    +0.055 A 
ATOM     26 CL   UNL     1      -1.550   2.403   1.459  0.00  0.00    -0.083 Cl
BRANCH  22  27
ATOM     27  S   UNL     1       3.831  -0.799   1.078  0.00  0.00    -0.006 S 
ATOM     28  O   UNL     1       4.841   0.128   1.451  0.00  0.00    -0.170 OA
ATOM     29  O   UNL     1       3.604  -1.972   1.848  0.00  0.00    -0.170 OA
ATOM     30  C   UNL     1       3.993  -1.227  -0.677  0.00  0.00    +0.200 C 
ENDBRANCH  22  27
ENDBRANCH  18  20
ENDBRANCH  17  18
ENDBRANCH  16  17
ENDBRANCH   1  16
TORSDOF 6
