REMARK  Name = ZINC52212085
REMARK  5 active torsions:
REMARK  status: ('A' for Active; 'I' for Inactive)
REMARK    1  A    between atoms: C_1  and  C_2
REMARK    2  A    between atoms: C_7  and  C_8
REMARK    3  A    between atoms: N_13  and  C_14
REMARK    4  A    between atoms: C_14  and  C_15
REMARK    5  A    between atoms: C_18  and  C_20
REMARK                            x       y       z     vdW  Elec       q    Type
REMARK                         _______ _______ _______ _____ _____    ______ ____
ROOT
ATOM      1  C   UNL     1       0.025   0.045   2.504  0.00  0.00    -0.037 C 
ATOM      2  C   UNL     1      -1.418   0.447   2.898  0.00  0.00    -0.013 C 
ATOM      3  C   UNL     1      -1.294   0.592   4.438  0.00  0.00    -0.020 C 
ATOM      4  C   UNL     1      -0.293  -0.522   4.812  0.00  0.00    -0.077 C 
ATOM      5  N   UNL     1       0.486  -0.836   3.598  0.00  0.00    +0.390 N 
ATOM      6  H   UNL     1       0.340  -1.801   3.342  0.00  0.00    -0.080 HD
ENDROOT
BRANCH   1  13
ATOM      7  C   UNL     1       0.412   1.476   0.025  0.00  0.00    +0.044 C 
ATOM      8  C   UNL     1       0.208  -0.017   0.009  0.00  0.00    -0.049 A 
ATOM      9  C   UNL     1       0.212  -0.702  -1.192  0.00  0.00    +0.003 A 
ATOM     10  C   UNL     1       0.024  -2.072  -1.206  0.00  0.00    +0.000 A 
ATOM     11  C   UNL     1      -0.166  -2.756  -0.020  0.00  0.00    +0.000 A 
ATOM     12  C   UNL     1      -0.169  -2.071   1.180  0.00  0.00    +0.002 A 
ATOM     13  C   UNL     1       0.023  -0.702   1.195  0.00  0.00    -0.058 A 
ENDBRANCH   1  13
BRANCH   5  14
ATOM     14  C   UNL     1       1.915  -0.605   3.851  0.00  0.00    +0.021 C 
BRANCH  14  15
ATOM     15  C   UNL     1       2.409  -1.589   4.880  0.00  0.00    +0.202 A 
ATOM     16  N   UNL     1       2.912  -2.767   4.639  0.00  0.00    -0.114 NA
ATOM     17  N   UNL     1       3.228  -3.335   5.749  0.00  0.00    -0.107 NA
ATOM     18  C   UNL     1       2.935  -2.532   6.745  0.00  0.00    +0.249 A 
ATOM     19  O   UNL     1       2.416  -1.408   6.212  0.00  0.00    -0.422 OA
BRANCH  18  20
ATOM     20  C   UNL     1       3.142  -2.806   8.183  0.00  0.00    +0.052 A 
ATOM     21  C   UNL     1       2.776  -1.856   9.137  0.00  0.00    +0.014 A 
ATOM     22  C   UNL     1       2.971  -2.118  10.477  0.00  0.00    +0.001 A 
ATOM     23  C   UNL     1       3.529  -3.320  10.877  0.00  0.00    +0.001 A 
ATOM     24  C   UNL     1       3.895  -4.266   9.937  0.00  0.00    +0.016 A 
ATOM     25  C   UNL     1       3.700  -4.019   8.592  0.00  0.00    +0.030 A 
ATOM     26 BR   UNL     1       4.194  -5.316   7.308  0.00  0.00    -0.050 Br
ENDBRANCH  18  20
ENDBRANCH  14  15
ENDBRANCH   5  14
TORSDOF 4
