REMARK  Name = ZINC05311225
REMARK  9 active torsions:
REMARK  status: ('A' for Active; 'I' for Inactive)
REMARK    1  A    between atoms: C_1  and  C_2
REMARK    2  A    between atoms: C_7  and  O_8
REMARK    3  A    between atoms: O_8  and  C_9
REMARK    4  A    between atoms: C_9  and  C_10
REMARK    5  A    between atoms: C_10  and  O_11
REMARK    6  A    between atoms: O_11  and  C_12
REMARK    7  A    between atoms: C_12  and  C_14
REMARK    8  A    between atoms: C_15  and  C_26
REMARK    9  A    between atoms: C_21  and  C_25
REMARK                            x       y       z     vdW  Elec       q    Type
REMARK                         _______ _______ _______ _____ _____    ______ ____
ROOT
ATOM      1  C   UNL     1      -1.345   1.694   5.864  0.00  0.00    +0.346 C 
ATOM      2  O   UNL     1      -0.465   1.828   6.692  0.00  0.00    -0.244 OA
ENDROOT
BRANCH   1   3
ATOM      3  C   UNL     1      -2.581   2.472   5.977  0.00  0.00    +0.102 A 
ATOM      4  C   UNL     1      -2.926   3.390   6.926  0.00  0.00    -0.015 A 
ATOM      5  C   UNL     1      -4.165   4.030   6.856  0.00  0.00    +0.076 A 
ATOM      6  C   UNL     1      -4.745   5.047   7.761  0.00  0.00    +0.260 A 
ATOM      7  O   UNL     1      -4.127   5.445   8.732  0.00  0.00    -0.267 OA
ATOM      8  N   UNL     1      -5.976   5.522   7.483  0.00  0.00    -0.311 N 
ATOM      9  H   UNL     1      -6.370   6.189   8.067  0.00  0.00    +0.170 HD
ATOM     10  C   UNL     1      -6.673   5.087   6.405  0.00  0.00    +0.108 A 
ATOM     11  N   UNL     1      -6.190   4.191   5.587  0.00  0.00    -0.227 NA
ATOM     12  C   UNL     1      -4.989   3.659   5.768  0.00  0.00    +0.116 A 
ATOM     13  S   UNL     1      -4.007   2.459   4.904  0.00  0.00    -0.062 S 
ATOM     14  C   UNL     1      -8.044   5.653   6.144  0.00  0.00    +0.086 C 
ATOM     15  C   UNL     1      -1.971   3.714   8.046  0.00  0.00    +0.046 C 
ENDBRANCH   1   3
BRANCH   1  16
ATOM     16  O   UNL     1      -1.183   0.829   4.841  0.00  0.00    -0.457 OA
BRANCH  16  17
ATOM     17  C   UNL     1       0.047   0.104   4.793  0.00  0.00    +0.273 C 
BRANCH  17  18
ATOM     18  C   UNL     1       0.048  -0.820   3.574  0.00  0.00    +0.270 C 
BRANCH  18  19
ATOM     19  O   UNL     1       0.025  -0.033   2.381  0.00  0.00    -0.488 OA
BRANCH  19  26
ATOM     20  C   UNL     1      -0.018   1.503   0.010  0.00  0.00    +0.047 C 
ATOM     21  C   UNL     1       0.002  -0.004   0.002  0.00  0.00    -0.009 A 
ATOM     22  C   UNL     1       0.006  -0.689  -1.198  0.00  0.00    +0.007 A 
ATOM     23  C   UNL     1       0.024  -2.071  -1.206  0.00  0.00    +0.000 A 
ATOM     24  C   UNL     1       0.039  -2.772  -0.014  0.00  0.00    +0.004 A 
ATOM     25  C   UNL     1       0.036  -2.092   1.188  0.00  0.00    +0.046 A 
ATOM     26  C   UNL     1       0.023  -0.705   1.199  0.00  0.00    +0.124 A 
ENDBRANCH  19  26
ENDBRANCH  18  19
ENDBRANCH  17  18
ENDBRANCH  16  17
ENDBRANCH   1  16
TORSDOF 6
