REMARK  Name = ZINC06851520
REMARK  7 active torsions:
REMARK  status: ('A' for Active; 'I' for Inactive)
REMARK    1  A    between atoms: C_1  and  C_2
REMARK    2  A    between atoms: C_7  and  N_12
REMARK    3  A    between atoms: C_9  and  C_11
REMARK    4  A    between atoms: C_15  and  C_19
REMARK    5  A    between atoms: C_15  and  N_23
REMARK    6  A    between atoms: C_17  and  O_18
REMARK    7  A    between atoms: C_24  and  C_26
REMARK                            x       y       z     vdW  Elec       q    Type
REMARK                         _______ _______ _______ _____ _____    ______ ____
ROOT
ATOM      1  N   UNL     1       1.523  -2.422   2.315  0.00  0.00    -0.219 N 
ATOM      2  C   UNL     1       2.592  -3.245   2.277  0.00  0.00    +0.279 C 
ATOM      3  O   UNL     1       3.093  -3.760   1.300  0.00  0.00    -0.270 OA
ATOM      4  C   UNL     1       3.033  -3.385   3.721  0.00  0.00    +0.304 C 
ATOM      5  N   UNL     1       2.074  -2.550   4.464  0.00  0.00    -0.192 NA
ATOM      6  C   UNL     1       1.256  -2.035   3.603  0.00  0.00    +0.288 C 
ENDROOT
BRANCH   1  12
ATOM      7  C   UNL     1      -1.591  -3.937  -1.213  0.00  0.00    +0.008 C 
ATOM      8  C   UNL     1      -0.817  -2.744  -0.649  0.00  0.00    -0.009 C 
ATOM      9  C   UNL     1       0.140  -2.207  -1.715  0.00  0.00    +0.003 C 
ATOM     10  C   UNL     1       0.915  -1.014  -1.151  0.00  0.00    +0.002 C 
ATOM     11  C   UNL     1       1.714  -1.459   0.075  0.00  0.00    +0.023 C 
ATOM     12  C   UNL     1       0.757  -1.996   1.141  0.00  0.00    +0.089 C 
ATOM     13  C   UNL     1      -0.017  -3.189   0.577  0.00  0.00    +0.010 C 
ATOM     14  C   UNL     1       0.966  -4.290   0.173  0.00  0.00    +0.009 C 
ENDBRANCH   1  12
BRANCH   4  15
ATOM     15  C   UNL     1       2.938  -4.843   4.173  0.00  0.00    +0.440 C 
ATOM     16  F   UNL     1       3.764  -5.635   3.368  0.00  0.00    -0.166 F 
ATOM     17  F   UNL     1       3.348  -4.946   5.506  0.00  0.00    -0.166 F 
ATOM     18  F   UNL     1       1.614  -5.282   4.057  0.00  0.00    -0.166 F 
ENDBRANCH   4  15
BRANCH   4  19
ATOM     19  N   UNL     1       4.397  -2.879   3.894  0.00  0.00    -0.270 N 
ATOM     20  C   UNL     1       5.413  -3.434   3.206  0.00  0.00    +0.282 C 
ATOM     21  O   UNL     1       5.199  -4.355   2.440  0.00  0.00    -0.267 OA
ATOM     22  H   UNL     1       4.568  -2.145   4.505  0.00  0.00    +0.152 HD
BRANCH  20  23
ATOM     23  C   UNL     1       6.779  -2.928   3.379  0.00  0.00    +0.189 A 
ATOM     24  C   UNL     1       7.894  -3.393   2.742  0.00  0.00    +0.054 A 
ATOM     25  C   UNL     1       8.973  -2.624   3.205  0.00  0.00    +0.042 A 
ATOM     26  C   UNL     1       8.476  -1.734   4.093  0.00  0.00    +0.196 A 
ATOM     27  O   UNL     1       7.153  -1.917   4.191  0.00  0.00    -0.458 OA
ENDBRANCH  20  23
ENDBRANCH   4  19
BRANCH   6  28
ATOM     28  O   UNL     1       0.244  -1.206   3.939  0.00  0.00    -0.481 OA
ATOM     29  H   UNL     1       0.182  -1.025   4.887  0.00  0.00    +0.295 HD
ENDBRANCH   6  28
TORSDOF 5
