REMARK  Name = ZINC39942531
REMARK  7 active torsions:
REMARK  status: ('A' for Active; 'I' for Inactive)
REMARK    1  A    between atoms: C_1  and  N_2
REMARK    2  A    between atoms: N_2  and  C_3
REMARK    3  A    between atoms: C_11  and  C_13
REMARK    4  A    between atoms: C_13  and  S_14
REMARK    5  A    between atoms: S_14  and  C_15
REMARK    6  A    between atoms: C_19  and  C_24
REMARK    7  A    between atoms: N_20  and  C_21
REMARK                            x       y       z     vdW  Elec       q    Type
REMARK                         _______ _______ _______ _____ _____    ______ ____
ROOT
ATOM      1  C   UNL     1      -0.024  -0.018  -5.396  0.00  0.00    +0.237 C 
ATOM      2  N   UNL     1      -1.189   0.871  -5.537  0.00  0.00    -0.237 N 
ATOM      3  N   UNL     1      -0.719   2.176  -5.344  0.00  0.00    -0.169 NA
ATOM      4  C   UNL     1       0.567   2.187  -5.107  0.00  0.00    +0.147 C 
ATOM      5  N   UNL     1       1.099   0.892  -5.117  0.00  0.00    -0.282 N 
ATOM      6  H   UNL     1      -2.102   0.606  -5.726  0.00  0.00    +0.171 HD
ENDROOT
BRANCH   4   7
ATOM      7  C   UNL     1       1.318   3.349  -4.875  0.00  0.00    +0.022 C 
ATOM      8  C   UNL     1       0.839   4.654  -4.755  0.00  0.00    +0.006 A 
ATOM      9  C   UNL     1      -0.460   5.202  -4.819  0.00  0.00    +0.010 A 
ATOM     10  C   UNL     1      -0.636   6.539  -4.662  0.00  0.00    +0.001 A 
ATOM     11  C   UNL     1       0.443   7.396  -4.435  0.00  0.00    +0.002 A 
ATOM     12  C   UNL     1       1.717   6.939  -4.361  0.00  0.00    +0.026 A 
ATOM     13  C   UNL     1       1.979   5.553  -4.516  0.00  0.00    +0.043 A 
ATOM     14  N   UNL     1       3.107   4.870  -4.486  0.00  0.00    -0.380 N 
ATOM     15  C   UNL     1       2.817   3.448  -4.697  0.00  0.00    +0.152 C 
ATOM     16  H   UNL     1       3.989   5.248  -4.343  0.00  0.00    +0.160 HD
ENDBRANCH   4   7
BRANCH   5  17
ATOM     17  C   UNL     1       2.497   0.515  -4.894  0.00  0.00    +0.078 C 
ATOM     18  C   UNL     1       2.863  -0.963  -5.046  0.00  0.00    +0.024 C 
ATOM     19  C   UNL     1       2.813  -0.326  -3.655  0.00  0.00    +0.024 C 
ENDBRANCH   5  17
BRANCH   1  20
ATOM     20  S   UNL     1      -0.267  -1.168  -4.014  0.00  0.00    -0.109 S 
BRANCH  20  21
ATOM     21  C   UNL     1      -0.560  -0.085  -2.588  0.00  0.00    +0.168 C 
BRANCH  21  24
ATOM     22  C   UNL     1      -1.063   1.130  -0.078  0.00  0.00    +0.132 C 
ATOM     23  N   UNL     1      -1.018  -0.331  -0.170  0.00  0.00    -0.299 N 
ATOM     24  C   UNL     1      -0.780  -0.925  -1.357  0.00  0.00    +0.226 C 
ATOM     25  O   UNL     1      -0.743  -2.135  -1.433  0.00  0.00    -0.275 OA
BRANCH  23  26
ATOM     26  C   UNL     1      -1.232  -1.148   1.027  0.00  0.00    +0.098 C 
ATOM     27  C   UNL     1      -0.168  -0.798   2.080  0.00  0.00    +0.046 C 
ATOM     28  C   UNL     1      -0.597  -1.434   3.433  0.00  0.00    +0.168 C 
ATOM     29  S   UNL     1      -2.409  -1.100   3.402  0.00  0.00    -0.029 S 
ATOM     30  O   UNL     1      -3.102  -2.271   3.814  0.00  0.00    -0.174 OA
ATOM     31  O   UNL     1      -2.663   0.132   4.064  0.00  0.00    -0.174 OA
ATOM     32  C   UNL     1      -2.645  -0.868   1.594  0.00  0.00    +0.188 C 
ENDBRANCH  23  26
ENDBRANCH  21  24
ENDBRANCH  20  21
ENDBRANCH   1  20
TORSDOF 6
