REMARK  Name = ZINC49586993
REMARK  4 active torsions:
REMARK  status: ('A' for Active; 'I' for Inactive)
REMARK    1  A    between atoms: C_7  and  C_23
REMARK    2  A    between atoms: N_9  and  C_12
REMARK    3  A    between atoms: C_12  and  C_13
REMARK    4  A    between atoms: C_16  and  C_18
REMARK                            x       y       z     vdW  Elec       q    Type
REMARK                         _______ _______ _______ _____ _____    ______ ____
ROOT
ATOM      1  C   UNL     1      -0.017   1.375  -0.028  0.00  0.00    +0.001 A 
ATOM      2  C   UNL     1       1.166   2.102  -0.035  0.00  0.00    +0.001 A 
ATOM      3  C   UNL     1       2.387   1.461  -0.037  0.00  0.00    +0.014 A 
ATOM      4  C   UNL     1       2.427   0.070  -0.033  0.00  0.00    +0.050 A 
ATOM      5  C   UNL     1       1.222  -0.670  -0.026  0.00  0.00    +0.022 A 
ATOM      6  C   UNL     1       0.002  -0.004  -0.024  0.00  0.00    +0.011 A 
ATOM      7  C   UNL     1       1.330  -2.139  -0.021  0.00  0.00    +0.180 A 
ATOM      8  N   UNL     1       2.519  -2.693  -0.024  0.00  0.00    -0.160 NA
ATOM      9  N   UNL     1       3.618  -2.039  -0.030  0.00  0.00    -0.222 N 
ATOM     10  C   UNL     1       3.683  -0.692  -0.035  0.00  0.00    +0.275 A 
ATOM     11  O   UNL     1       4.758  -0.121  -0.041  0.00  0.00    -0.266 OA
ENDROOT
BRANCH   7  12
ATOM     12  C   UNL     1       0.117  -2.974  -0.014  0.00  0.00    +0.407 C 
ATOM     13  O   UNL     1       0.211  -4.190  -0.113  0.00  0.00    -0.239 OA
ATOM     14  O   UNL     1      -0.985  -2.453   0.091  0.00  0.00    -0.239 OA
ENDBRANCH   7  12
BRANCH   9  15
ATOM     15  C   UNL     1       4.874  -2.794  -0.032  0.00  0.00    +0.203 C 
BRANCH  15  16
ATOM     16  C   UNL     1       5.309  -3.048   1.389  0.00  0.00    +0.076 A 
ATOM     17  C   UNL     1       6.168  -2.296   2.099  0.00  0.00    +0.220 A 
ATOM     18  O   UNL     1       6.286  -2.864   3.317  0.00  0.00    -0.445 OA
ATOM     19  C   UNL     1       5.500  -3.955   3.338  0.00  0.00    +0.212 A 
ATOM     20  N   UNL     1       4.904  -4.061   2.170  0.00  0.00    -0.324 N 
ATOM     21  H   UNL     1       4.279  -4.757   1.915  0.00  0.00    +0.169 HD
BRANCH  19  22
ATOM     22  C   UNL     1       5.330  -4.870   4.475  0.00  0.00    +0.072 A 
ATOM     23  C   UNL     1       5.908  -4.818   5.730  0.00  0.00    +0.021 A 
ATOM     24  C   UNL     1       5.590  -5.801   6.638  0.00  0.00    +0.008 A 
ATOM     25  C   UNL     1       4.725  -6.785   6.278  0.00  0.00    +0.046 A 
ATOM     26  S   UNL     1       4.317  -6.335   4.599  0.00  0.00    -0.092 S 
ENDBRANCH  19  22
ENDBRANCH  15  16
ENDBRANCH   9  15
TORSDOF 4
