REMARK  Name = ZINC09243647
REMARK  9 active torsions:
REMARK  status: ('A' for Active; 'I' for Inactive)
REMARK    1  A    between atoms: C_1  and  C_2
REMARK    2  A    between atoms: C_4  and  O_37
REMARK    3  A    between atoms: C_5  and  C_9
REMARK    4  A    between atoms: N_17  and  C_27
REMARK    5  A    between atoms: C_18  and  C_20
REMARK    6  A    between atoms: C_27  and  C_28
REMARK    7  A    between atoms: C_28  and  C_29
REMARK    8  A    between atoms: C_32  and  O_35
REMARK    9  A    between atoms: O_35  and  C_36
REMARK                            x       y       z     vdW  Elec       q    Type
REMARK                         _______ _______ _______ _____ _____    ______ ____
ROOT
ATOM      1  C   UNL     1       0.058  -4.256  -0.011  0.00  0.00    +0.075 A 
ATOM      2  C   UNL     1       1.056  -5.053  -0.475  0.00  0.00    +0.035 A 
ATOM      3  C   UNL     1       0.621  -6.382  -0.268  0.00  0.00    +0.153 A 
ATOM      4  N   UNL     1      -0.572  -6.312   0.288  0.00  0.00    -0.168 NA
ATOM      5  N   UNL     1      -0.921  -5.086   0.454  0.00  0.00    -0.276 N 
ATOM      6  H   UNL     1      -1.758  -4.794   0.849  0.00  0.00    +0.189 HD
ATOM      7  C   UNL     1       1.677  -7.286  -0.758  0.00  0.00    +0.268 C 
ATOM      8  O   UNL     1       1.619  -8.500  -0.728  0.00  0.00    -0.268 OA
ATOM      9  N   UNL     1       2.712  -6.579  -1.243  0.00  0.00    -0.285 N 
ATOM     10  C   UNL     1       2.417  -5.147  -1.109  0.00  0.00    +0.141 C 
ENDROOT
BRANCH   1  15
ATOM     11  C   UNL     1      -0.018   1.503   0.010  0.00  0.00    +0.045 C 
ATOM     12  C   UNL     1       0.002  -0.004   0.002  0.00  0.00    -0.029 A 
ATOM     13  C   UNL     1       0.006  -0.685  -1.201  0.00  0.00    +0.050 A 
ATOM     14  C   UNL     1       0.024  -2.070  -1.215  0.00  0.00    +0.126 A 
ATOM     15  C   UNL     1       0.039  -2.777  -0.007  0.00  0.00    +0.043 A 
ATOM     16  C   UNL     1       0.036  -2.080   1.201  0.00  0.00    +0.034 A 
ATOM     17  C   UNL     1       0.023  -0.699   1.199  0.00  0.00    +0.045 A 
ATOM     18 CL   UNL     1       0.026   0.168   2.703  0.00  0.00    -0.083 Cl
BRANCH  14  19
ATOM     19  O   UNL     1       0.027  -2.740  -2.397  0.00  0.00    -0.506 OA
ATOM     20  H   UNL     1       0.911  -2.922  -2.744  0.00  0.00    +0.292 HD
ENDBRANCH  14  19
ENDBRANCH   1  15
BRANCH  10  21
ATOM     21  C   UNL     1       3.446  -4.487  -0.228  0.00  0.00    -0.022 A 
ATOM     22  C   UNL     1       3.937  -5.154   0.879  0.00  0.00    +0.008 A 
ATOM     23  C   UNL     1       4.881  -4.550   1.687  0.00  0.00    +0.038 A 
ATOM     24  C   UNL     1       5.334  -3.276   1.388  0.00  0.00    +0.123 A 
ATOM     25  C   UNL     1       4.841  -2.609   0.280  0.00  0.00    +0.038 A 
ATOM     26  C   UNL     1       3.901  -3.218  -0.531  0.00  0.00    +0.008 A 
ATOM     27  F   UNL     1       6.257  -2.684   2.178  0.00  0.00    -0.205 F 
ENDBRANCH  10  21
BRANCH   9  28
ATOM     28  C   UNL     1       3.937  -7.145  -1.812  0.00  0.00    +0.114 C 
BRANCH  28  29
ATOM     29  C   UNL     1       3.754  -7.346  -3.318  0.00  0.00    +0.054 C 
BRANCH  29  30
ATOM     30  C   UNL     1       5.014  -7.928  -3.905  0.00  0.00    -0.046 A 
ATOM     31  C   UNL     1       6.012  -7.091  -4.366  0.00  0.00    +0.007 A 
ATOM     32  C   UNL     1       7.168  -7.622  -4.904  0.00  0.00    +0.046 A 
ATOM     33  C   UNL     1       7.327  -8.998  -4.981  0.00  0.00    +0.120 A 
ATOM     34  C   UNL     1       6.324  -9.837  -4.517  0.00  0.00    +0.046 A 
ATOM     35  C   UNL     1       5.172  -9.300  -3.975  0.00  0.00    +0.007 A 
BRANCH  33  36
ATOM     36  O   UNL     1       8.463  -9.524  -5.510  0.00  0.00    -0.495 OA
ATOM     37  C   UNL     1       8.557 -10.949  -5.558  0.00  0.00    +0.277 C 
ENDBRANCH  33  36
ENDBRANCH  29  30
ENDBRANCH  28  29
ENDBRANCH   9  28
TORSDOF 7
