REMARK  Name = ZINC23186194
REMARK  13 active torsions:
REMARK  status: ('A' for Active; 'I' for Inactive)
REMARK    1  A    between atoms: C_1  and  C_2
REMARK    2  A    between atoms: C_2  and  C_3
REMARK    3  A    between atoms: C_2  and  C_4
REMARK    4  A    between atoms: C_4  and  C_6
REMARK    5  A    between atoms: C_4  and  N_16
REMARK    6  A    between atoms: C_17  and  C_19
REMARK    7  A    between atoms: C_19  and  N_20
REMARK    8  A    between atoms: N_20  and  C_21
REMARK    9  A    between atoms: N_20  and  C_32
REMARK   10  A    between atoms: C_21  and  C_22
REMARK   11  A    between atoms: C_25  and  C_28
REMARK   12  A    between atoms: N_30  and  C_31
REMARK   13  A    between atoms: C_32  and  C_33
REMARK                            x       y       z     vdW  Elec       q    Type
REMARK                         _______ _______ _______ _____ _____    ______ ____
ROOT
ATOM      1  N   UNL     1      -7.675  -1.149   2.779  0.00  0.00    +0.393 N 
ATOM      2  H   UNL     1      -7.971  -1.704   1.877  0.00  0.00    -0.080 HD
ENDROOT
BRANCH   1   3
ATOM      3  C   UNL     1      -6.626  -0.195   2.398  0.00  0.00    +0.020 C 
BRANCH   3   5
ATOM      4  N   UNL     1      -4.665  -0.145   0.891  0.00  0.00    -0.310 N 
ATOM      5  C   UNL     1      -5.662  -0.860   1.450  0.00  0.00    +0.197 C 
ATOM      6  O   UNL     1      -5.784  -2.038   1.189  0.00  0.00    -0.278 OA
ATOM      7  H   UNL     1      -4.555   0.923   1.127  0.00  0.00    +0.149 HD
BRANCH   4   8
ATOM      8  C   UNL     1      -3.728  -0.792  -0.031  0.00  0.00    +0.106 C 
BRANCH   8   9
ATOM      9  C   UNL     1      -2.424  -0.037  -0.034  0.00  0.00    -0.023 A 
ATOM     10  C   UNL     1      -2.427   1.345   0.003  0.00  0.00    +0.009 A 
ATOM     11  C   UNL     1      -1.234   2.042  -0.004  0.00  0.00    +0.050 A 
ATOM     12  C   UNL     1      -0.029   1.356  -0.041  0.00  0.00    +0.162 A 
ATOM     13  C   UNL     1      -0.025  -0.034  -0.076  0.00  0.00    +0.162 A 
ATOM     14  C   UNL     1      -1.227  -0.726  -0.073  0.00  0.00    +0.055 A 
ATOM     15  O   UNL     1       1.145  -0.727  -0.112  0.00  0.00    -0.485 OA
ATOM     16  C   UNL     1       2.315   0.006  -0.492  0.00  0.00    +0.270 C 
ATOM     17  C   UNL     1       2.326   1.329   0.285  0.00  0.00    +0.270 C 
ATOM     18  O   UNL     1       1.139   2.055  -0.049  0.00  0.00    -0.485 OA
ENDBRANCH   8   9
BRANCH   8  20
ATOM     19  C   UNL     1      -4.450   0.647  -1.942  0.00  0.00    +0.009 C 
ATOM     20  C   UNL     1      -4.319  -0.794  -1.442  0.00  0.00    +0.008 C 
ATOM     21  C   UNL     1      -3.399  -1.578  -2.380  0.00  0.00    +0.009 C 
ENDBRANCH   8  20
ENDBRANCH   4   8
ENDBRANCH   3   5
ENDBRANCH   1   3
BRANCH   1  22
ATOM     22  C   UNL     1      -7.173  -2.119   3.761  0.00  0.00    -0.042 C 
BRANCH  22  23
ATOM     23  C   UNL     1      -8.186  -3.220   3.944  0.00  0.00    -0.064 A 
ATOM     24  C   UNL     1      -9.165  -3.101   4.914  0.00  0.00    +0.002 A 
ATOM     25  C   UNL     1     -10.098  -4.103   5.083  0.00  0.00    +0.013 A 
ATOM     26  C   UNL     1     -10.046  -5.243   4.280  0.00  0.00    +0.037 A 
ATOM     27  C   UNL     1      -9.052  -5.359   3.307  0.00  0.00    +0.013 A 
ATOM     28  C   UNL     1      -8.129  -4.348   3.145  0.00  0.00    +0.002 A 
BRANCH  26  29
ATOM     29  C   UNL     1     -11.040  -6.323   4.459  0.00  0.00    +0.244 C 
ATOM     30  O   UNL     1     -10.992  -7.315   3.758  0.00  0.00    -0.270 OA
ATOM     31  N   UNL     1     -11.998  -6.208   5.400  0.00  0.00    -0.314 N 
ATOM     32  C   UNL     1     -12.983  -7.278   5.577  0.00  0.00    +0.128 C 
ATOM     33  H   UNL     1     -12.041  -5.311   6.034  0.00  0.00    +0.149 HD
ENDBRANCH  26  29
ENDBRANCH  22  23
ENDBRANCH   1  22
BRANCH   1  34
ATOM     34  C   UNL     1      -8.863  -0.451   3.289  0.00  0.00    -0.002 C 
BRANCH  34  35
ATOM     35  C   UNL     1      -9.615   0.167   2.138  0.00  0.00    +0.089 A 
ATOM     36  C   UNL     1     -10.524  -0.456   1.367  0.00  0.00    +0.042 A 
ATOM     37  C   UNL     1     -10.974   0.490   0.418  0.00  0.00    +0.041 A 
ATOM     38  C   UNL     1     -10.313   1.635   0.666  0.00  0.00    +0.195 A 
ATOM     39  O   UNL     1      -9.495   1.435   1.712  0.00  0.00    -0.470 OA
ENDBRANCH  34  35
ENDBRANCH   1  34
TORSDOF 10
