REMARK  Name = ZINC63194332
REMARK  7 active torsions:
REMARK  status: ('A' for Active; 'I' for Inactive)
REMARK    1  A    between atoms: C_7  and  C_10
REMARK    2  A    between atoms: C_10  and  C_11
REMARK    3  A    between atoms: C_11  and  C_13
REMARK    4  A    between atoms: C_11  and  N_25
REMARK    5  A    between atoms: N_15  and  N_16
REMARK    6  A    between atoms: C_17  and  C_19
REMARK    7  A    between atoms: C_26  and  C_28
REMARK                            x       y       z     vdW  Elec       q    Type
REMARK                         _______ _______ _______ _____ _____    ______ ____
ROOT
ATOM      1  C   UNL     1       0.457  -3.653  -1.462  0.00  0.00    +0.165 C 
ENDROOT
BRANCH   1   2
ATOM      2  C   UNL     1      -0.385  -4.904  -1.452  0.00  0.00    +0.250 C 
ATOM      3  O   UNL     1      -1.459  -4.916  -2.016  0.00  0.00    -0.272 OA
ATOM      4  N   UNL     1       0.057  -6.008  -0.819  0.00  0.00    -0.233 N 
ATOM      5  H   UNL     1       0.915  -5.998  -0.368  0.00  0.00    +0.173 HD
BRANCH   4   6
ATOM      6  N   UNL     1      -0.726  -7.170  -0.810  0.00  0.00    -0.234 N 
ATOM      7  C   UNL     1      -0.284  -8.275  -0.176  0.00  0.00    +0.232 C 
ATOM      8  O   UNL     1       0.790  -8.263   0.387  0.00  0.00    -0.274 OA
ATOM      9  H   UNL     1      -1.585  -7.180  -1.260  0.00  0.00    +0.173 HD
BRANCH   7  10
ATOM     10  C   UNL     1      -1.126  -9.525  -0.167  0.00  0.00    +0.076 C 
ATOM     11  C   UNL     1      -2.471  -9.230   0.499  0.00  0.00    +0.013 C 
ATOM     12  C   UNL     1      -3.325 -10.499   0.508  0.00  0.00    +0.001 C 
ATOM     13  C   UNL     1      -2.600 -11.596   1.290  0.00  0.00    +0.000 C 
ATOM     14  C   UNL     1      -1.254 -11.892   0.624  0.00  0.00    +0.001 C 
ATOM     15  C   UNL     1      -0.400 -10.622   0.615  0.00  0.00    +0.013 C 
ENDBRANCH   7  10
ENDBRANCH   4   6
ENDBRANCH   1   2
BRANCH   1  16
ATOM     16  N   UNL     1      -0.238  -2.603  -2.210  0.00  0.00    -0.300 N 
ATOM     17  C   UNL     1       0.465  -1.608  -2.785  0.00  0.00    +0.245 C 
ATOM     18  O   UNL     1       1.677  -1.582  -2.683  0.00  0.00    -0.270 OA
ATOM     19  H   UNL     1      -1.204  -2.624  -2.292  0.00  0.00    +0.150 HD
BRANCH  17  20
ATOM     20  C   UNL     1      -0.235  -0.548  -3.540  0.00  0.00    +0.037 A 
ATOM     21  C   UNL     1      -1.627  -0.573  -3.654  0.00  0.00    +0.016 A 
ATOM     22  C   UNL     1      -2.275   0.418  -4.359  0.00  0.00    +0.039 A 
ATOM     23  C   UNL     1      -1.548   1.438  -4.955  0.00  0.00    +0.123 A 
ATOM     24  C   UNL     1      -0.167   1.466  -4.845  0.00  0.00    +0.039 A 
ATOM     25  C   UNL     1       0.491   0.484  -4.137  0.00  0.00    +0.016 A 
ATOM     26  F   UNL     1      -2.189   2.406  -5.646  0.00  0.00    -0.205 F 
ENDBRANCH  17  20
ENDBRANCH   1  16
BRANCH   1  27
ATOM     27  C   UNL     1       0.691  -3.186  -0.024  0.00  0.00    +0.065 C 
BRANCH  27  34
ATOM     28  C   UNL     1      -0.016   1.348   0.009  0.00  0.00    +0.001 A 
ATOM     29  C   UNL     1       1.166   2.101   0.002  0.00  0.00    +0.002 A 
ATOM     30  C   UNL     1       2.391   1.535  -0.013  0.00  0.00    +0.026 A 
ATOM     31  C   UNL     1       2.529   0.120  -0.022  0.00  0.00    +0.043 A 
ATOM     32  N   UNL     1       3.587  -0.654  -0.037  0.00  0.00    -0.380 N 
ATOM     33  C   UNL     1       3.143  -2.053  -0.041  0.00  0.00    +0.144 C 
ATOM     34  C   UNL     1       1.631  -2.008  -0.025  0.00  0.00    -0.039 C 
ATOM     35  C   UNL     1       1.295  -0.698  -0.014  0.00  0.00    -0.001 A 
ATOM     36  C   UNL     1       0.002  -0.004   0.002  0.00  0.00    +0.010 A 
ATOM     37  H   UNL     1       4.509  -0.353  -0.045  0.00  0.00    +0.160 HD
ENDBRANCH  27  34
ENDBRANCH   1  27
TORSDOF 7
