REMARK  Name = ZINC58952779
REMARK  7 active torsions:
REMARK  status: ('A' for Active; 'I' for Inactive)
REMARK    1  A    between atoms: C_1  and  C_2
REMARK    2  A    between atoms: C_12  and  C_15
REMARK    3  A    between atoms: C_15  and  N_16
REMARK    4  A    between atoms: C_17  and  C_19
REMARK    5  A    between atoms: C_19  and  C_21
REMARK    6  A    between atoms: C_19  and  O_22
REMARK    7  A    between atoms: O_22  and  C_23
REMARK                            x       y       z     vdW  Elec       q    Type
REMARK                         _______ _______ _______ _____ _____    ______ ____
ROOT
ATOM      1  C   UNL     1      -0.640  -5.441  -5.300  0.00  0.00    +0.141 C 
ENDROOT
BRANCH   1  12
ATOM      2  C   UNL     1       3.220  -2.078   1.760  0.00  0.00    +0.039 C 
ATOM      3  C   UNL     1       2.704  -1.686   0.374  0.00  0.00    +0.132 C 
ATOM      4  C   UNL     1       1.411  -2.453   0.073  0.00  0.00    +0.137 C 
ATOM      5  N   UNL     1       0.837  -1.924  -1.174  0.00  0.00    -0.312 N 
ATOM      6  C   UNL     1       0.671  -0.467  -1.296  0.00  0.00    +0.134 C 
ATOM      7  C   UNL     1       2.000   0.203  -0.929  0.00  0.00    +0.179 C 
ATOM      8  O   UNL     1       2.437  -0.282   0.343  0.00  0.00    -0.374 OA
ATOM      9  C   UNL     1       0.462  -2.775  -2.207  0.00  0.00    +0.099 A 
ATOM     10  C   UNL     1      -0.187  -2.259  -3.325  0.00  0.00    +0.042 A 
ATOM     11  C   UNL     1      -0.554  -3.118  -4.345  0.00  0.00    +0.010 A 
ATOM     12  C   UNL     1      -0.259  -4.469  -4.213  0.00  0.00    -0.014 A 
ATOM     13  C   UNL     1       0.387  -4.912  -3.077  0.00  0.00    +0.089 A 
ATOM     14  N   UNL     1       0.731  -4.069  -2.121  0.00  0.00    -0.349 N 
ATOM     15  H   UNL     1       1.187  -4.406  -1.334  0.00  0.00    +0.167 HD
ENDBRANCH   1  12
BRANCH   1  16
ATOM     16  N   UNL     1       0.456  -5.549  -6.265  0.00  0.00    -0.308 N 
ATOM     17  C   UNL     1       0.338  -6.367  -7.330  0.00  0.00    +0.254 C 
ATOM     18  O   UNL     1      -0.676  -7.013  -7.489  0.00  0.00    -0.272 OA
ATOM     19  H   UNL     1       1.267  -5.032  -6.138  0.00  0.00    +0.149 HD
BRANCH  17  20
ATOM     20  C   UNL     1       1.466  -6.478  -8.323  0.00  0.00    +0.256 C 
ATOM     21  C   UNL     1       2.689  -7.095  -7.639  0.00  0.00    +0.062 C 
BRANCH  20  22
ATOM     22  O   UNL     1       1.061  -7.309  -9.413  0.00  0.00    -0.479 OA
BRANCH  22  23
ATOM     23  C   UNL     1       1.691  -7.117 -10.602  0.00  0.00    +0.136 A 
ATOM     24  C   UNL     1       2.756  -6.233 -10.689  0.00  0.00    +0.048 A 
ATOM     25  C   UNL     1       3.396  -6.040 -11.899  0.00  0.00    +0.023 A 
ATOM     26  C   UNL     1       2.974  -6.728 -13.023  0.00  0.00    +0.042 A 
ATOM     27  C   UNL     1       1.912  -7.610 -12.939  0.00  0.00    +0.039 A 
ATOM     28  C   UNL     1       1.273  -7.811 -11.729  0.00  0.00    +0.061 A 
ATOM     29 BR   UNL     1      -0.174  -9.022 -11.613  0.00  0.00    -0.046 Br
ATOM     30 CL   UNL     1       3.779  -6.482 -14.541  0.00  0.00    -0.084 Cl
ENDBRANCH  22  23
ENDBRANCH  20  22
ENDBRANCH  17  20
ENDBRANCH   1  16
TORSDOF 5
