REMARK  Name = ZINC20597935
REMARK  11 active torsions:
REMARK  status: ('A' for Active; 'I' for Inactive)
REMARK    1  A    between atoms: C_1  and  C_2
REMARK    2  A    between atoms: C_2  and  C_3
REMARK    3  A    between atoms: C_2  and  N_4
REMARK    4  A    between atoms: N_4  and  C_5
REMARK    5  A    between atoms: N_4  and  C_31
REMARK    6  A    between atoms: C_5  and  C_6
REMARK    7  A    between atoms: C_6  and  C_7
REMARK    8  A    between atoms: C_7  and  N_8
REMARK    9  A    between atoms: C_9  and  C_11
REMARK   10  A    between atoms: N_22  and  C_25
REMARK   11  A    between atoms: C_31  and  C_32
REMARK                            x       y       z     vdW  Elec       q    Type
REMARK                         _______ _______ _______ _____ _____    ______ ____
ROOT
ATOM      1  C   UNL     1       7.743   2.160   0.491  0.00  0.00    +0.053 A 
ATOM      2  C   UNL     1       8.905   2.958   0.657  0.00  0.00    +0.013 A 
ATOM      3  C   UNL     1      10.181   2.383   0.710  0.00  0.00    +0.011 A 
ATOM      4  C   UNL     1      11.274   3.181   0.872  0.00  0.00    +0.001 A 
ATOM      5  C   UNL     1      11.139   4.564   0.985  0.00  0.00    +0.002 A 
ATOM      6  C   UNL     1       9.916   5.156   0.937  0.00  0.00    +0.028 A 
ATOM      7  C   UNL     1       8.761   4.365   0.772  0.00  0.00    +0.073 A 
ATOM      8  N   UNL     1       7.554   4.923   0.724  0.00  0.00    -0.242 NA
ATOM      9  C   UNL     1       6.456   4.205   0.570  0.00  0.00    +0.132 A 
ATOM     10  C   UNL     1       6.522   2.807   0.450  0.00  0.00    +0.013 A 
ATOM     11  C   UNL     1       5.104   2.321   0.291  0.00  0.00    +0.146 C 
ATOM     12  N   UNL     1       4.253   3.515   0.329  0.00  0.00    -0.289 N 
ATOM     13  C   UNL     1       5.029   4.600   0.489  0.00  0.00    +0.266 C 
ATOM     14  O   UNL     1       4.620   5.742   0.554  0.00  0.00    -0.268 OA
ENDROOT
BRANCH  12  15
ATOM     15  C   UNL     1       2.792   3.524   0.211  0.00  0.00    +0.077 C 
ATOM     16  C   UNL     1       2.384   4.357  -1.006  0.00  0.00    +0.022 C 
ATOM     17  C   UNL     1       0.859   4.365  -1.129  0.00  0.00    +0.002 C 
ATOM     18  C   UNL     1       0.248   4.975   0.135  0.00  0.00    +0.000 C 
ATOM     19  C   UNL     1       0.657   4.142   1.352  0.00  0.00    +0.002 C 
ATOM     20  C   UNL     1       2.182   4.133   1.475  0.00  0.00    +0.022 C 
ENDBRANCH  12  15
BRANCH   1  22
ATOM     21  N   UNL     1       7.782  -0.084   1.470  0.00  0.00    -0.311 N 
ATOM     22  C   UNL     1       7.835   0.690   0.367  0.00  0.00    +0.245 C 
ATOM     23  O   UNL     1       7.957   0.179  -0.729  0.00  0.00    -0.270 OA
ATOM     24  H   UNL     1       7.671   0.379   2.461  0.00  0.00    +0.149 HD
BRANCH  21  25
ATOM     25  C   UNL     1       7.873  -1.541   1.347  0.00  0.00    +0.102 C 
BRANCH  25  26
ATOM     26  C   UNL     1       7.788  -2.176   2.736  0.00  0.00    +0.000 C 
BRANCH  26  27
ATOM     27  C   UNL     1       7.883  -3.698   2.608  0.00  0.00    -0.076 C 
BRANCH  27  28
ATOM     28  N   UNL     1       7.960  -4.298   3.946  0.00  0.00    +0.384 N 
ATOM     29  H   UNL     1       8.627  -3.674   4.559  0.00  0.00    -0.081 HD
BRANCH  28  31
ATOM     30  C   UNL     1       6.400  -2.981   5.299  0.00  0.00    -0.014 C 
ATOM     31  C   UNL     1       6.641  -4.317   4.592  0.00  0.00    -0.074 C 
ATOM     32  C   UNL     1       5.558  -4.536   3.533  0.00  0.00    -0.014 C 
ENDBRANCH  28  31
BRANCH  28  33
ATOM     33  C   UNL     1       8.535  -5.649   3.885  0.00  0.00    -0.043 C 
BRANCH  33  34
ATOM     34  C   UNL     1       8.979  -6.068   5.263  0.00  0.00    -0.064 A 
ATOM     35  C   UNL     1      10.219  -5.683   5.738  0.00  0.00    +0.002 A 
ATOM     36  C   UNL     1      10.623  -6.064   7.003  0.00  0.00    +0.000 A 
ATOM     37  C   UNL     1       9.793  -6.839   7.791  0.00  0.00    +0.000 A 
ATOM     38  C   UNL     1       8.555  -7.229   7.314  0.00  0.00    +0.000 A 
ATOM     39  C   UNL     1       8.148  -6.844   6.050  0.00  0.00    +0.002 A 
ENDBRANCH  33  34
ENDBRANCH  28  33
ENDBRANCH  27  28
ENDBRANCH  26  27
ENDBRANCH  25  26
ENDBRANCH  21  25
ENDBRANCH   1  22
TORSDOF 9
