REMARK  Name = ZINC39670802
REMARK  5 active torsions:
REMARK  status: ('A' for Active; 'I' for Inactive)
REMARK    1  A    between atoms: C_1  and  C_2
REMARK    2  A    between atoms: C_9  and  C_11
REMARK    3  A    between atoms: C_11  and  N_12
REMARK    4  A    between atoms: C_13  and  C_15
REMARK    5  A    between atoms: C_26  and  C_28
REMARK                            x       y       z     vdW  Elec       q    Type
REMARK                         _______ _______ _______ _____ _____    ______ ____
ROOT
ATOM      1  C   UNL     1      -3.252  -2.231   7.204  0.00  0.00    +0.100 C 
ATOM      2  C   UNL     1      -3.900  -0.883   6.815  0.00  0.00    +0.121 C 
ATOM      3  N   UNL     1      -4.702  -0.498   8.000  0.00  0.00    -0.296 N 
ATOM      4  C   UNL     1      -3.861  -0.886   9.157  0.00  0.00    +0.115 C 
ATOM      5  C   UNL     1      -3.227  -2.229   8.741  0.00  0.00    -0.004 C 
ATOM      6  C   UNL     1      -1.790  -2.313   9.247  0.00  0.00    -0.010 C 
ATOM      7  C   UNL     1      -1.794  -2.368  10.777  0.00  0.00    -0.082 C 
ATOM      8  N   UNL     1      -2.561  -3.538  11.224  0.00  0.00    +0.379 N 
ATOM      9  C   UNL     1      -3.963  -3.404  10.813  0.00  0.00    -0.082 C 
ATOM     10  C   UNL     1      -4.051  -3.392   9.285  0.00  0.00    -0.010 C 
ATOM     11  C   UNL     1      -5.922   0.075   8.021  0.00  0.00    +0.248 C 
ATOM     12  O   UNL     1      -6.415   0.418   9.080  0.00  0.00    -0.270 OA
ATOM     13  H   UNL     1      -2.169  -4.372  10.813  0.00  0.00    -0.086 HD
ATOM     14  H   UNL     1      -2.511  -3.606  12.229  0.00  0.00    -0.086 HD
ENDROOT
BRANCH  11  15
ATOM     15  C   UNL     1      -6.657   0.285   6.768  0.00  0.00    +0.052 A 
ATOM     16  C   UNL     1      -6.003   0.584   5.615  0.00  0.00    +0.059 A 
ATOM     17  S   UNL     1      -7.201   0.738   4.451  0.00  0.00    -0.096 S 
ATOM     18  C   UNL     1      -8.638   0.411   5.434  0.00  0.00    +0.020 A 
ATOM     19  C   UNL     1      -8.116   0.171   6.719  0.00  0.00    +0.001 A 
ATOM     20  C   UNL     1      -9.035  -0.129   7.743  0.00  0.00    +0.010 A 
ATOM     21  C   UNL     1     -10.380  -0.185   7.474  0.00  0.00    +0.001 A 
ATOM     22  C   UNL     1     -10.868   0.051   6.197  0.00  0.00    +0.001 A 
ATOM     23  C   UNL     1      -9.991   0.358   5.176  0.00  0.00    +0.015 A 
ENDBRANCH  11  15
BRANCH   1  25
ATOM     24  N   UNL     1      -1.319  -3.517   6.351  0.00  0.00    -0.309 N 
ATOM     25  C   UNL     1      -1.851  -2.316   6.656  0.00  0.00    +0.219 C 
ATOM     26  O   UNL     1      -1.202  -1.305   6.490  0.00  0.00    -0.275 OA
ATOM     27  H   UNL     1      -1.837  -4.325   6.484  0.00  0.00    +0.149 HD
BRANCH  24  28
ATOM     28  C   UNL     1       0.044  -3.600   5.819  0.00  0.00    +0.159 C 
BRANCH  28  37
ATOM     29  C   UNL     1       0.380  -7.916   2.301  0.00  0.00    +0.064 C 
ATOM     30  C   UNL     1       0.795  -8.049   3.744  0.00  0.00    +0.022 A 
ATOM     31  C   UNL     1       1.263  -9.230   4.199  0.00  0.00    +0.021 A 
ATOM     32  C   UNL     1       1.654  -9.368   5.541  0.00  0.00    +0.005 A 
ATOM     33  C   UNL     1       1.559  -8.304   6.383  0.00  0.00    +0.045 A 
ATOM     34  C   UNL     1       1.068  -7.077   5.893  0.00  0.00    +0.116 A 
ATOM     35  N   UNL     1       0.700  -6.972   4.577  0.00  0.00    -0.305 N 
ATOM     36  C   UNL     1       0.275  -5.686   4.382  0.00  0.00    +0.115 A 
ATOM     37  C   UNL     1       0.396  -5.042   5.564  0.00  0.00    +0.051 A 
ATOM     38  N   UNL     1       0.870  -5.901   6.470  0.00  0.00    -0.342 N 
ATOM     39  H   UNL     1       1.051  -5.693   7.400  0.00  0.00    +0.167 HD
ENDBRANCH  28  37
ENDBRANCH  24  28
ENDBRANCH   1  25
TORSDOF 4
