REMARK  Name = ZINC59293072
REMARK  11 active torsions:
REMARK  status: ('A' for Active; 'I' for Inactive)
REMARK    1  A    between atoms: C_1  and  C_2
REMARK    2  A    between atoms: C_2  and  O_3
REMARK    3  A    between atoms: O_3  and  C_4
REMARK    4  A    between atoms: C_4  and  C_6
REMARK    5  A    between atoms: C_7  and  N_30
REMARK    6  A    between atoms: C_11  and  C_29
REMARK    7  A    between atoms: C_15  and  C_25
REMARK    8  A    between atoms: C_16  and  C_18
REMARK    9  A    between atoms: C_21  and  O_24
REMARK   10  A    between atoms: C_25  and  O_27
REMARK   11  A    between atoms: O_27  and  C_28
REMARK                            x       y       z     vdW  Elec       q    Type
REMARK                         _______ _______ _______ _____ _____    ______ ____
ROOT
ATOM      1  C   UNL     1       1.168  -2.380  -2.607  0.00  0.00    +0.084 C 
ATOM      2  C   UNL     1       1.593  -3.669  -2.545  0.00  0.00    +0.106 C 
ATOM      3  N   UNL     1       2.436  -4.159  -3.555  0.00  0.00    -0.220 N 
ATOM      4  C   UNL     1       3.168  -5.267  -3.424  0.00  0.00    +0.239 C 
ATOM      5  O   UNL     1       3.185  -5.900  -2.390  0.00  0.00    -0.274 OA
ATOM      6  C   UNL     1       3.978  -5.698  -4.637  0.00  0.00    +0.136 C 
ATOM      7  S   UNL     1       3.336  -4.500  -5.884  0.00  0.00    -0.096 S 
ATOM      8  C   UNL     1       2.528  -3.418  -4.735  0.00  0.00    +0.088 C 
ATOM      9  C   UNL     1       2.105  -2.144  -4.891  0.00  0.00    +0.077 C 
ATOM     10  C   UNL     1       1.599  -1.413  -3.670  0.00  0.00    +0.098 C 
ATOM     11  C   UNL     1       3.661  -7.141  -5.034  0.00  0.00    +0.029 C 
ENDROOT
BRANCH  10  12
ATOM     12  C   UNL     1       2.703  -0.541  -3.129  0.00  0.00    -0.035 A 
ATOM     13  C   UNL     1       3.886  -1.113  -2.697  0.00  0.00    +0.008 A 
ATOM     14  C   UNL     1       4.899  -0.315  -2.200  0.00  0.00    +0.046 A 
ATOM     15  C   UNL     1       4.729   1.060  -2.135  0.00  0.00    +0.117 A 
ATOM     16  C   UNL     1       3.541   1.631  -2.569  0.00  0.00    +0.046 A 
ATOM     17  C   UNL     1       2.533   0.830  -3.070  0.00  0.00    +0.008 A 
BRANCH  15  18
ATOM     18  O   UNL     1       5.724   1.846  -1.646  0.00  0.00    -0.507 OA
ATOM     19  H   UNL     1       6.348   2.154  -2.317  0.00  0.00    +0.292 HD
ENDBRANCH  15  18
ENDBRANCH  10  12
BRANCH   2  20
ATOM     20  N   UNL     1       1.204  -4.479  -1.512  0.00  0.00    -0.345 N 
ATOM     21  H   UNL     1       0.737  -4.103  -0.749  0.00  0.00    +0.143 HD
ATOM     22  H   UNL     1       1.395  -5.430  -1.542  0.00  0.00    +0.143 HD
ENDBRANCH   2  20
BRANCH   1  23
ATOM     23  C   UNL     1       0.272  -1.929  -1.625  0.00  0.00    +0.339 C 
ATOM     24  O   UNL     1      -0.920  -1.867  -1.871  0.00  0.00    -0.245 OA
BRANCH  23  25
ATOM     25  O   UNL     1       0.730  -1.565  -0.408  0.00  0.00    -0.462 OA
BRANCH  25  27
ATOM     26  C   UNL     1       0.464  -0.750   1.851  0.00  0.00    +0.048 C 
ATOM     27  C   UNL     1      -0.238  -1.117   0.542  0.00  0.00    +0.229 C 
ENDBRANCH  25  27
ENDBRANCH  23  25
ENDBRANCH   1  23
BRANCH   9  28
ATOM     28  C   UNL     1       2.130  -1.522  -6.148  0.00  0.00    +0.338 C 
ATOM     29  O   UNL     1       2.537  -2.131  -7.121  0.00  0.00    -0.245 OA
BRANCH  28  30
ATOM     30  O   UNL     1       1.701  -0.248  -6.279  0.00  0.00    -0.465 OA
ATOM     31  C   UNL     1       1.755   0.323  -7.588  0.00  0.00    +0.280 C 
ENDBRANCH  28  30
ENDBRANCH   9  28
TORSDOF 8
