REMARK  Name = ZINC64871128
REMARK  7 active torsions:
REMARK  status: ('A' for Active; 'I' for Inactive)
REMARK    1  A    between atoms: C_1  and  C_2
REMARK    2  A    between atoms: C_2  and  O_3
REMARK    3  A    between atoms: O_3  and  C_4
REMARK    4  A    between atoms: C_8  and  C_10
REMARK    5  A    between atoms: C_13  and  C_17
REMARK    6  A    between atoms: N_27  and  C_30
REMARK    7  A    between atoms: C_30  and  C_31
REMARK                            x       y       z     vdW  Elec       q    Type
REMARK                         _______ _______ _______ _____ _____    ______ ____
ROOT
ATOM      1  C   UNL     1       1.369  -6.713   6.284  0.00  0.00    -0.000 A 
ATOM      2  C   UNL     1       2.455  -7.527   5.998  0.00  0.00    +0.008 A 
ATOM      3  C   UNL     1       2.663  -8.690   6.710  0.00  0.00    +0.016 A 
ATOM      4  C   UNL     1       1.774  -9.043   7.722  0.00  0.00    +0.063 A 
ATOM      5  C   UNL     1       0.673  -8.218   8.011  0.00  0.00    +0.056 A 
ATOM      6  C   UNL     1       0.483  -7.050   7.288  0.00  0.00    +0.034 A 
ATOM      7  N   UNL     1      -0.196  -8.595   9.024  0.00  0.00    -0.307 N 
ATOM      8  H   UNL     1      -0.960  -8.035   9.235  0.00  0.00    +0.170 HD
ATOM      9  C   UNL     1       0.010  -9.728   9.717  0.00  0.00    +0.330 A 
ATOM     10  O   UNL     1      -0.775 -10.023  10.597  0.00  0.00    -0.246 OA
ATOM     11  N   UNL     1       1.045 -10.549   9.478  0.00  0.00    -0.256 N 
ATOM     12  C   UNL     1       1.950 -10.274   8.513  0.00  0.00    +0.265 A 
ATOM     13  O   UNL     1       2.885 -11.022   8.304  0.00  0.00    -0.267 OA
ENDROOT
BRANCH   1  16
ATOM     14  C   UNL     1       2.275  -4.298   3.754  0.00  0.00    +0.180 C 
ATOM     15  N   UNL     1       1.682  -5.602   4.120  0.00  0.00    -0.265 NA
ATOM     16  C   UNL     1       1.157  -5.447   5.495  0.00  0.00    +0.242 C 
ATOM     17  O   UNL     1       1.928  -4.363   6.063  0.00  0.00    -0.274 OA
ATOM     18  N   UNL     1       2.082  -3.420   4.932  0.00  0.00    -0.177 NA
ATOM     19  H   UNL     1       0.947  -5.858   3.479  0.00  0.00    +0.127 HD
ATOM     20  H   UNL     1       2.879  -2.817   5.068  0.00  0.00    +0.156 HD
BRANCH  14  25
ATOM     21  C   UNL     1       0.802  -1.824   1.306  0.00  0.00    +0.121 A 
ATOM     22  C   UNL     1       0.260  -2.673   0.351  0.00  0.00    +0.045 A 
ATOM     23  C   UNL     1       0.372  -4.041   0.501  0.00  0.00    +0.004 A 
ATOM     24  C   UNL     1       1.024  -4.566   1.602  0.00  0.00    +0.007 A 
ATOM     25  C   UNL     1       1.565  -3.723   2.555  0.00  0.00    -0.011 A 
ATOM     26  C   UNL     1       1.460  -2.353   2.406  0.00  0.00    +0.052 A 
BRANCH  21  27
ATOM     27  O   UNL     1       0.693  -0.477   1.160  0.00  0.00    -0.492 OA
BRANCH  27  29
ATOM     28  C   UNL     1      -0.019   1.526   0.010  0.00  0.00    +0.048 C 
ATOM     29  C   UNL     1       0.002  -0.004   0.002  0.00  0.00    +0.225 C 
ENDBRANCH  27  29
ENDBRANCH  21  27
ENDBRANCH  14  25
ENDBRANCH   1  16
BRANCH  11  30
ATOM     30  C   UNL     1       1.197 -11.765  10.280  0.00  0.00    +0.165 C 
BRANCH  30  31
ATOM     31  C   UNL     1       0.463 -12.901   9.613  0.00  0.00    -0.026 A 
ATOM     32  C   UNL     1      -0.865 -13.137   9.916  0.00  0.00    +0.005 A 
ATOM     33  C   UNL     1      -1.539 -14.178   9.306  0.00  0.00    +0.002 A 
ATOM     34  C   UNL     1      -0.885 -14.983   8.392  0.00  0.00    +0.020 A 
ATOM     35  C   UNL     1       0.443 -14.747   8.088  0.00  0.00    +0.041 A 
ATOM     36  C   UNL     1       1.116 -13.701   8.695  0.00  0.00    +0.025 A 
ATOM     37 CL   UNL     1       1.265 -15.758   6.940  0.00  0.00    -0.084 Cl
ENDBRANCH  30  31
ENDBRANCH  11  30
TORSDOF 6
