REMARK  Name = ZINC10152705
REMARK  3 active torsions:
REMARK  status: ('A' for Active; 'I' for Inactive)
REMARK    1  A    between atoms: C_17  and  C_23
REMARK    2  A    between atoms: C_23  and  S_24
REMARK    3  A    between atoms: S_24  and  C_25
REMARK                            x       y       z     vdW  Elec       q    Type
REMARK                         _______ _______ _______ _____ _____    ______ ____
ROOT
ATOM      1  C   UNL     1      -8.183  -1.102   7.969  0.00  0.00    +0.002 A 
ATOM      2  C   UNL     1      -8.215  -0.047   8.870  0.00  0.00    +0.001 A 
ATOM      3  C   UNL     1      -7.345   1.014   8.701  0.00  0.00    +0.017 A 
ATOM      4  C   UNL     1      -6.466   1.008   7.647  0.00  0.00    +0.041 A 
ATOM      5  C   UNL     1      -6.405  -0.049   6.710  0.00  0.00    +0.081 A 
ATOM      6  C   UNL     1      -7.309  -1.117   6.914  0.00  0.00    +0.029 A 
ATOM      7  N   UNL     1      -5.491   0.094   5.726  0.00  0.00    -0.221 NA
ATOM      8  C   UNL     1      -4.699   1.138   5.644  0.00  0.00    +0.196 A 
ATOM      9  S   UNL     1      -5.209   2.114   7.052  0.00  0.00    -0.048 S 
ATOM     10  N   UNL     1      -3.721   1.415   4.704  0.00  0.00    -0.193 N 
ATOM     11  C   UNL     1      -2.946   2.519   4.682  0.00  0.00    +0.286 A 
ATOM     12  O   UNL     1      -2.975   3.443   5.474  0.00  0.00    -0.265 OA
ATOM     13  C   UNL     1      -2.062   2.391   3.523  0.00  0.00    +0.129 A 
ATOM     14  C   UNL     1      -1.009   3.226   2.950  0.00  0.00    +0.196 A 
ATOM     15  O   UNL     1      -0.703   4.293   3.457  0.00  0.00    -0.287 OA
ATOM     16  C   UNL     1      -0.354   2.753   1.781  0.00  0.00    +0.073 A 
ATOM     17  C   UNL     1      -0.718   1.572   1.248  0.00  0.00    +0.031 A 
ATOM     18  N   UNL     1      -1.703   0.805   1.786  0.00  0.00    -0.342 N 
ATOM     19  H   UNL     1      -1.929  -0.037   1.359  0.00  0.00    +0.167 HD
ATOM     20  C   UNL     1      -2.376   1.178   2.904  0.00  0.00    +0.140 A 
ATOM     21  N   UNL     1      -3.378   0.595   3.624  0.00  0.00    -0.273 N 
ATOM     22  H   UNL     1      -3.791  -0.258   3.418  0.00  0.00    +0.189 HD
ENDROOT
BRANCH  17  23
ATOM     23  C   UNL     1      -0.013   1.086   0.008  0.00  0.00    +0.127 C 
BRANCH  23  24
ATOM     24  S   UNL     1      -0.890   1.687  -1.462  0.00  0.00    -0.119 S 
BRANCH  24  25
ATOM     25  C   UNL     1       0.045   1.043  -2.809  0.00  0.00    +0.008 A 
ATOM     26  C   UNL     1       1.176   0.273  -2.567  0.00  0.00    +0.016 A 
ATOM     27  C   UNL     1       1.904  -0.234  -3.625  0.00  0.00    +0.021 A 
ATOM     28  C   UNL     1       1.514   0.032  -4.926  0.00  0.00    +0.041 A 
ATOM     29  C   UNL     1       0.391   0.803  -5.170  0.00  0.00    +0.021 A 
ATOM     30  C   UNL     1      -0.344   1.309  -4.116  0.00  0.00    +0.016 A 
ATOM     31 CL   UNL     1       2.435  -0.603  -6.254  0.00  0.00    -0.084 Cl
ENDBRANCH  24  25
ENDBRANCH  23  24
ENDBRANCH  17  23
TORSDOF 3
