REMARK  Name = ZINC20979465
REMARK  9 active torsions:
REMARK  status: ('A' for Active; 'I' for Inactive)
REMARK    1  A    between atoms: C_1  and  C_2
REMARK    2  A    between atoms: C_2  and  C_3
REMARK    3  A    between atoms: C_2  and  C_4
REMARK    4  A    between atoms: N_9  and  C_12
REMARK    5  A    between atoms: C_15  and  N_19
REMARK    6  A    between atoms: C_20  and  C_22
REMARK    7  A    between atoms: C_23  and  C_24
REMARK    8  A    between atoms: C_27  and  C_29
REMARK    9  A    between atoms: C_34  and  N_35
REMARK                            x       y       z     vdW  Elec       q    Type
REMARK                         _______ _______ _______ _____ _____    ______ ____
ROOT
ATOM      1  N   UNL     1      -5.911  -1.275  -0.175  0.00  0.00    -0.282 N 
ATOM      2  C   UNL     1      -6.225  -2.355  -0.918  0.00  0.00    +0.241 C 
ATOM      3  O   UNL     1      -5.344  -3.008  -1.446  0.00  0.00    -0.270 OA
ATOM      4  H   UNL     1      -6.699  -0.735   0.370  0.00  0.00    +0.155 HD
ENDROOT
BRANCH   1   8
ATOM      5  C   UNL     1      -1.952   0.015   0.059  0.00  0.00    +0.048 A 
ATOM      6  C   UNL     1      -2.796   0.160   1.152  0.00  0.00    +0.026 A 
ATOM      7  C   UNL     1      -4.106  -0.267   1.075  0.00  0.00    +0.025 A 
ATOM      8  C   UNL     1      -4.581  -0.842  -0.097  0.00  0.00    +0.035 A 
ATOM      9  C   UNL     1      -3.738  -0.988  -1.190  0.00  0.00    +0.045 A 
ATOM     10  C   UNL     1      -2.428  -0.556  -1.115  0.00  0.00    +0.064 A 
ATOM     11 CL   UNL     1      -1.375  -0.732  -2.484  0.00  0.00    -0.082 Cl
BRANCH   5  17
ATOM     12  C   UNL     1       2.565   2.065   2.094  0.00  0.00    +0.218 C 
ATOM     13  O   UNL     1       3.167   1.357   2.873  0.00  0.00    -0.275 OA
ATOM     14  N   UNL     1       1.724   1.514   1.195  0.00  0.00    -0.298 N 
ATOM     15  C   UNL     1       0.900   2.358   0.318  0.00  0.00    +0.126 C 
ATOM     16  C   UNL     1      -0.556   1.889   0.418  0.00  0.00    +0.124 C 
ATOM     17  N   UNL     1      -0.623   0.449   0.138  0.00  0.00    -0.326 N 
ATOM     18  C   UNL     1       0.125  -0.324   1.138  0.00  0.00    +0.124 C 
ATOM     19  C   UNL     1       1.608   0.054   1.066  0.00  0.00    +0.126 C 
BRANCH  12  21
ATOM     20  C   UNL     1       1.730   4.182   3.078  0.00  0.00    +0.017 C 
ATOM     21  C   UNL     1       2.756   3.559   2.130  0.00  0.00    +0.069 C 
ATOM     22  C   UNL     1       4.168   3.881   2.623  0.00  0.00    +0.017 C 
ENDBRANCH  12  21
ENDBRANCH   5  17
ENDBRANCH   1   8
BRANCH   2  23
ATOM     23  C   UNL     1      -7.579  -2.729  -1.085  0.00  0.00    +0.071 C 
ATOM     24  C   UNL     1      -7.896  -3.816  -1.834  0.00  0.00    +0.051 C 
BRANCH  24  25
ATOM     25  C   UNL     1      -9.249  -4.190  -2.000  0.00  0.00    +0.129 A 
ATOM     26  C   UNL     1      -9.710  -5.268  -2.732  0.00  0.00    +0.050 A 
ATOM     27  C   UNL     1     -11.103  -5.262  -2.625  0.00  0.00    +0.050 A 
ATOM     28  C   UNL     1     -11.442  -4.194  -1.842  0.00  0.00    +0.138 A 
ATOM     29  O   UNL     1     -10.317  -3.559  -1.468  0.00  0.00    -0.455 OA
BRANCH  28  30
ATOM     30  C   UNL     1     -12.815  -3.806  -1.465  0.00  0.00    +0.047 A 
ATOM     31  C   UNL     1     -13.805  -3.686  -2.445  0.00  0.00    +0.014 A 
ATOM     32  C   UNL     1     -15.085  -3.323  -2.085  0.00  0.00    +0.001 A 
ATOM     33  C   UNL     1     -15.392  -3.078  -0.758  0.00  0.00    +0.002 A 
ATOM     34  C   UNL     1     -14.417  -3.194   0.217  0.00  0.00    +0.033 A 
ATOM     35  C   UNL     1     -13.133  -3.562  -0.127  0.00  0.00    +0.137 A 
BRANCH  35  36
ATOM     36  N   UNL     1     -12.093  -3.692   0.918  0.00  0.00    +0.057 N 
ATOM     37  O   UNL     1     -12.372  -3.479   2.084  0.00  0.00    -0.126 OA
ATOM     38  O   UNL     1     -10.958  -4.013   0.612  0.00  0.00    -0.126 OA
ENDBRANCH  35  36
ENDBRANCH  28  30
ENDBRANCH  24  25
ENDBRANCH   2  23
TORSDOF 7
