REMARK  Name = ZINC02191795
REMARK  13 active torsions:
REMARK  status: ('A' for Active; 'I' for Inactive)
REMARK    1  A    between atoms: C_1  and  C_2
REMARK    2  A    between atoms: C_2  and  C_3
REMARK    3  A    between atoms: C_2  and  C_4
REMARK    4  A    between atoms: C_2  and  C_5
REMARK    5  A    between atoms: C_12  and  N_16
REMARK    6  A    between atoms: C_13  and  C_14
REMARK    7  A    between atoms: N_16  and  C_17
REMARK    8  A    between atoms: C_17  and  C_18
REMARK    9  A    between atoms: C_17  and  C_22
REMARK   10  A    between atoms: C_17  and  N_26
REMARK   11  A    between atoms: C_18  and  O_20
REMARK   12  A    between atoms: O_20  and  C_21
REMARK   13  A    between atoms: C_27  and  C_29
REMARK                            x       y       z     vdW  Elec       q    Type
REMARK                         _______ _______ _______ _____ _____    ______ ____
ROOT
ATOM      1  C   UNL     1       2.735  -3.377  -4.598  0.00  0.00    +0.296 C 
ENDROOT
BRANCH   1   2
ATOM      2  C   UNL     1       4.229  -3.284  -4.281  0.00  0.00    +0.438 C 
ATOM      3  F   UNL     1       4.613  -4.390  -3.515  0.00  0.00    -0.166 F 
ATOM      4  F   UNL     1       4.959  -3.268  -5.475  0.00  0.00    -0.166 F 
ATOM      5  F   UNL     1       4.482  -2.110  -3.564  0.00  0.00    -0.166 F 
ENDBRANCH   1   2
BRANCH   1   6
ATOM      6  N   UNL     1       2.447  -4.674  -5.215  0.00  0.00    -0.272 N 
ATOM      7  C   UNL     1       3.012  -5.000  -6.394  0.00  0.00    +0.282 C 
ATOM      8  O   UNL     1       3.829  -4.256  -6.903  0.00  0.00    -0.267 OA
ATOM      9  H   UNL     1       1.849  -5.298  -4.775  0.00  0.00    +0.152 HD
BRANCH   7  10
ATOM     10  C   UNL     1       2.643  -6.252  -7.063  0.00  0.00    +0.189 A 
ATOM     11  C   UNL     1       3.133  -6.699  -8.256  0.00  0.00    +0.054 A 
ATOM     12  C   UNL     1       2.512  -7.931  -8.512  0.00  0.00    +0.042 A 
ATOM     13  C   UNL     1       1.674  -8.176  -7.481  0.00  0.00    +0.196 A 
ATOM     14  O   UNL     1       1.756  -7.162  -6.609  0.00  0.00    -0.458 OA
ENDBRANCH   7  10
ENDBRANCH   1   6
BRANCH   1  15
ATOM     15  N   UNL     1       1.964  -3.243  -3.360  0.00  0.00    -0.301 N 
ATOM     16  H   UNL     1       1.456  -3.996  -3.021  0.00  0.00    +0.149 HD
BRANCH  15  23
ATOM     17  C   UNL     1       2.230   2.164   0.036  0.00  0.00    -0.000 C 
ATOM     18  C   UNL     1       0.801   1.668   0.273  0.00  0.00    +0.009 C 
ATOM     19  C   UNL     1       0.775   0.139   0.282  0.00  0.00    +0.037 C 
ATOM     20  C   UNL     1       1.452  -0.370  -0.985  0.00  0.00    -0.018 A 
ATOM     21  C   UNL     1       2.267   0.428  -1.707  0.00  0.00    -0.004 A 
ATOM     22  S   UNL     1       2.806  -0.579  -3.059  0.00  0.00    -0.077 S 
ATOM     23  C   UNL     1       1.962  -2.042  -2.672  0.00  0.00    +0.086 A 
ATOM     24  C   UNL     1       1.283  -1.716  -1.506  0.00  0.00    +0.083 A 
ATOM     25  C   UNL     1       2.626   1.853  -1.415  0.00  0.00    +0.047 C 
BRANCH  17  27
ATOM     26  C   UNL     1       1.883   3.983   1.713  0.00  0.00    +0.011 C 
ATOM     27  C   UNL     1       2.295   3.674   0.273  0.00  0.00    -0.035 C 
ATOM     28  C   UNL     1       3.724   4.166   0.035  0.00  0.00    +0.011 C 
ATOM     29  C   UNL     1       1.344   4.383  -0.693  0.00  0.00    +0.011 C 
ENDBRANCH  17  27
BRANCH  24  30
ATOM     30  C   UNL     1       0.447  -2.671  -0.842  0.00  0.00    +0.102 C 
ATOM     31  N   UNL     1      -0.215  -3.429  -0.316  0.00  0.00    -0.191 NA
ENDBRANCH  24  30
ENDBRANCH  15  23
ENDBRANCH   1  15
BRANCH   1  32
ATOM     32  C   UNL     1       2.354  -2.272  -5.549  0.00  0.00    +0.359 C 
ATOM     33  O   UNL     1       1.741  -1.313  -5.146  0.00  0.00    -0.246 OA
BRANCH  32  34
ATOM     34  O   UNL     1       2.695  -2.355  -6.845  0.00  0.00    -0.465 OA
ATOM     35  C   UNL     1       2.294  -1.254  -7.703  0.00  0.00    +0.280 C 
ENDBRANCH  32  34
ENDBRANCH   1  32
TORSDOF 9
