REMARK  Name = ZINC10380127
REMARK  11 active torsions:
REMARK  status: ('A' for Active; 'I' for Inactive)
REMARK    1  A    between atoms: C_1  and  C_2
REMARK    2  A    between atoms: C_5  and  N_9
REMARK    3  A    between atoms: C_7  and  C_8
REMARK    4  A    between atoms: C_13  and  S_14
REMARK    5  A    between atoms: S_14  and  C_15
REMARK    6  A    between atoms: C_15  and  C_16
REMARK    7  A    between atoms: N_18  and  N_19
REMARK    8  A    between atoms: C_22  and  C_26
REMARK    9  A    between atoms: C_22  and  C_27
REMARK   10  A    between atoms: C_30  and  O_33
REMARK   11  A    between atoms: O_33  and  C_34
REMARK                            x       y       z     vdW  Elec       q    Type
REMARK                         _______ _______ _______ _____ _____    ______ ____
ROOT
ATOM      1  C   UNL     1       2.309  -2.575   3.898  0.00  0.00    +0.240 C 
ATOM      2  O   UNL     1       1.188  -2.281   4.256  0.00  0.00    -0.273 OA
ATOM      3  N   UNL     1       2.981  -3.559   4.528  0.00  0.00    -0.223 N 
ATOM      4  H   UNL     1       3.877  -3.794   4.241  0.00  0.00    +0.174 HD
ENDROOT
BRANCH   3   5
ATOM      5  N   UNL     1       2.386  -4.241   5.597  0.00  0.00    -0.137 N 
ATOM      6  C   UNL     1       1.891  -5.492   5.516  0.00  0.00    +0.267 C 
ATOM      7  O   UNL     1       1.878  -6.212   4.540  0.00  0.00    -0.271 OA
ATOM      8  C   UNL     1       1.356  -5.812   6.897  0.00  0.00    +0.137 C 
ATOM      9  N   UNL     1       1.637  -4.589   7.669  0.00  0.00    -0.280 N 
ATOM     10  C   UNL     1       2.243  -3.733   6.827  0.00  0.00    +0.327 C 
ATOM     11  O   UNL     1       2.615  -2.621   7.146  0.00  0.00    -0.251 OA
ATOM     12  C   UNL     1      -0.149  -6.083   6.841  0.00  0.00    +0.047 C 
ATOM     13  H   UNL     1       1.429  -4.433   8.604  0.00  0.00    +0.152 HD
BRANCH   8  14
ATOM     14  C   UNL     1       2.084  -6.991   7.489  0.00  0.00    -0.015 A 
ATOM     15  C   UNL     1       2.590  -7.976   6.660  0.00  0.00    +0.010 A 
ATOM     16  C   UNL     1       3.263  -9.055   7.200  0.00  0.00    +0.046 A 
ATOM     17  C   UNL     1       3.422  -9.156   8.574  0.00  0.00    +0.120 A 
ATOM     18  C   UNL     1       2.909  -8.169   9.403  0.00  0.00    +0.046 A 
ATOM     19  C   UNL     1       2.241  -7.089   8.859  0.00  0.00    +0.010 A 
BRANCH  17  20
ATOM     20  O   UNL     1       4.079 -10.219   9.107  0.00  0.00    -0.495 OA
ATOM     21  C   UNL     1       4.580 -11.197   8.194  0.00  0.00    +0.277 C 
ENDBRANCH  17  20
ENDBRANCH   8  14
ENDBRANCH   3   5
BRANCH   1  22
ATOM     22  C   UNL     1       2.949  -1.841   2.748  0.00  0.00    +0.174 C 
BRANCH  22  23
ATOM     23  S   UNL     1       1.804  -0.589   2.118  0.00  0.00    -0.078 S 
BRANCH  23  28
ATOM     24  N   UNL     1       2.405   1.105  -0.014  0.00  0.00    -0.295 N 
ATOM     25  C   UNL     1       3.460   1.332  -0.871  0.00  0.00    +0.113 A 
ATOM     26  C   UNL     1       4.429   0.461  -0.539  0.00  0.00    +0.131 A 
ATOM     27  N   UNL     1       3.993  -0.285   0.490  0.00  0.00    -0.230 NA
ATOM     28  C   UNL     1       2.781   0.094   0.821  0.00  0.00    +0.174 A 
BRANCH  24  33
ATOM     29  C   UNL     1      -2.553   3.867   0.045  0.00  0.00    +0.044 C 
ATOM     30  C   UNL     1      -1.237   3.134   0.030  0.00  0.00    -0.047 A 
ATOM     31  C   UNL     1      -1.217   1.751   0.017  0.00  0.00    +0.005 A 
ATOM     32  C   UNL     1      -0.013   1.076   0.008  0.00  0.00    +0.026 A 
ATOM     33  C   UNL     1       1.180   1.787   0.000  0.00  0.00    +0.049 A 
ATOM     34  C   UNL     1       1.157   3.175   0.008  0.00  0.00    +0.029 A 
ATOM     35  C   UNL     1      -0.051   3.844   0.022  0.00  0.00    -0.046 A 
ATOM     36  C   UNL     1      -0.077   5.351   0.030  0.00  0.00    +0.044 C 
ENDBRANCH  24  33
ENDBRANCH  23  28
ENDBRANCH  22  23
ENDBRANCH   1  22
TORSDOF 7
