REMARK  Name = ZINC02137240
REMARK  7 active torsions:
REMARK  status: ('A' for Active; 'I' for Inactive)
REMARK    1  A    between atoms: C_1  and  C_2
REMARK    2  A    between atoms: C_5  and  C_8
REMARK    3  A    between atoms: N_10  and  C_11
REMARK    4  A    between atoms: C_11  and  C_13
REMARK    5  A    between atoms: C_11  and  O_17
REMARK    6  A    between atoms: O_17  and  C_18
REMARK    7  A    between atoms: C_18  and  C_19
REMARK                            x       y       z     vdW  Elec       q    Type
REMARK                         _______ _______ _______ _____ _____    ______ ____
ROOT
ATOM      1  C   UNL     1       0.093  -6.396   1.134  0.00  0.00    +0.257 C 
ENDROOT
BRANCH   1   4
ATOM      2  C   UNL     1       0.059  -4.251  -0.021  0.00  0.00    +0.246 C 
ATOM      3  O   UNL     1       0.062  -4.853  -1.077  0.00  0.00    -0.270 OA
ATOM      4  N   UNL     1       0.074  -4.931   1.142  0.00  0.00    -0.283 N 
ATOM      5  H   UNL     1       0.072  -4.451   1.985  0.00  0.00    +0.152 HD
BRANCH   2  10
ATOM      6  C   UNL     1      -0.018   1.503   0.010  0.00  0.00    +0.044 C 
ATOM      7  C   UNL     1       0.002  -0.004   0.002  0.00  0.00    -0.050 A 
ATOM      8  C   UNL     1       0.006  -0.686  -1.202  0.00  0.00    +0.004 A 
ATOM      9  C   UNL     1       0.024  -2.066  -1.216  0.00  0.00    +0.013 A 
ATOM     10  C   UNL     1       0.040  -2.773  -0.013  0.00  0.00    +0.037 A 
ATOM     11  C   UNL     1       0.036  -2.079   1.198  0.00  0.00    +0.013 A 
ATOM     12  C   UNL     1       0.023  -0.699   1.198  0.00  0.00    +0.004 A 
ENDBRANCH   2  10
ENDBRANCH   1   4
BRANCH   1  13
ATOM     13  C   UNL     1      -0.822  -6.925   2.241  0.00  0.00    +0.233 C 
ATOM     14 CL   UNL     1      -0.240  -6.325   3.838  0.00  0.00    -0.079 Cl
ATOM     15 CL   UNL     1      -2.505  -6.344   1.957  0.00  0.00    -0.079 Cl
ATOM     16 CL   UNL     1      -0.798  -8.727   2.231  0.00  0.00    -0.079 Cl
ENDBRANCH   1  13
BRANCH   1  17
ATOM     17  O   UNL     1       1.427  -6.856   1.359  0.00  0.00    -0.354 OA
BRANCH  17  18
ATOM     18  C   UNL     1       2.318  -6.611   0.269  0.00  0.00    +0.164 C 
BRANCH  18  19
ATOM     19  C   UNL     1       3.710  -7.142   0.618  0.00  0.00    +0.001 C 
ATOM     20  C   UNL     1       3.652  -8.664   0.763  0.00  0.00    +0.002 C 
ATOM     21  C   UNL     1       5.065  -9.183   1.050  0.00  0.00    -0.018 C 
ATOM     22  C   UNL     1       5.989  -8.754  -0.089  0.00  0.00    -0.078 C 
ATOM     23  N   UNL     1       6.028  -7.287  -0.185  0.00  0.00    +0.382 N 
ATOM     24  C   UNL     1       4.693  -6.766  -0.496  0.00  0.00    -0.063 C 
ATOM     25  C   UNL     1       4.737  -5.238  -0.597  0.00  0.00    -0.015 C 
ATOM     26  C   UNL     1       5.726  -4.819  -1.686  0.00  0.00    -0.003 C 
ATOM     27  C   UNL     1       7.101  -5.409  -1.353  0.00  0.00    -0.019 C 
ATOM     28  C   UNL     1       6.975  -6.926  -1.251  0.00  0.00    -0.078 C 
ATOM     29  H   UNL     1       6.345  -6.901   0.692  0.00  0.00    -0.081 HD
ENDBRANCH  18  19
ENDBRANCH  17  18
ENDBRANCH   1  17
TORSDOF 6
