REMARK  Name = ZINC14159746
REMARK  7 active torsions:
REMARK  status: ('A' for Active; 'I' for Inactive)
REMARK    1  A    between atoms: C_1  and  C_2
REMARK    2  A    between atoms: C_6  and  N_9
REMARK    3  A    between atoms: N_9  and  C_10
REMARK    4  A    between atoms: C_10  and  N_12
REMARK    5  A    between atoms: N_14  and  C_15
REMARK    6  A    between atoms: C_17  and  C_22
REMARK    7  A    between atoms: C_19  and  C_21
REMARK                            x       y       z     vdW  Elec       q    Type
REMARK                         _______ _______ _______ _____ _____    ______ ____
ROOT
ATOM      1  N   UNL     1      -0.107  -4.712   3.556  0.00  0.00    -0.269 N 
ATOM      2  C   UNL     1      -0.236  -6.079   3.630  0.00  0.00    +0.192 C 
ATOM      3  N   UNL     1      -0.156  -6.806   2.537  0.00  0.00    -0.181 NA
ATOM      4  N   UNL     1      -0.447  -6.682   4.840  0.00  0.00    -0.300 N 
ATOM      5  C   UNL     1       0.686  -7.031   5.709  0.00  0.00    +0.126 C 
ATOM      6  C   UNL     1       0.467  -6.383   7.082  0.00  0.00    +0.125 C 
ATOM      7  N   UNL     1      -0.896  -6.694   7.536  0.00  0.00    -0.314 N 
ATOM      8  C   UNL     1      -2.028  -6.345   6.667  0.00  0.00    +0.125 C 
ATOM      9  C   UNL     1      -1.810  -6.987   5.296  0.00  0.00    +0.126 C 
ATOM     10  C   UNL     1      -1.110  -7.307   8.765  0.00  0.00    +0.099 A 
ATOM     11  C   UNL     1      -0.040  -7.505   9.632  0.00  0.00    +0.042 A 
ATOM     12  C   UNL     1      -0.268  -8.116  10.852  0.00  0.00    +0.005 A 
ATOM     13  C   UNL     1      -1.562  -8.510  11.165  0.00  0.00    +0.018 A 
ATOM     14  C   UNL     1      -2.576  -8.282  10.257  0.00  0.00    +0.084 A 
ATOM     15  N   UNL     1      -2.331  -7.692   9.102  0.00  0.00    -0.350 N 
ATOM     16  H   UNL     1      -3.063  -7.540   8.484  0.00  0.00    +0.166 HD
ATOM     17  H   UNL     1      -0.086  -4.182   4.369  0.00  0.00    +0.156 HD
ENDROOT
BRANCH   3  18
ATOM     18  C   UNL     1      -0.163  -8.165   2.622  0.00  0.00    +0.253 A 
ATOM     19  N   UNL     1      -0.360  -8.742   3.804  0.00  0.00    -0.216 NA
ATOM     20  C   UNL     1      -0.373 -10.059   3.918  0.00  0.00    +0.044 A 
ATOM     21  C   UNL     1      -0.179 -10.839   2.789  0.00  0.00    +0.046 A 
ATOM     22  C   UNL     1       0.024 -10.207   1.571  0.00  0.00    +0.044 A 
ATOM     23  N   UNL     1       0.021  -8.887   1.519  0.00  0.00    -0.216 NA
ATOM     24  C   UNL     1       0.239 -11.018   0.319  0.00  0.00    +0.066 C 
ATOM     25  C   UNL     1      -0.596 -10.705   5.261  0.00  0.00    +0.066 C 
ENDBRANCH   3  18
BRANCH   1  26
ATOM     26  C   UNL     1      -0.010  -4.108   2.356  0.00  0.00    +0.141 C 
ATOM     27  S   UNL     1      -0.046  -5.042   0.921  0.00  0.00    -0.018 S 
BRANCH  26  28
ATOM     28  N   UNL     1       0.117  -2.768   2.284  0.00  0.00    -0.295 N 
ATOM     29  H   UNL     1       0.180  -2.242   3.096  0.00  0.00    +0.154 HD
BRANCH  28  35
ATOM     30  C   UNL     1       1.984   0.723  -0.635  0.00  0.00    +0.045 C 
ATOM     31  C   UNL     1       1.053  -0.440  -0.406  0.00  0.00    -0.030 A 
ATOM     32  C   UNL     1       0.236  -0.883  -1.431  0.00  0.00    +0.005 A 
ATOM     33  C   UNL     1      -0.619  -1.949  -1.225  0.00  0.00    +0.002 A 
ATOM     34  C   UNL     1      -0.661  -2.576   0.005  0.00  0.00    +0.025 A 
ATOM     35  C   UNL     1       0.157  -2.135   1.036  0.00  0.00    +0.051 A 
ATOM     36  C   UNL     1       1.020  -1.065   0.825  0.00  0.00    +0.065 A 
ATOM     37 CL   UNL     1       2.050  -0.513   2.109  0.00  0.00    -0.081 Cl
ENDBRANCH  28  35
ENDBRANCH  26  28
ENDBRANCH   1  26
TORSDOF 4
