REMARK  Name = ZINC14242770
REMARK  9 active torsions:
REMARK  status: ('A' for Active; 'I' for Inactive)
REMARK    1  A    between atoms: C_1  and  C_2
REMARK    2  A    between atoms: C_2  and  C_3
REMARK    3  A    between atoms: C_3  and  C_4
REMARK    4  A    between atoms: C_4  and  N_5
REMARK    5  A    between atoms: C_6  and  N_32
REMARK    6  A    between atoms: C_7  and  N_14
REMARK    7  A    between atoms: N_14  and  C_15
REMARK    8  A    between atoms: C_15  and  C_16
REMARK    9  A    between atoms: C_22  and  C_24
REMARK                            x       y       z     vdW  Elec       q    Type
REMARK                         _______ _______ _______ _____ _____    ______ ____
ROOT
ATOM      1  N   UNL     1       4.157  -1.115  -1.455  0.00  0.00    -0.256 N 
ATOM      2  C   UNL     1       3.641  -2.202  -2.062  0.00  0.00    +0.257 C 
ATOM      3  O   UNL     1       3.823  -2.378  -3.252  0.00  0.00    -0.269 OA
ENDROOT
BRANCH   1   6
ATOM      4  N   UNL     1       7.154   0.722  -2.523  0.00  0.00    -0.280 N 
ATOM      5  C   UNL     1       6.342  -0.129  -1.810  0.00  0.00    +0.127 A 
ATOM      6  C   UNL     1       5.015  -0.250  -2.166  0.00  0.00    +0.140 A 
ATOM      7  C   UNL     1       4.532   0.499  -3.255  0.00  0.00    +0.277 A 
ATOM      8  O   UNL     1       3.365   0.408  -3.595  0.00  0.00    -0.266 OA
ATOM      9  N   UNL     1       5.368   1.323  -3.917  0.00  0.00    -0.273 N 
ATOM     10  H   UNL     1       5.025   1.862  -4.686  0.00  0.00    +0.173 HD
ATOM     11  C   UNL     1       6.659   1.429  -3.555  0.00  0.00    +0.331 A 
ATOM     12  O   UNL     1       7.393   2.176  -4.173  0.00  0.00    -0.246 OA
BRANCH   5  13
ATOM     13  N   UNL     1       6.848  -0.850  -0.754  0.00  0.00    -0.343 N 
ATOM     14  H   UNL     1       6.291  -1.505  -0.304  0.00  0.00    +0.144 HD
ATOM     15  H   UNL     1       7.760  -0.704  -0.460  0.00  0.00    +0.144 HD
ENDBRANCH   5  13
BRANCH   4  16
ATOM     16  C   UNL     1       8.565   0.861  -2.155  0.00  0.00    +0.128 C 
BRANCH  16  17
ATOM     17  C   UNL     1       9.396  -0.167  -2.926  0.00  0.00    +0.021 C 
BRANCH  17  19
ATOM     18  C   UNL     1      11.701  -1.051  -3.314  0.00  0.00    +0.004 C 
ATOM     19  C   UNL     1      10.870  -0.023  -2.543  0.00  0.00    -0.002 C 
ENDBRANCH  17  19
ENDBRANCH  16  17
ENDBRANCH   4  16
ENDBRANCH   1   6
BRANCH   2  20
ATOM     20  C   UNL     1       2.857  -3.180  -1.284  0.00  0.00    +0.107 A 
ATOM     21  C   UNL     1       1.458  -3.134  -1.302  0.00  0.00    +0.138 A 
ATOM     22  C   UNL     1       0.731  -4.056  -0.574  0.00  0.00    +0.039 A 
ATOM     23  C   UNL     1       1.382  -5.017   0.179  0.00  0.00    +0.006 A 
ATOM     24  C   UNL     1       2.764  -5.066   0.207  0.00  0.00    +0.039 A 
ATOM     25  C   UNL     1       3.506  -4.154  -0.519  0.00  0.00    +0.138 A 
ATOM     26  F   UNL     1       4.856  -4.204  -0.489  0.00  0.00    -0.205 F 
ATOM     27  F   UNL     1       0.821  -2.193  -2.033  0.00  0.00    -0.205 F 
ENDBRANCH   2  20
BRANCH   1  28
ATOM     28  C   UNL     1       3.827  -0.832  -0.056  0.00  0.00    +0.149 C 
BRANCH  28  29
ATOM     29  C   UNL     1       2.691   0.157   0.002  0.00  0.00    -0.030 A 
ATOM     30  C   UNL     1       1.394  -0.289   0.169  0.00  0.00    +0.005 A 
ATOM     31  C   UNL     1       0.352   0.618   0.222  0.00  0.00    +0.000 A 
ATOM     32  C   UNL     1       0.608   1.972   0.108  0.00  0.00    +0.000 A 
ATOM     33  C   UNL     1       1.906   2.418  -0.058  0.00  0.00    +0.000 A 
ATOM     34  C   UNL     1       2.947   1.510  -0.111  0.00  0.00    +0.005 A 
ENDBRANCH  28  29
ENDBRANCH   1  28
TORSDOF 8
