REMARK  Name = ZINC61690720
REMARK  3 active torsions:
REMARK  status: ('A' for Active; 'I' for Inactive)
REMARK    1  A    between atoms: C_6  and  N_7
REMARK    2  A    between atoms: C_9  and  C_11
REMARK    3  A    between atoms: N_13  and  C_14
REMARK                            x       y       z     vdW  Elec       q    Type
REMARK                         _______ _______ _______ _____ _____    ______ ____
ROOT
ATOM      1  C   UNL     1      -0.016   1.392   0.064  0.00  0.00    +0.024 A 
ATOM      2  C   UNL     1       1.176   2.087   0.050  0.00  0.00    +0.017 A 
ATOM      3  C   UNL     1       2.369   1.398   0.024  0.00  0.00    +0.020 A 
ATOM      4  C   UNL     1       2.428  -0.016   0.010  0.00  0.00    -0.008 A 
ATOM      5  C   UNL     1       1.186  -0.701   0.025  0.00  0.00    +0.031 A 
ATOM      6  C   UNL     1       0.003  -0.003   0.051  0.00  0.00    +0.025 A 
ATOM      7  C   UNL     1       3.723  -0.565  -0.017  0.00  0.00    +0.029 A 
ATOM      8  C   UNL     1       4.808   0.255  -0.028  0.00  0.00    +0.075 A 
ATOM      9  S   UNL     1       4.077   1.882  -0.001  0.00  0.00    -0.084 S 
ENDROOT
BRANCH   8  10
ATOM     10  C   UNL     1       6.231  -0.110  -0.056  0.00  0.00    +0.255 C 
ATOM     11  O   UNL     1       6.558  -1.282  -0.071  0.00  0.00    -0.269 OA
ATOM     12  N   UNL     1       7.173   0.853  -0.063  0.00  0.00    -0.280 N 
ATOM     13  H   UNL     1       6.914   1.785  -0.132  0.00  0.00    +0.155 HD
BRANCH  12  14
ATOM     14  C   UNL     1       8.526   0.509   0.028  0.00  0.00    +0.053 A 
ATOM     15  C   UNL     1       8.901  -0.688   0.624  0.00  0.00    +0.040 A 
ATOM     16  C   UNL     1      10.238  -1.026   0.712  0.00  0.00    +0.020 A 
ATOM     17  C   UNL     1      11.203  -0.172   0.206  0.00  0.00    +0.017 A 
ATOM     18  C   UNL     1      10.834   1.020  -0.388  0.00  0.00    +0.023 A 
ATOM     19  C   UNL     1       9.498   1.361  -0.484  0.00  0.00    +0.062 A 
ATOM     20 CL   UNL     1       9.034   2.855  -1.237  0.00  0.00    -0.082 Cl
ATOM     21 BR   UNL     1      10.750  -2.655   1.523  0.00  0.00    -0.050 Br
ENDBRANCH  12  14
ENDBRANCH   8  10
BRANCH   6  22
ATOM     22  N   UNL     1      -1.208  -0.705   0.065  0.00  0.00    -0.358 N 
ATOM     23  H   UNL     1      -2.049  -0.222   0.084  0.00  0.00    +0.142 HD
ATOM     24  H   UNL     1      -1.206  -1.675   0.056  0.00  0.00    +0.142 HD
ENDBRANCH   6  22
TORSDOF 3
