REMARK  Name = ZINC36609318
REMARK  9 active torsions:
REMARK  status: ('A' for Active; 'I' for Inactive)
REMARK    1  A    between atoms: C_4  and  N_7
REMARK    2  A    between atoms: N_7  and  C_8
REMARK    3  A    between atoms: C_8  and  C_10
REMARK    4  A    between atoms: C_8  and  C_17
REMARK    5  A    between atoms: C_13  and  O_16
REMARK    6  A    between atoms: N_19  and  C_20
REMARK    7  A    between atoms: C_26  and  C_28
REMARK    8  A    between atoms: C_30  and  N_35
REMARK    9  A    between atoms: C_33  and  O_34
REMARK                            x       y       z     vdW  Elec       q    Type
REMARK                         _______ _______ _______ _____ _____    ______ ____
ROOT
ATOM      1  N   UNL     1       4.447  -0.583   0.321  0.00  0.00    -0.251 N 
ATOM      2  C   UNL     1       5.289  -0.157  -0.641  0.00  0.00    +0.255 C 
ATOM      3  O   UNL     1       6.329   0.396  -0.338  0.00  0.00    -0.269 OA
ENDROOT
BRANCH   1   7
ATOM      4  C   UNL     1       5.145   0.438   4.299  0.00  0.00    +0.000 A 
ATOM      5  C   UNL     1       5.452  -0.833   3.849  0.00  0.00    +0.002 A 
ATOM      6  C   UNL     1       5.222  -1.175   2.531  0.00  0.00    +0.023 A 
ATOM      7  C   UNL     1       4.681  -0.240   1.657  0.00  0.00    +0.038 A 
ATOM      8  C   UNL     1       4.374   1.035   2.112  0.00  0.00    +0.023 A 
ATOM      9  C   UNL     1       4.606   1.370   3.432  0.00  0.00    +0.002 A 
ENDBRANCH   1   7
BRANCH   2  10
ATOM     10  C   UNL     1       4.950  -0.362  -2.062  0.00  0.00    +0.081 A 
ATOM     11  C   UNL     1       4.110  -1.413  -2.439  0.00  0.00    +0.049 A 
ATOM     12  C   UNL     1       3.797  -1.599  -3.768  0.00  0.00    +0.127 A 
ATOM     13  C   UNL     1       4.311  -0.748  -4.733  0.00  0.00    +0.036 A 
ATOM     14  C   UNL     1       5.142   0.294  -4.374  0.00  0.00    +0.048 A 
ATOM     15  C   UNL     1       5.463   0.500  -3.041  0.00  0.00    +0.129 A 
BRANCH  12  16
ATOM     16  N   UNL     1       2.907  -2.713  -4.166  0.00  0.00    +0.056 N 
ATOM     17  O   UNL     1       2.358  -3.380  -3.321  0.00  0.00    -0.126 OA
ATOM     18  O   UNL     1       2.730  -2.956  -5.337  0.00  0.00    -0.126 OA
ENDBRANCH  12  16
BRANCH  15  19
ATOM     19  O   UNL     1       6.274   1.528  -2.686  0.00  0.00    -0.506 OA
ATOM     20  H   UNL     1       7.214   1.302  -2.675  0.00  0.00    +0.292 HD
ENDBRANCH  15  19
ENDBRANCH   2  10
BRANCH   1  21
ATOM     21  C   UNL     1       3.287  -1.405  -0.032  0.00  0.00    +0.197 C 
BRANCH  21  22
ATOM     22  C   UNL     1       2.389  -1.548   1.170  0.00  0.00    -0.018 A 
ATOM     23  C   UNL     1       1.564  -0.503   1.544  0.00  0.00    +0.009 A 
ATOM     24  C   UNL     1       0.740  -0.632   2.645  0.00  0.00    +0.046 A 
ATOM     25  C   UNL     1       0.740  -1.811   3.376  0.00  0.00    +0.117 A 
ATOM     26  C   UNL     1       1.568  -2.858   2.998  0.00  0.00    +0.046 A 
ATOM     27  C   UNL     1       2.386  -2.727   1.893  0.00  0.00    +0.009 A 
BRANCH  25  28
ATOM     28  O   UNL     1      -0.069  -1.940   4.460  0.00  0.00    -0.507 OA
ATOM     29  H   UNL     1      -0.945  -2.297   4.257  0.00  0.00    +0.292 HD
ENDBRANCH  25  28
ENDBRANCH  21  22
BRANCH  21  30
ATOM     30  C   UNL     1       2.526  -0.744  -1.152  0.00  0.00    +0.239 C 
ATOM     31  O   UNL     1       2.914   0.310  -1.610  0.00  0.00    -0.273 OA
ATOM     32  N   UNL     1       1.413  -1.323  -1.645  0.00  0.00    -0.311 N 
ATOM     33  H   UNL     1       1.102  -2.166  -1.278  0.00  0.00    +0.149 HD
BRANCH  32  34
ATOM     34  C   UNL     1       0.673  -0.681  -2.734  0.00  0.00    +0.073 C 
ATOM     35  C   UNL     1      -0.298   0.349  -2.152  0.00  0.00    +0.022 C 
ATOM     36  C   UNL     1      -1.071   1.020  -3.290  0.00  0.00    +0.002 C 
ATOM     37  C   UNL     1      -1.855  -0.039  -4.067  0.00  0.00    +0.000 C 
ATOM     38  C   UNL     1      -0.884  -1.069  -4.648  0.00  0.00    +0.002 C 
ATOM     39  C   UNL     1      -0.112  -1.740  -3.511  0.00  0.00    +0.022 C 
ENDBRANCH  32  34
ENDBRANCH  21  30
ENDBRANCH   1  21
TORSDOF 9
