REMARK  Name = ZINC21249275
REMARK  7 active torsions:
REMARK  status: ('A' for Active; 'I' for Inactive)
REMARK    1  A    between atoms: C_1  and  C_2
REMARK    2  A    between atoms: C_2  and  C_3
REMARK    3  A    between atoms: C_2  and  O_4
REMARK    4  A    between atoms: O_4  and  C_5
REMARK    5  A    between atoms: C_8  and  C_11
REMARK    6  A    between atoms: C_16  and  C_26
REMARK    7  A    between atoms: C_30  and  O_32
REMARK                            x       y       z     vdW  Elec       q    Type
REMARK                         _______ _______ _______ _____ _____    ______ ____
ROOT
ATOM      1  C   UNL     1      -0.100   1.293  -0.666  0.00  0.00    +0.032 C 
ATOM      2  C   UNL     1      -1.620   1.249  -0.518  0.00  0.00    +0.059 C 
ATOM      3  C   UNL     1      -2.026   1.846   0.820  0.00  0.00    +0.017 C 
ATOM      4  C   UNL     1      -1.231   1.709   1.894  0.00  0.00    +0.036 C 
ATOM      5  C   UNL     1      -1.520   2.230   3.282  0.00  0.00    +0.136 C 
ATOM      6  N   UNL     1      -2.635   3.149   3.357  0.00  0.00    -0.331 N 
ATOM      7  C   UNL     1      -3.932   2.733   3.061  0.00  0.00    +0.049 A 
ATOM      8  C   UNL     1      -4.923   2.709   4.029  0.00  0.00    +0.025 A 
ATOM      9  C   UNL     1      -6.185   2.244   3.700  0.00  0.00    +0.002 A 
ATOM     10  C   UNL     1      -6.456   1.805   2.417  0.00  0.00    +0.002 A 
ATOM     11  C   UNL     1      -5.473   1.844   1.443  0.00  0.00    +0.025 A 
ATOM     12  C   UNL     1      -4.217   2.328   1.766  0.00  0.00    +0.052 A 
ATOM     13  N   UNL     1      -3.218   2.495   0.813  0.00  0.00    -0.316 N 
ATOM     14  C   UNL     1       0.013   1.037   1.784  0.00  0.00    +0.163 C 
ATOM     15  O   UNL     1       0.705   0.910   2.775  0.00  0.00    -0.292 OA
ATOM     16  C   UNL     1       0.505   0.477   0.483  0.00  0.00    +0.088 C 
ATOM     17  H   UNL     1      -2.467   4.196   3.651  0.00  0.00    +0.147 HD
ATOM     18  H   UNL     1      -3.448   3.213   0.012  0.00  0.00    +0.152 HD
ENDROOT
BRANCH   1  22
ATOM     19  C   UNL     1       1.045  -0.412  -4.413  0.00  0.00    +0.121 A 
ATOM     20  C   UNL     1       1.395   0.895  -4.109  0.00  0.00    +0.046 A 
ATOM     21  C   UNL     1       1.024   1.444  -2.897  0.00  0.00    +0.007 A 
ATOM     22  C   UNL     1       0.304   0.692  -1.987  0.00  0.00    -0.043 A 
ATOM     23  C   UNL     1      -0.042  -0.613  -2.286  0.00  0.00    +0.007 A 
ATOM     24  C   UNL     1       0.322  -1.165  -3.499  0.00  0.00    +0.046 A 
BRANCH  19  25
ATOM     25  O   UNL     1       1.408  -0.954  -5.605  0.00  0.00    -0.489 OA
BRANCH  25  27
ATOM     26  C   UNL     1       3.543  -0.022  -6.249  0.00  0.00    +0.051 C 
ATOM     27  C   UNL     1       2.044  -0.086  -6.546  0.00  0.00    +0.167 C 
ATOM     28  C   UNL     1       1.827  -0.623  -7.962  0.00  0.00    +0.051 C 
ENDBRANCH  25  27
ENDBRANCH  19  25
ENDBRANCH   1  22
BRANCH   5  29
ATOM     29  C   UNL     1      -1.807   1.056   4.182  0.00  0.00    -0.019 A 
ATOM     30  C   UNL     1      -2.920   0.267   3.955  0.00  0.00    +0.006 A 
ATOM     31  C   UNL     1      -3.186  -0.811   4.779  0.00  0.00    +0.004 A 
ATOM     32  C   UNL     1      -2.340  -1.102   5.832  0.00  0.00    +0.045 A 
ATOM     33  C   UNL     1      -1.223  -0.313   6.062  0.00  0.00    +0.117 A 
ATOM     34  C   UNL     1      -0.955   0.765   5.230  0.00  0.00    +0.051 A 
BRANCH  33  35
ATOM     35  O   UNL     1      -0.389  -0.598   7.096  0.00  0.00    -0.507 OA
ATOM     36  H   UNL     1       0.496   0.029   7.278  0.00  0.00    +0.292 HD
ENDBRANCH  33  35
ENDBRANCH   5  29
TORSDOF 5
