REMARK  Name = ZINC26541774
REMARK  6 active torsions:
REMARK  status: ('A' for Active; 'I' for Inactive)
REMARK    1  A    between atoms: C_1  and  C_2
REMARK    2  A    between atoms: C_9  and  C_11
REMARK    3  A    between atoms: N_16  and  S_19
REMARK    4  A    between atoms: S_19  and  C_22
REMARK    5  A    between atoms: C_25  and  O_28
REMARK    6  A    between atoms: O_28  and  C_29
REMARK                            x       y       z     vdW  Elec       q    Type
REMARK                         _______ _______ _______ _____ _____    ______ ____
ROOT
ATOM      1  C   UNL     1      -1.813   2.637   5.041  0.00  0.00    +0.253 C 
ATOM      2  O   UNL     1      -2.820   3.235   5.375  0.00  0.00    -0.269 OA
ATOM      3  N   UNL     1      -0.891   2.302   5.965  0.00  0.00    -0.295 N 
ATOM      4  C   UNL     1       0.391   1.707   5.561  0.00  0.00    +0.125 C 
ATOM      5  C   UNL     1       1.528   2.564   6.141  0.00  0.00    +0.128 C 
ATOM      6  N   UNL     1       1.268   2.782   7.571  0.00  0.00    -0.174 NA
ATOM      7  C   UNL     1      -0.015   3.372   7.975  0.00  0.00    +0.128 C 
ATOM      8  C   UNL     1      -1.151   2.520   7.395  0.00  0.00    +0.125 C 
ENDROOT
BRANCH   1  16
ATOM      9  C   UNL     1      -2.474   2.466  -2.503  0.00  0.00    +0.008 C 
ATOM     10  C   UNL     1      -2.115   1.856  -1.146  0.00  0.00    -0.009 C 
ATOM     11  C   UNL     1      -0.658   1.386  -1.169  0.00  0.00    +0.009 C 
ATOM     12  C   UNL     1      -0.393   0.540   0.085  0.00  0.00    +0.043 C 
ATOM     13  C   UNL     1      -0.923   1.279   1.274  0.00  0.00    -0.006 A 
ATOM     14  C   UNL     1      -1.781   2.343   1.267  0.00  0.00    -0.036 A 
ATOM     15  C   UNL     1      -2.136   2.867   2.499  0.00  0.00    +0.024 A 
ATOM     16  C   UNL     1      -1.604   2.283   3.634  0.00  0.00    +0.075 A 
ATOM     17  S   UNL     1      -0.597   0.984   2.939  0.00  0.00    -0.088 S 
ATOM     18  C   UNL     1      -2.307   2.906  -0.051  0.00  0.00    +0.039 C 
ENDBRANCH   1  16
BRANCH   6  19
ATOM     19  S   UNL     1       2.401   2.369   8.706  0.00  0.00    +0.061 S 
ATOM     20  O   UNL     1       3.659   2.374   8.044  0.00  0.00    -0.153 OA
ATOM     21  O   UNL     1       2.139   3.169   9.851  0.00  0.00    -0.153 OA
BRANCH  19  22
ATOM     22  C   UNL     1       2.086   0.701   9.174  0.00  0.00    +0.106 A 
ATOM     23  C   UNL     1       1.235   0.429  10.230  0.00  0.00    +0.032 A 
ATOM     24  C   UNL     1       0.982  -0.878  10.596  0.00  0.00    +0.047 A 
ATOM     25  C   UNL     1       1.590  -1.920   9.910  0.00  0.00    +0.120 A 
ATOM     26  C   UNL     1       2.447  -1.645   8.855  0.00  0.00    +0.047 A 
ATOM     27  C   UNL     1       2.693  -0.336   8.489  0.00  0.00    +0.032 A 
BRANCH  25  28
ATOM     28  O   UNL     1       1.346  -3.207  10.271  0.00  0.00    -0.495 OA
ATOM     29  C   UNL     1       0.453  -3.415  11.367  0.00  0.00    +0.277 C 
ENDBRANCH  25  28
ENDBRANCH  19  22
ENDBRANCH   6  19
TORSDOF 4
