REMARK  Name = ZINC43021874
REMARK  14 active torsions:
REMARK  status: ('A' for Active; 'I' for Inactive)
REMARK    1  A    between atoms: C_1  and  C_2
REMARK    2  A    between atoms: C_2  and  C_3
REMARK    3  A    between atoms: C_3  and  C_4
REMARK    4  A    between atoms: C_3  and  N_6
REMARK    5  A    between atoms: C_4  and  C_5
REMARK    6  A    between atoms: N_6  and  C_7
REMARK    7  A    between atoms: N_6  and  C_11
REMARK    8  A    between atoms: C_7  and  C_8
REMARK    9  A    between atoms: C_8  and  O_9
REMARK   10  A    between atoms: O_9  and  C_10
REMARK   11  A    between atoms: C_11  and  C_13
REMARK   12  A    between atoms: C_11  and  C_20
REMARK   13  A    between atoms: C_20  and  C_22
REMARK   14  A    between atoms: C_20  and  N_23
REMARK                            x       y       z     vdW  Elec       q    Type
REMARK                         _______ _______ _______ _____ _____    ______ ____
ROOT
ATOM      1  C   UNL     1       1.356  -0.686  -2.725  0.00  0.00    -0.052 C 
ENDROOT
BRANCH   1   2
ATOM      2  C   UNL     1       1.656  -2.081  -2.240  0.00  0.00    -0.061 A 
ATOM      3  C   UNL     1       0.745  -3.099  -2.456  0.00  0.00    +0.002 A 
ATOM      4  C   UNL     1       1.020  -4.378  -2.011  0.00  0.00    +0.001 A 
ATOM      5  C   UNL     1       2.204  -4.641  -1.348  0.00  0.00    +0.015 A 
ATOM      6  C   UNL     1       3.115  -3.623  -1.132  0.00  0.00    +0.018 A 
ATOM      7  C   UNL     1       2.843  -2.344  -1.582  0.00  0.00    +0.017 A 
ATOM      8 BR   UNL     1       4.735  -3.981  -0.225  0.00  0.00    -0.050 Br
ENDBRANCH   1   2
BRANCH   1   9
ATOM      9  N   UNL     1       0.023  -0.281  -2.260  0.00  0.00    +0.387 N 
ATOM     10  H   UNL     1      -0.659  -0.964  -2.558  0.00  0.00    -0.081 HD
BRANCH   9  11
ATOM     11  C   UNL     1       0.021  -0.194  -0.794  0.00  0.00    -0.068 C 
BRANCH  11  13
ATOM     12  C   UNL     1      -1.429  -2.220  -0.605  0.00  0.00    +0.002 C 
ATOM     13  C   UNL     1      -0.091  -1.599  -0.200  0.00  0.00    -0.019 C 
ENDBRANCH  11  13
BRANCH  11  14
ATOM     14  C   UNL     1       1.322   0.458  -0.321  0.00  0.00    -0.019 C 
ATOM     15  C   UNL     1       1.177   1.980  -0.372  0.00  0.00    +0.002 C 
ENDBRANCH  11  14
ENDBRANCH   9  11
BRANCH   9  16
ATOM     16  C   UNL     1      -0.317   1.030  -2.829  0.00  0.00    -0.049 C 
BRANCH  16  17
ATOM     17  C   UNL     1      -1.627   1.528  -2.215  0.00  0.00    +0.141 C 
BRANCH  17  18
ATOM     18  O   UNL     1      -1.366   2.084  -0.925  0.00  0.00    -0.385 OA
ATOM     19  C   UNL     1      -2.541   2.482  -0.215  0.00  0.00    +0.193 C 
ENDBRANCH  17  18
ENDBRANCH  16  17
ENDBRANCH   9  16
ENDBRANCH   1   9
BRANCH   1  20
ATOM     20  C   UNL     1       1.392  -0.660  -4.255  0.00  0.00    -0.088 C 
ATOM     21  C   UNL     1       1.624   0.774  -4.735  0.00  0.00    -0.016 C 
BRANCH  20  22
ATOM     22  N   UNL     1       2.484  -1.519  -4.733  0.00  0.00    +0.379 N 
ATOM     23  H   UNL     1       2.331  -2.465  -4.417  0.00  0.00    -0.090 HD
ATOM     24  H   UNL     1       2.508  -1.502  -5.742  0.00  0.00    -0.090 HD
ATOM     25  H   UNL     1       3.362  -1.181  -4.370  0.00  0.00    -0.090 HD
ENDBRANCH  20  22
ENDBRANCH   1  20
TORSDOF 10
