REMARK  Name = ZINC30918454
REMARK  6 active torsions:
REMARK  status: ('A' for Active; 'I' for Inactive)
REMARK    1  A    between atoms: C_1  and  C_2
REMARK    2  A    between atoms: N_4  and  C_5
REMARK    3  A    between atoms: C_5  and  C_13
REMARK    4  A    between atoms: C_6  and  C_7
REMARK    5  A    between atoms: N_15  and  C_16
REMARK    6  A    between atoms: C_16  and  C_17
REMARK                            x       y       z     vdW  Elec       q    Type
REMARK                         _______ _______ _______ _____ _____    ______ ____
ROOT
ATOM      1  C   UNL     1      -0.194  -3.260  -0.270  0.00  0.00    +0.258 C 
ATOM      2  O   UNL     1      -0.288  -4.426   0.061  0.00  0.00    -0.269 OA
ATOM      3  N   UNL     1       1.004  -2.754  -0.624  0.00  0.00    -0.310 N 
ATOM      4  H   UNL     1       1.089  -1.811  -0.835  0.00  0.00    +0.149 HD
ENDROOT
BRANCH   1   5
ATOM      5  C   UNL     1      -1.388  -2.402  -0.285  0.00  0.00    +0.096 C 
ATOM      6  C   UNL     1      -2.575  -2.887   0.144  0.00  0.00    +0.036 C 
BRANCH   6   7
ATOM      7  C   UNL     1      -3.798  -2.083  -0.010  0.00  0.00    -0.023 A 
ATOM      8  C   UNL     1      -3.824  -1.007  -0.903  0.00  0.00    +0.008 A 
ATOM      9  C   UNL     1      -4.973  -0.259  -1.042  0.00  0.00    +0.001 A 
ATOM     10  C   UNL     1      -6.100  -0.570  -0.301  0.00  0.00    +0.000 A 
ATOM     11  C   UNL     1      -6.083  -1.634   0.584  0.00  0.00    +0.001 A 
ATOM     12  C   UNL     1      -4.942  -2.395   0.731  0.00  0.00    +0.008 A 
ENDBRANCH   6   7
BRANCH   5  16
ATOM     13  C   UNL     1      -0.850   0.577  -2.521  0.00  0.00    +0.109 C 
ATOM     14  C   UNL     1      -0.842  -0.832  -1.986  0.00  0.00    +0.214 C 
ATOM     15  O   UNL     1      -0.426  -1.739  -2.675  0.00  0.00    -0.276 OA
ATOM     16  N   UNL     1      -1.296  -1.083  -0.743  0.00  0.00    -0.282 N 
ATOM     17  H   UNL     1      -1.559  -0.350  -0.165  0.00  0.00    +0.155 HD
ENDBRANCH   5  16
ENDBRANCH   1   5
BRANCH   3  18
ATOM     18  C   UNL     1       2.178  -3.628  -0.690  0.00  0.00    +0.111 C 
BRANCH  18  19
ATOM     19  C   UNL     1       3.399  -2.810  -1.113  0.00  0.00    -0.013 C 
ATOM     20  C   UNL     1       3.147  -2.190  -2.489  0.00  0.00    +0.012 C 
ATOM     21  C   UNL     1       4.369  -1.372  -2.911  0.00  0.00    -0.010 C 
ATOM     22  C   UNL     1       5.595  -2.285  -2.980  0.00  0.00    +0.007 C 
ATOM     23  C   UNL     1       5.847  -2.905  -1.604  0.00  0.00    -0.010 C 
ATOM     24  C   UNL     1       4.625  -3.723  -1.182  0.00  0.00    +0.012 C 
ATOM     25  C   UNL     1       6.096  -1.794  -0.582  0.00  0.00    +0.007 C 
ATOM     26  C   UNL     1       4.870  -0.881  -0.513  0.00  0.00    -0.010 C 
ATOM     27  C   UNL     1       4.617  -0.261  -1.889  0.00  0.00    +0.007 C 
ATOM     28  C   UNL     1       3.648  -1.699  -0.090  0.00  0.00    +0.012 C 
ENDBRANCH  18  19
ENDBRANCH   3  18
TORSDOF 5
