REMARK  Name = ZINC20070775
REMARK  3 active torsions:
REMARK  status: ('A' for Active; 'I' for Inactive)
REMARK    1  A    between atoms: C_4  and  O_28
REMARK    2  A    between atoms: C_5  and  C_7
REMARK    3  A    between atoms: C_20  and  C_22
REMARK                            x       y       z     vdW  Elec       q    Type
REMARK                         _______ _______ _______ _____ _____    ______ ____
ROOT
ATOM      1  C   UNL     1       4.157   4.631  -1.589  0.00  0.00    +0.072 C 
ATOM      2  N   UNL     1       2.949   4.264  -1.309  0.00  0.00    -0.184 NA
ATOM      3  N   UNL     1       2.205   5.246  -0.681  0.00  0.00    -0.205 N 
ATOM      4  C   UNL     1       2.955   6.521  -0.734  0.00  0.00    +0.136 C 
ATOM      5  C   UNL     1       4.359   6.071  -1.162  0.00  0.00    +0.086 C 
ATOM      6  C   UNL     1       2.945   7.078   0.666  0.00  0.00    +0.018 A 
ATOM      7  C   UNL     1       3.844   8.072   1.004  0.00  0.00    +0.024 A 
ATOM      8  C   UNL     1       3.843   8.611   2.277  0.00  0.00    +0.018 A 
ATOM      9  C   UNL     1       2.935   8.152   3.214  0.00  0.00    +0.019 A 
ATOM     10  C   UNL     1       2.042   7.157   2.883  0.00  0.00    +0.047 A 
ATOM     11  C   UNL     1       2.042   6.601   1.603  0.00  0.00    +0.129 A 
ATOM     12  O   UNL     1       1.164   5.594   1.362  0.00  0.00    -0.464 OA
ATOM     13  C   UNL     1       0.918   5.160   0.020  0.00  0.00    +0.317 C 
ATOM     14 BR   UNL     1       5.077   9.970   2.734  0.00  0.00    -0.050 Br
ENDROOT
BRANCH   1  19
ATOM     15  C   UNL     1       7.408   3.486  -3.074  0.00  0.00    +0.001 A 
ATOM     16  C   UNL     1       7.104   2.181  -3.420  0.00  0.00    +0.004 A 
ATOM     17  C   UNL     1       5.845   1.667  -3.172  0.00  0.00    +0.046 A 
ATOM     18  C   UNL     1       4.879   2.456  -2.571  0.00  0.00    +0.126 A 
ATOM     19  C   UNL     1       5.180   3.780  -2.224  0.00  0.00    +0.039 A 
ATOM     20  C   UNL     1       6.455   4.287  -2.479  0.00  0.00    +0.013 A 
BRANCH  18  21
ATOM     21  O   UNL     1       3.643   1.950  -2.322  0.00  0.00    -0.506 OA
ATOM     22  H   UNL     1       2.877   2.579  -1.844  0.00  0.00    +0.292 HD
ENDBRANCH  18  21
ENDBRANCH   1  19
BRANCH  13  23
ATOM     23  C   UNL     1       0.421   3.738   0.017  0.00  0.00    +0.050 A 
ATOM     24  C   UNL     1      -0.855   3.279   0.027  0.00  0.00    +0.016 A 
ATOM     25  C   UNL     1      -1.077   1.915   0.017  0.00  0.00    +0.008 A 
ATOM     26  C   UNL     1      -0.013   1.076   0.008  0.00  0.00    +0.045 A 
ATOM     27  S   UNL     1       1.359   2.219   0.001  0.00  0.00    -0.096 S 
ENDBRANCH  13  23
TORSDOF 3
