REMARK  Name = ZINC24716112
REMARK  9 active torsions:
REMARK  status: ('A' for Active; 'I' for Inactive)
REMARK    1  A    between atoms: C_1  and  C_2
REMARK    2  A    between atoms: C_2  and  O_3
REMARK    3  A    between atoms: O_3  and  C_4
REMARK    4  A    between atoms: C_4  and  C_6
REMARK    5  A    between atoms: C_6  and  C_8
REMARK    6  A    between atoms: C_6  and  N_15
REMARK    7  A    between atoms: C_21  and  C_23
REMARK    8  A    between atoms: C_23  and  N_24
REMARK    9  A    between atoms: C_28  and  C_35
REMARK                            x       y       z     vdW  Elec       q    Type
REMARK                         _______ _______ _______ _____ _____    ______ ____
ROOT
ATOM      1  N   UNL     1       5.123  -2.624  -1.755  0.00  0.00    +0.393 N 
ATOM      2  C   UNL     1       4.021  -2.268  -2.659  0.00  0.00    -0.058 C 
ATOM      3  C   UNL     1       3.149  -1.195  -1.998  0.00  0.00    +0.089 C 
ATOM      4  N   UNL     1       2.735  -1.681  -0.673  0.00  0.00    -0.304 N 
ATOM      5  C   UNL     1       3.773  -2.178   0.242  0.00  0.00    +0.089 C 
ATOM      6  C   UNL     1       4.620  -3.218  -0.509  0.00  0.00    -0.058 C 
ATOM      7  C   UNL     1       1.438  -1.666  -0.305  0.00  0.00    +0.235 C 
ATOM      8  O   UNL     1       0.595  -1.248  -1.070  0.00  0.00    -0.274 OA
ATOM      9  H   UNL     1       5.654  -1.696  -1.493  0.00  0.00    -0.080 HD
ENDROOT
BRANCH   1  10
ATOM     10  C   UNL     1       6.079  -3.521  -2.418  0.00  0.00    +0.073 C 
BRANCH  10  11
ATOM     11  C   UNL     1       6.589  -2.870  -3.677  0.00  0.00    -0.050 A 
ATOM     12  C   UNL     1       6.983  -1.544  -3.659  0.00  0.00    +0.004 A 
ATOM     13  C   UNL     1       7.457  -0.948  -4.812  0.00  0.00    +0.020 A 
ATOM     14  C   UNL     1       7.527  -1.674  -5.987  0.00  0.00    +0.041 A 
ATOM     15  C   UNL     1       7.127  -2.998  -6.007  0.00  0.00    +0.020 A 
ATOM     16  C   UNL     1       6.659  -3.595  -4.851  0.00  0.00    +0.004 A 
ATOM     17 CL   UNL     1       8.114  -0.923  -7.438  0.00  0.00    -0.084 Cl
ENDBRANCH  10  11
BRANCH  10  18
ATOM     18  C   UNL     1       7.234  -3.798  -1.491  0.00  0.00    +0.298 C 
ATOM     19  O   UNL     1       7.547  -2.983  -0.656  0.00  0.00    -0.252 OA
BRANCH  18  20
ATOM     20  O   UNL     1       7.916  -4.949  -1.593  0.00  0.00    -0.466 OA
BRANCH  20  22
ATOM     21  C   UNL     1       9.669  -6.506  -0.935  0.00  0.00    +0.048 C 
ATOM     22  C   UNL     1       9.017  -5.148  -0.668  0.00  0.00    +0.228 C 
ENDBRANCH  20  22
ENDBRANCH  18  20
ENDBRANCH  10  18
ENDBRANCH   1  10
BRANCH   7  23
ATOM     23  C   UNL     1       1.036  -2.169   1.058  0.00  0.00    +0.222 C 
BRANCH  23  24
ATOM     24  N   UNL     1      -0.416  -2.048   1.214  0.00  0.00    -0.290 N 
ATOM     25  C   UNL     1      -1.221  -3.078   0.844  0.00  0.00    +0.203 A 
ATOM     26  N   UNL     1      -2.515  -3.046   0.947  0.00  0.00    -0.237 NA
ATOM     27  C   UNL     1      -3.161  -1.964   1.449  0.00  0.00    +0.081 A 
ATOM     28  C   UNL     1      -4.553  -1.931   1.564  0.00  0.00    -0.024 A 
ATOM     29  C   UNL     1      -5.168  -0.809   2.074  0.00  0.00    +0.005 A 
ATOM     30  C   UNL     1      -4.421   0.291   2.476  0.00  0.00    +0.001 A 
ATOM     31  C   UNL     1      -3.048   0.282   2.373  0.00  0.00    +0.015 A 
ATOM     32  C   UNL     1      -2.406  -0.843   1.859  0.00  0.00    +0.065 A 
ATOM     33  C   UNL     1      -0.943  -0.910   1.725  0.00  0.00    +0.262 A 
ATOM     34  O   UNL     1      -0.234   0.020   2.060  0.00  0.00    -0.267 OA
ATOM     35  C   UNL     1      -5.377  -3.116   1.133  0.00  0.00    +0.046 C 
ENDBRANCH  23  24
ENDBRANCH   7  23
TORSDOF 7
