REMARK  Name = ZINC40314224
REMARK  10 active torsions:
REMARK  status: ('A' for Active; 'I' for Inactive)
REMARK    1  A    between atoms: C_5  and  O_7
REMARK    2  A    between atoms: O_7  and  C_8
REMARK    3  A    between atoms: C_8  and  C_9
REMARK    4  A    between atoms: C_9  and  C_11
REMARK    5  A    between atoms: C_9  and  O_28
REMARK    6  A    between atoms: C_11  and  N_12
REMARK    7  A    between atoms: N_12  and  C_13
REMARK    8  A    between atoms: N_12  and  C_22
REMARK    9  A    between atoms: C_13  and  C_14
REMARK   10  A    between atoms: C_22  and  C_23
REMARK                            x       y       z     vdW  Elec       q    Type
REMARK                         _______ _______ _______ _____ _____    ______ ____
ROOT
ATOM      1  N   UNL     1      -0.864  -6.692   0.116  0.00  0.00    +0.389 N 
ATOM      2  H   UNL     1      -0.344  -6.985  -0.697  0.00  0.00    -0.081 HD
ENDROOT
BRANCH   1   3
ATOM      3  C   UNL     1      -1.121  -5.248   0.039  0.00  0.00    -0.043 C 
BRANCH   3   4
ATOM      4  C   UNL     1       0.204  -4.503  -0.139  0.00  0.00    +0.135 C 
BRANCH   4   5
ATOM      5  O   UNL     1       0.781  -4.852  -1.398  0.00  0.00    -0.390 OA
ATOM      6  H   UNL     1       0.227  -4.633  -2.159  0.00  0.00    +0.210 HD
ENDBRANCH   4   5
BRANCH   4   7
ATOM      7  C   UNL     1      -0.049  -2.995  -0.094  0.00  0.00    +0.258 C 
BRANCH   7   8
ATOM      8  O   UNL     1       1.199  -2.301  -0.143  0.00  0.00    -0.488 OA
BRANCH   8  13
ATOM      9  C   UNL     1      -0.117   1.089  -0.006  0.00  0.00    +0.004 A 
ATOM     10  C   UNL     1       1.055   1.822  -0.050  0.00  0.00    +0.002 A 
ATOM     11  C   UNL     1       2.275   1.177  -0.125  0.00  0.00    +0.023 A 
ATOM     12  C   UNL     1       2.326  -0.205  -0.156  0.00  0.00    +0.083 A 
ATOM     13  C   UNL     1       1.151  -0.943  -0.112  0.00  0.00    +0.139 A 
ATOM     14  C   UNL     1      -0.071  -0.292  -0.037  0.00  0.00    +0.047 A 
ATOM     15 CL   UNL     1       3.859  -1.015  -0.251  0.00  0.00    -0.080 Cl
ENDBRANCH   8  13
ENDBRANCH   7   8
ENDBRANCH   4   7
ENDBRANCH   3   4
ENDBRANCH   1   3
BRANCH   1  16
ATOM     16  C   UNL     1      -2.142  -7.415   0.166  0.00  0.00    -0.041 C 
BRANCH  16  17
ATOM     17  C   UNL     1      -2.879  -7.223  -1.134  0.00  0.00    -0.046 A 
ATOM     18  C   UNL     1      -3.931  -6.329  -1.207  0.00  0.00    +0.004 A 
ATOM     19  C   UNL     1      -4.607  -6.153  -2.399  0.00  0.00    +0.020 A 
ATOM     20  C   UNL     1      -4.231  -6.870  -3.521  0.00  0.00    +0.042 A 
ATOM     21  C   UNL     1      -3.178  -7.764  -3.449  0.00  0.00    +0.040 A 
ATOM     22  C   UNL     1      -2.498  -7.937  -2.256  0.00  0.00    +0.044 A 
ATOM     23 CL   UNL     1      -1.173  -9.054  -2.167  0.00  0.00    -0.083 Cl
ATOM     24 CL   UNL     1      -5.081  -6.649  -5.019  0.00  0.00    -0.083 Cl
ENDBRANCH  16  17
ENDBRANCH   1  16
BRANCH   1  25
ATOM     25  C   UNL     1      -0.087  -6.987   1.327  0.00  0.00    -0.003 C 
BRANCH  25  26
ATOM     26  C   UNL     1       0.285  -8.447   1.342  0.00  0.00    +0.089 A 
ATOM     27  C   UNL     1       1.351  -8.994   0.731  0.00  0.00    +0.042 A 
ATOM     28  C   UNL     1       1.314 -10.381   1.005  0.00  0.00    +0.041 A 
ATOM     29  C   UNL     1       0.227 -10.598   1.767  0.00  0.00    +0.195 A 
ATOM     30  O   UNL     1      -0.389  -9.423   1.973  0.00  0.00    -0.470 OA
ENDBRANCH  25  26
ENDBRANCH   1  25
TORSDOF 10
