REMARK  Name = ZINC64726216
REMARK  9 active torsions:
REMARK  status: ('A' for Active; 'I' for Inactive)
REMARK    1  A    between atoms: C_1  and  C_2
REMARK    2  A    between atoms: C_2  and  C_3
REMARK    3  A    between atoms: C_10  and  C_12
REMARK    4  A    between atoms: C_12  and  C_14
REMARK    5  A    between atoms: C_12  and  N_15
REMARK    6  A    between atoms: N_15  and  C_16
REMARK    7  A    between atoms: C_16  and  C_17
REMARK    8  A    between atoms: C_17  and  C_19
REMARK    9  A    between atoms: C_17  and  C_25
REMARK                            x       y       z     vdW  Elec       q    Type
REMARK                         _______ _______ _______ _____ _____    ______ ____
ROOT
ATOM      1  C   UNL     1      -1.143   2.137   5.503  0.00  0.00    -0.073 C 
ENDROOT
BRANCH   1   2
ATOM      2  N   UNL     1      -0.951   1.887   4.069  0.00  0.00    +0.387 N 
ATOM      3  H   UNL     1       0.001   1.600   3.901  0.00  0.00    -0.085 HD
ATOM      4  H   UNL     1      -1.143   2.732   3.552  0.00  0.00    -0.085 HD
BRANCH   2   5
ATOM      5  C   UNL     1      -1.867   0.826   3.630  0.00  0.00    +0.013 C 
ATOM      6  C   UNL     1      -3.312   1.311   3.767  0.00  0.00    -0.004 C 
BRANCH   5  13
ATOM      7  C   UNL     1      -1.600  -1.104   0.327  0.00  0.00    +0.076 C 
ATOM      8  C   UNL     1      -0.909  -2.471   0.378  0.00  0.00    +0.022 C 
ATOM      9  C   UNL     1      -1.818  -3.470   1.097  0.00  0.00    +0.003 C 
ATOM     10  C   UNL     1      -2.061  -2.999   2.533  0.00  0.00    +0.019 C 
ATOM     11  C   UNL     1      -2.765  -1.638   2.506  0.00  0.00    +0.108 C 
ATOM     12  N   UNL     1      -1.970  -0.708   1.692  0.00  0.00    -0.300 N 
ATOM     13  C   UNL     1      -1.587   0.485   2.189  0.00  0.00    +0.202 C 
ATOM     14  O   UNL     1      -1.015   1.283   1.477  0.00  0.00    -0.277 OA
BRANCH   7  16
ATOM     15  C   UNL     1      -0.220  -0.509  -1.669  0.00  0.00    +0.006 C 
ATOM     16  C   UNL     1      -0.643  -0.068  -0.266  0.00  0.00    +0.019 C 
ENDBRANCH   7  16
ENDBRANCH   5  13
ENDBRANCH   2   5
ENDBRANCH   1   2
BRANCH   1  17
ATOM     17  C   UNL     1      -0.174   3.227   5.965  0.00  0.00    +0.014 C 
BRANCH  17  18
ATOM     18  C   UNL     1       1.241   2.719   5.860  0.00  0.00    -0.039 C 
ATOM     19  C   UNL     1       2.241   3.246   5.118  0.00  0.00    -0.001 A 
ATOM     20  C   UNL     1       2.309   4.405   4.220  0.00  0.00    +0.010 A 
ATOM     21  C   UNL     1       3.478   4.689   3.602  0.00  0.00    +0.001 A 
ATOM     22  C   UNL     1       4.624   3.906   3.797  0.00  0.00    +0.002 A 
ATOM     23  C   UNL     1       4.640   2.826   4.607  0.00  0.00    +0.026 A 
ATOM     24  C   UNL     1       3.466   2.436   5.307  0.00  0.00    +0.043 A 
ATOM     25  N   UNL     1       3.231   1.446   6.135  0.00  0.00    -0.380 N 
ATOM     26  C   UNL     1       1.832   1.521   6.569  0.00  0.00    +0.145 C 
ATOM     27  H   UNL     1       3.876   0.778   6.416  0.00  0.00    +0.160 HD
ENDBRANCH  17  18
BRANCH  17  28
ATOM     28  C   UNL     1      -0.476   3.596   7.419  0.00  0.00    +0.060 C 
ATOM     29  C   UNL     1      -1.868   4.268   7.557  0.00  0.00    +0.042 C 
ATOM     30  C   UNL     1      -1.823   5.378   8.558  0.00  0.00    -0.019 C 
ATOM     31  C   UNL     1      -0.663   5.898   8.910  0.00  0.00    +0.036 C 
ATOM     32  S   UNL     1       0.575   4.996   7.994  0.00  0.00    -0.129 S 
ENDBRANCH  17  28
ENDBRANCH   1  17
TORSDOF 7
