REMARK  Name = ZINC36548795
REMARK  13 active torsions:
REMARK  status: ('A' for Active; 'I' for Inactive)
REMARK    1  A    between atoms: C_1  and  C_2
REMARK    2  A    between atoms: C_2  and  C_4
REMARK    3  A    between atoms: N_6  and  C_7
REMARK    4  A    between atoms: N_6  and  C_14
REMARK    5  A    between atoms: C_14  and  C_16
REMARK    6  A    between atoms: C_14  and  C_25
REMARK    7  A    between atoms: C_17  and  O_24
REMARK    8  A    between atoms: C_19  and  O_23
REMARK    9  A    between atoms: C_21  and  O_22
REMARK   10  A    between atoms: N_27  and  C_28
REMARK   11  A    between atoms: C_28  and  C_29
REMARK   12  A    between atoms: C_28  and  C_30
REMARK   13  A    between atoms: C_28  and  C_31
REMARK                            x       y       z     vdW  Elec       q    Type
REMARK                         _______ _______ _______ _____ _____    ______ ____
ROOT
ATOM      1  C   UNL     1      -2.671   1.380   0.281  0.00  0.00    +0.204 C 
ENDROOT
BRANCH   1   2
ATOM      2  C   UNL     1      -2.126   1.605   1.669  0.00  0.00    +0.065 A 
ATOM      3  C   UNL     1      -0.831   1.218   1.976  0.00  0.00    +0.129 A 
ATOM      4  C   UNL     1      -0.329   1.425   3.252  0.00  0.00    +0.091 A 
ATOM      5  C   UNL     1      -1.124   2.019   4.221  0.00  0.00    +0.124 A 
ATOM      6  C   UNL     1      -2.420   2.406   3.914  0.00  0.00    +0.091 A 
ATOM      7  C   UNL     1      -2.919   2.203   2.636  0.00  0.00    +0.129 A 
BRANCH   7   8
ATOM      8  O   UNL     1      -4.187   2.587   2.334  0.00  0.00    -0.506 OA
ATOM      9  H   UNL     1      -4.862   1.936   2.568  0.00  0.00    +0.292 HD
ENDBRANCH   7   8
BRANCH   5  10
ATOM     10  O   UNL     1      -0.633   2.221   5.472  0.00  0.00    -0.507 OA
ATOM     11  H   UNL     1      -0.195   3.075   5.590  0.00  0.00    +0.292 HD
ENDBRANCH   5  10
BRANCH   3  12
ATOM     12  O   UNL     1      -0.052   0.636   1.026  0.00  0.00    -0.506 OA
ATOM     13  H   UNL     1       0.528   1.254   0.560  0.00  0.00    +0.292 HD
ENDBRANCH   3  12
ENDBRANCH   1   2
BRANCH   1  14
ATOM     14  C   UNL     1      -1.754   2.021  -0.728  0.00  0.00    +0.239 C 
ATOM     15  O   UNL     1      -1.261   1.351  -1.611  0.00  0.00    -0.273 OA
ATOM     16  N   UNL     1      -1.482   3.339  -0.650  0.00  0.00    -0.309 N 
ATOM     17  H   UNL     1      -1.877   3.875   0.056  0.00  0.00    +0.149 HD
BRANCH  16  18
ATOM     18  C   UNL     1      -0.591   3.962  -1.632  0.00  0.00    +0.026 C 
ATOM     19  C   UNL     1      -1.176   3.788  -3.035  0.00  0.00    +0.031 C 
ATOM     20  C   UNL     1      -0.451   5.453  -1.319  0.00  0.00    +0.031 C 
ATOM     21  C   UNL     1       0.785   3.296  -1.567  0.00  0.00    +0.031 C 
ENDBRANCH  16  18
ENDBRANCH   1  14
BRANCH   1  24
ATOM     22  C   UNL     1      -3.742  -0.542  -0.765  0.00  0.00    +0.247 C 
ATOM     23  O   UNL     1      -3.740  -1.714  -1.091  0.00  0.00    -0.270 OA
ATOM     24  N   UNL     1      -2.758  -0.059   0.018  0.00  0.00    -0.250 N 
BRANCH  24  25
ATOM     25  C   UNL     1      -1.819  -0.930   0.580  0.00  0.00    +0.056 A 
ATOM     26  C   UNL     1      -0.798  -1.452  -0.204  0.00  0.00    +0.025 A 
ATOM     27  C   UNL     1       0.128  -2.313   0.353  0.00  0.00    +0.002 A 
ATOM     28  C   UNL     1       0.039  -2.655   1.690  0.00  0.00    +0.002 A 
ATOM     29  C   UNL     1      -0.975  -2.138   2.474  0.00  0.00    +0.022 A 
ATOM     30  C   UNL     1      -1.901  -1.271   1.924  0.00  0.00    +0.062 A 
ATOM     31 CL   UNL     1      -3.170  -0.615   2.911  0.00  0.00    -0.082 Cl
ENDBRANCH  24  25
BRANCH  22  33
ATOM     32  C   UNL     1      -4.582   1.832  -1.319  0.00  0.00    +0.048 C 
ATOM     33  C   UNL     1      -4.819   0.347  -1.226  0.00  0.00    +0.005 C 
ATOM     34  C   UNL     1      -6.003  -0.160  -1.559  0.00  0.00    +0.017 C 
ENDBRANCH  22  33
ENDBRANCH   1  24
TORSDOF 9
