REMARK  Name = ZINC63526546
REMARK  9 active torsions:
REMARK  status: ('A' for Active; 'I' for Inactive)
REMARK    1  A    between atoms: C_1  and  C_2
REMARK    2  A    between atoms: C_4  and  N_25
REMARK    3  A    between atoms: C_5  and  C_24
REMARK    4  A    between atoms: N_6  and  C_8
REMARK    5  A    between atoms: C_8  and  C_9
REMARK    6  A    between atoms: C_9  and  C_10
REMARK    7  A    between atoms: C_10  and  C_11
REMARK    8  A    between atoms: N_13  and  C_14
REMARK    9  A    between atoms: C_14  and  C_15
REMARK                            x       y       z     vdW  Elec       q    Type
REMARK                         _______ _______ _______ _____ _____    ______ ____
ROOT
ATOM      1  C   UNL     1       1.115  -5.501   3.927  0.00  0.00    +0.213 C 
ATOM      2  O   UNL     1       1.277  -5.877   2.785  0.00  0.00    -0.276 OA
ATOM      3  N   UNL     1       1.378  -6.332   4.954  0.00  0.00    -0.312 N 
ATOM      4  H   UNL     1       1.248  -6.031   5.867  0.00  0.00    +0.149 HD
ENDROOT
BRANCH   1   5
ATOM      5  C   UNL     1       0.620  -4.103   4.196  0.00  0.00    +0.097 C 
BRANCH   5   6
ATOM      6  C   UNL     1       0.401  -3.374   2.869  0.00  0.00    +0.030 C 
BRANCH   6   7
ATOM      7  C   UNL     1      -0.101  -1.956   3.143  0.00  0.00    +0.124 C 
BRANCH   7  12
ATOM      8  C   UNL     1      -0.019   1.526   0.010  0.00  0.00    +0.032 C 
ATOM      9  C   UNL     1       0.002  -0.004   0.002  0.00  0.00    +0.125 C 
ATOM     10  C   UNL     1      -1.407  -0.553   0.057  0.00  0.00    +0.139 C 
ATOM     11  C   UNL     1      -1.497  -1.261   1.165  0.00  0.00    +0.046 C 
ATOM     12  N   UNL     1      -0.311  -1.258   1.871  0.00  0.00    -0.269 N 
ATOM     13  N   UNL     1       0.644  -0.519   1.228  0.00  0.00    -0.232 NA
ATOM     14  C   UNL     1      -2.743  -1.985   1.607  0.00  0.00    +0.064 C 
ATOM     15  H   UNL     1       1.451  -1.082   1.005  0.00  0.00    +0.145 HD
BRANCH  10  16
ATOM     16  N   UNL     1      -2.479  -0.336  -0.941  0.00  0.00    +0.055 N 
ATOM     17  O   UNL     1      -3.568  -0.834  -0.776  0.00  0.00    -0.126 OA
ATOM     18  O   UNL     1      -2.265   0.340  -1.920  0.00  0.00    -0.126 OA
ENDBRANCH  10  16
ENDBRANCH   7  12
ENDBRANCH   6   7
ENDBRANCH   5   6
ENDBRANCH   1   5
BRANCH   3  19
ATOM     19  C   UNL     1       1.859  -7.691   4.692  0.00  0.00    +0.150 C 
BRANCH  19  20
ATOM     20  C   UNL     1       2.078  -8.419   6.020  0.00  0.00    +0.191 C 
ATOM     21  N   UNL     1       0.835  -8.427   6.801  0.00  0.00    -0.362 N 
ATOM     22  C   UNL     1       1.071  -7.800   7.917  0.00  0.00    +0.060 A 
ATOM     23  C   UNL     1       0.235  -7.488   9.085  0.00  0.00    +0.027 A 
ATOM     24  C   UNL     1       0.766  -6.807  10.120  0.00  0.00    +0.002 A 
ATOM     25  C   UNL     1       2.104  -6.374  10.137  0.00  0.00    +0.002 A 
ATOM     26  C   UNL     1       2.956  -6.607   9.118  0.00  0.00    +0.027 A 
ATOM     27  C   UNL     1       2.488  -7.342   7.935  0.00  0.00    +0.060 A 
ATOM     28  N   UNL     1       3.072  -7.704   6.830  0.00  0.00    -0.362 N 
ATOM     29  H   UNL     1      -0.008  -8.826   6.535  0.00  0.00    +0.162 HD
ATOM     30  H   UNL     1       3.995  -7.532   6.585  0.00  0.00    +0.162 HD
ENDBRANCH  19  20
ENDBRANCH   3  19
TORSDOF 7
