REMARK  Name = ZINC23192939
REMARK  5 active torsions:
REMARK  status: ('A' for Active; 'I' for Inactive)
REMARK    1  A    between atoms: C_2  and  C_19
REMARK    2  A    between atoms: N_5  and  C_6
REMARK    3  A    between atoms: C_6  and  C_7
REMARK    4  A    between atoms: N_10  and  C_13
REMARK    5  A    between atoms: C_19  and  N_20
REMARK                            x       y       z     vdW  Elec       q    Type
REMARK                         _______ _______ _______ _____ _____    ______ ____
ROOT
ATOM      1  C   UNL     1       1.264   1.724  -0.001  0.00  0.00    +0.131 A 
ATOM      2  C   UNL     1       2.044   0.619  -0.014  0.00  0.00    +0.066 A 
ATOM      3  N   UNL     1       1.215  -0.431  -0.012  0.00  0.00    -0.136 NA
ATOM      4  N   UNL     1       0.002  -0.004   0.002  0.00  0.00    -0.066 NA
ATOM      5  N   UNL     1      -0.015   1.283   0.009  0.00  0.00    -0.251 N 
ENDROOT
BRANCH   5   6
ATOM      6  C   UNL     1      -1.214   2.125   0.020  0.00  0.00    +0.148 C 
BRANCH   6   7
ATOM      7  C   UNL     1      -2.113   1.747  -1.159  0.00  0.00    +0.007 C 
ATOM      8  C   UNL     1      -1.400   2.079  -2.473  0.00  0.00    -0.013 C 
ATOM      9  C   UNL     1      -2.329   1.757  -3.647  0.00  0.00    -0.078 C 
ATOM     10  N   UNL     1      -3.564   2.542  -3.526  0.00  0.00    +0.382 N 
ATOM     11  C   UNL     1      -4.289   2.204  -2.295  0.00  0.00    -0.078 C 
ATOM     12  C   UNL     1      -3.420   2.541  -1.081  0.00  0.00    -0.013 C 
ATOM     13  H   UNL     1      -3.283   3.604  -3.469  0.00  0.00    -0.081 HD
BRANCH  10  14
ATOM     14  C   UNL     1      -4.420   2.362  -4.707  0.00  0.00    -0.067 C 
ATOM     15  C   UNL     1      -4.794   0.888  -4.835  0.00  0.00    -0.005 C 
ATOM     16  C   UNL     1      -5.907   0.721  -5.874  0.00  0.00    +0.067 C 
ATOM     17  S   UNL     1      -5.282   1.273  -7.490  0.00  0.00    -0.161 S 
ATOM     18  C   UNL     1      -4.633   2.934  -7.135  0.00  0.00    +0.067 C 
ATOM     19  C   UNL     1      -3.670   2.840  -5.947  0.00  0.00    -0.005 C 
ENDBRANCH  10  14
ENDBRANCH   6   7
ENDBRANCH   5   6
BRANCH   2  20
ATOM     20  C   UNL     1       3.550   0.578  -0.028  0.00  0.00    -0.018 C 
BRANCH  20  21
ATOM     21  N   UNL     1       4.050   0.438   1.346  0.00  0.00    +0.390 N 
ATOM     22  C   UNL     1       5.511   0.608   1.397  0.00  0.00    -0.059 C 
ATOM     23  C   UNL     1       5.937   0.762   2.858  0.00  0.00    +0.085 C 
ATOM     24  N   UNL     1       5.359  -0.310   3.664  0.00  0.00    -0.319 N 
ATOM     25  C   UNL     1       4.320  -1.046   3.256  0.00  0.00    +0.196 C 
ATOM     26  O   UNL     1       3.883  -1.897   4.002  0.00  0.00    -0.278 OA
ATOM     27  C   UNL     1       3.671  -0.863   1.914  0.00  0.00    +0.019 C 
ATOM     28  H   UNL     1       5.780  -0.542   4.653  0.00  0.00    +0.149 HD
ATOM     29  H   UNL     1       3.584   1.230   1.951  0.00  0.00    -0.081 HD
ENDBRANCH  20  21
ENDBRANCH   2  20
TORSDOF 5
