REMARK  Name = ZINC01129220
REMARK  8 active torsions:
REMARK  status: ('A' for Active; 'I' for Inactive)
REMARK    1  A    between atoms: C_1  and  C_2
REMARK    2  A    between atoms: C_2  and  C_39
REMARK    3  A    between atoms: C_6  and  C_19
REMARK    4  A    between atoms: C_22  and  O_27
REMARK    5  A    between atoms: C_23  and  O_25
REMARK    6  A    between atoms: O_25  and  C_26
REMARK    7  A    between atoms: O_27  and  C_28
REMARK    8  A    between atoms: C_28  and  C_29
REMARK                            x       y       z     vdW  Elec       q    Type
REMARK                         _______ _______ _______ _____ _____    ______ ____
ROOT
ATOM      1  C   UNL     1      -0.808   3.146   2.211  0.00  0.00    +0.011 C 
ATOM      2  C   UNL     1      -1.229   3.398   0.761  0.00  0.00    -0.023 C 
ATOM      3  C   UNL     1      -1.354   2.064   0.020  0.00  0.00    +0.058 C 
ATOM      4  C   UNL     1      -0.017   1.365   0.009  0.00  0.00    +0.017 C 
ATOM      5  C   UNL     1       1.135   2.068   0.002  0.00  0.00    +0.024 C 
ATOM      6  C   UNL     1       2.470   1.368  -0.014  0.00  0.00    +0.092 C 
ATOM      7  C   UNL     1       2.329  -0.064  -0.443  0.00  0.00    +0.067 A 
ATOM      8  C   UNL     1       1.118  -0.686  -0.415  0.00  0.00    +0.113 A 
ATOM      9  N   UNL     1       1.020  -2.000  -0.806  0.00  0.00    -0.295 N 
ATOM     10  H   UNL     1       0.134  -2.461  -0.784  0.00  0.00    +0.172 HD
ATOM     11  C   UNL     1       2.113  -2.668  -1.217  0.00  0.00    +0.328 A 
ATOM     12  O   UNL     1       2.011  -3.831  -1.559  0.00  0.00    -0.247 OA
ATOM     13  N   UNL     1       3.318  -2.070  -1.256  0.00  0.00    -0.275 N 
ATOM     14  H   UNL     1       4.117  -2.584  -1.567  0.00  0.00    +0.173 HD
ATOM     15  C   UNL     1       3.456  -0.783  -0.880  0.00  0.00    +0.260 A 
ATOM     16  O   UNL     1       4.550  -0.247  -0.919  0.00  0.00    -0.267 OA
ATOM     17  N   UNL     1       0.002  -0.004   0.002  0.00  0.00    -0.303 N 
ATOM     18  C   UNL     1       1.126   3.474   0.014  0.00  0.00    +0.162 C 
ATOM     19  O   UNL     1       2.181   4.077  -0.010  0.00  0.00    -0.292 OA
ATOM     20  C   UNL     1      -0.164   4.245   0.056  0.00  0.00    +0.086 C 
ATOM     21  C   UNL     1      -2.571   4.133   0.736  0.00  0.00    +0.011 C 
ATOM     22  H   UNL     1      -0.781  -0.497   0.294  0.00  0.00    +0.153 HD
ENDROOT
BRANCH   6  23
ATOM     23  C   UNL     1       3.068   1.412   1.369  0.00  0.00    -0.032 A 
ATOM     24  C   UNL     1       2.409   0.809   2.424  0.00  0.00    +0.008 A 
ATOM     25  C   UNL     1       2.956   0.843   3.694  0.00  0.00    +0.050 A 
ATOM     26  C   UNL     1       4.161   1.491   3.912  0.00  0.00    +0.162 A 
ATOM     27  C   UNL     1       4.821   2.103   2.851  0.00  0.00    +0.162 A 
ATOM     28  C   UNL     1       4.270   2.061   1.580  0.00  0.00    +0.054 A 
BRANCH  27  29
ATOM     29  O   UNL     1       6.004   2.740   3.060  0.00  0.00    -0.491 OA
ATOM     30  C   UNL     1       6.625   3.346   1.924  0.00  0.00    +0.277 C 
ENDBRANCH  27  29
BRANCH  26  31
ATOM     31  O   UNL     1       4.697   1.530   5.161  0.00  0.00    -0.484 OA
BRANCH  31  32
ATOM     32  C   UNL     1       3.965   0.881   6.202  0.00  0.00    +0.266 C 
BRANCH  32  33
ATOM     33  C   UNL     1       4.707   1.027   7.505  0.00  0.00    +0.008 A 
ATOM     34  C   UNL     1       5.910   1.707   7.543  0.00  0.00    +0.008 A 
ATOM     35  C   UNL     1       6.589   1.845   8.739  0.00  0.00    +0.000 A 
ATOM     36  C   UNL     1       6.070   1.294   9.897  0.00  0.00    +0.001 A 
ATOM     37  C   UNL     1       4.870   0.610   9.859  0.00  0.00    +0.020 A 
ATOM     38  C   UNL     1       4.188   0.476   8.663  0.00  0.00    +0.047 A 
ATOM     39 CL   UNL     1       2.680  -0.385   8.615  0.00  0.00    -0.083 Cl
ENDBRANCH  32  33
ENDBRANCH  31  32
ENDBRANCH  26  31
ENDBRANCH   6  23
TORSDOF 5
