REMARK  Name = ZINC06199022
REMARK  8 active torsions:
REMARK  status: ('A' for Active; 'I' for Inactive)
REMARK    1  A    between atoms: C_1  and  C_2
REMARK    2  A    between atoms: C_5  and  S_8
REMARK    3  A    between atoms: S_8  and  N_11
REMARK    4  A    between atoms: N_11  and  C_12
REMARK    5  A    between atoms: C_24  and  S_26
REMARK    6  A    between atoms: S_26  and  C_27
REMARK    7  A    between atoms: C_30  and  C_33
REMARK    8  A    between atoms: N_31  and  N_32
REMARK                            x       y       z     vdW  Elec       q    Type
REMARK                         _______ _______ _______ _____ _____    ______ ____
ROOT
ATOM      1  C   UNL     1      -1.290   1.681   0.017  0.00  0.00    +0.125 C 
ATOM      2  C   UNL     1      -1.849   1.733   1.418  0.00  0.00    -0.019 A 
ATOM      3  C   UNL     1      -1.422   2.257   2.600  0.00  0.00    +0.006 A 
ATOM      4  C   UNL     1      -2.201   2.128   3.752  0.00  0.00    +0.001 A 
ATOM      5  C   UNL     1      -3.405   1.486   3.750  0.00  0.00    +0.008 A 
ATOM      6  C   UNL     1      -3.876   0.932   2.548  0.00  0.00    -0.017 A 
ATOM      7  C   UNL     1      -3.074   1.074   1.402  0.00  0.00    -0.009 A 
ATOM      8  C   UNL     1      -3.441   0.566   0.160  0.00  0.00    -0.024 A 
ATOM      9  C   UNL     1      -4.628  -0.094   0.066  0.00  0.00    +0.005 A 
ATOM     10  C   UNL     1      -5.441  -0.248   1.191  0.00  0.00    +0.001 A 
ATOM     11  C   UNL     1      -5.094   0.245   2.416  0.00  0.00    +0.008 A 
ATOM     12  C   UNL     1      -2.340   0.911  -0.813  0.00  0.00    +0.108 C 
ENDROOT
BRANCH   1  13
ATOM     13  N   UNL     1      -0.011   0.966   0.007  0.00  0.00    -0.181 NA
ATOM     14  H   UNL     1       0.002  -0.004   0.002  0.00  0.00    +0.149 HD
BRANCH  13  15
ATOM     15  S   UNL     1       1.412   1.813  -0.002  0.00  0.00    +0.059 S 
ATOM     16  O   UNL     1       2.457   0.851   0.010  0.00  0.00    -0.153 OA
ATOM     17  O   UNL     1       1.292   2.796  -1.021  0.00  0.00    -0.153 OA
BRANCH  15  22
ATOM     18  C   UNL     1       1.748   4.791   5.235  0.00  0.00    +0.044 C 
ATOM     19  C   UNL     1       1.664   4.047   3.927  0.00  0.00    -0.050 A 
ATOM     20  C   UNL     1       2.186   2.771   3.823  0.00  0.00    +0.005 A 
ATOM     21  C   UNL     1       2.108   2.089   2.623  0.00  0.00    +0.029 A 
ATOM     22  C   UNL     1       1.510   2.683   1.528  0.00  0.00    +0.105 A 
ATOM     23  C   UNL     1       0.993   3.961   1.630  0.00  0.00    +0.029 A 
ATOM     24  C   UNL     1       1.066   4.641   2.832  0.00  0.00    +0.005 A 
ENDBRANCH  15  22
ENDBRANCH  13  15
ENDBRANCH   1  13
BRANCH  12  25
ATOM     25  S   UNL     1      -2.982   1.960  -2.140  0.00  0.00    -0.076 S 
BRANCH  25  26
ATOM     26  C   UNL     1      -4.008   0.799  -2.979  0.00  0.00    +0.187 A 
ATOM     27  N   UNL     1      -4.182  -0.457  -2.641  0.00  0.00    -0.228 NA
ATOM     28  C   UNL     1      -5.030  -1.037  -3.506  0.00  0.00    +0.145 A 
ATOM     29  C   UNL     1      -5.401  -0.119  -4.414  0.00  0.00    +0.161 A 
ATOM     30  N   UNL     1      -4.760   1.054  -4.085  0.00  0.00    -0.239 N 
BRANCH  29  31
ATOM     31  C   UNL     1      -6.343  -0.332  -5.571  0.00  0.00    +0.436 C 
ATOM     32  F   UNL     1      -6.881  -1.621  -5.504  0.00  0.00    -0.164 F 
ATOM     33  F   UNL     1      -7.378   0.609  -5.509  0.00  0.00    -0.164 F 
ATOM     34  F   UNL     1      -5.646  -0.179  -6.774  0.00  0.00    -0.164 F 
ENDBRANCH  29  31
BRANCH  30  35
ATOM     35  N   UNL     1      -4.858   2.247  -4.744  0.00  0.00    -0.296 N 
ATOM     36  H   UNL     1      -4.160   2.318  -5.468  0.00  0.00    +0.163 HD
ATOM     37  H   UNL     1      -5.785   2.376  -5.121  0.00  0.00    +0.163 HD
ENDBRANCH  30  35
ENDBRANCH  25  26
ENDBRANCH  12  25
TORSDOF 7
