REMARK  Name = ZINC08682323
REMARK  7 active torsions:
REMARK  status: ('A' for Active; 'I' for Inactive)
REMARK    1  A    between atoms: C_1  and  O_2
REMARK    2  A    between atoms: O_2  and  C_3
REMARK    3  A    between atoms: C_5  and  N_12
REMARK    4  A    between atoms: C_6  and  O_10
REMARK    5  A    between atoms: O_10  and  C_11
REMARK    6  A    between atoms: C_13  and  S_25
REMARK    7  A    between atoms: N_17  and  C_20
REMARK                            x       y       z     vdW  Elec       q    Type
REMARK                         _______ _______ _______ _____ _____    ______ ____
ROOT
ATOM      1  N   UNL     1       0.386   9.404  -2.517  0.00  0.00    -0.223 NA
ATOM      2  C   UNL     1       1.102   8.652  -1.714  0.00  0.00    +0.154 C 
ATOM      3  N   UNL     1       0.566   7.499  -1.192  0.00  0.00    -0.307 N 
ATOM      4  C   UNL     1       1.351   6.643  -0.289  0.00  0.00    +0.126 C 
ATOM      5  C   UNL     1       1.292   5.203  -0.811  0.00  0.00    +0.125 C 
ATOM      6  N   UNL     1      -0.111   4.804  -0.982  0.00  0.00    -0.314 N 
ATOM      7  C   UNL     1      -0.781   5.632  -1.994  0.00  0.00    +0.125 C 
ATOM      8  C   UNL     1      -0.808   7.090  -1.520  0.00  0.00    +0.126 C 
ENDROOT
BRANCH   1  11
ATOM      9  C   UNL     1       2.689  11.351  -4.588  0.00  0.00    +0.141 A 
ATOM     10  C   UNL     1       2.110  10.275  -3.936  0.00  0.00    +0.078 A 
ATOM     11  C   UNL     1       0.967  10.466  -3.161  0.00  0.00    +0.112 A 
ATOM     12  C   UNL     1       0.417  11.748  -3.038  0.00  0.00    +0.147 A 
ATOM     13  C   UNL     1       1.007  12.816  -3.690  0.00  0.00    +0.071 A 
ATOM     14  C   UNL     1       2.139  12.620  -4.462  0.00  0.00    +0.086 A 
ATOM     15 CL   UNL     1       2.874  13.965  -5.277  0.00  0.00    -0.080 Cl
BRANCH   9  17
ATOM     16  C   UNL     1       4.314   9.835  -5.434  0.00  0.00    +0.277 C 
ATOM     17  O   UNL     1       3.801  11.166  -5.348  0.00  0.00    -0.494 OA
ENDBRANCH   9  17
BRANCH  12  18
ATOM     18  O   UNL     1      -0.695  11.943  -2.279  0.00  0.00    -0.493 OA
ATOM     19  C   UNL     1      -1.200  13.277  -2.199  0.00  0.00    +0.277 C 
ENDBRANCH  12  18
ENDBRANCH   1  11
BRANCH   6  20
ATOM     20  C   UNL     1      -0.210   3.454  -1.298  0.00  0.00    +0.099 A 
ATOM     21  C   UNL     1      -1.463   2.883  -1.500  0.00  0.00    +0.042 A 
ATOM     22  C   UNL     1      -1.546   1.540  -1.819  0.00  0.00    +0.005 A 
ATOM     23  C   UNL     1      -0.371   0.808  -1.916  0.00  0.00    +0.018 A 
ATOM     24  C   UNL     1       0.839   1.438  -1.703  0.00  0.00    +0.084 A 
ATOM     25  N   UNL     1       0.959   2.757  -1.393  0.00  0.00    -0.350 N 
ATOM     26  H   UNL     1       1.872   3.200  -1.240  0.00  0.00    +0.166 HD
ENDBRANCH   6  20
BRANCH   2  27
ATOM     27  S   UNL     1       2.751   9.121  -1.304  0.00  0.00    -0.108 S 
ATOM     28  H   UNL     1       2.809  10.383  -1.931  0.00  0.00    +0.110 HD
ENDBRANCH   2  27
TORSDOF 5
