REMARK  Name = ZINC21533207
REMARK  5 active torsions:
REMARK  status: ('A' for Active; 'I' for Inactive)
REMARK    1  A    between atoms: C_1  and  C_2
REMARK    2  A    between atoms: C_6  and  C_11
REMARK    3  A    between atoms: C_16  and  C_19
REMARK    4  A    between atoms: N_21  and  C_22
REMARK    5  A    between atoms: C_22  and  C_23
REMARK                            x       y       z     vdW  Elec       q    Type
REMARK                         _______ _______ _______ _____ _____    ______ ____
ROOT
ATOM      1  C   UNL     1       4.817   1.576   3.241  0.00  0.00    +0.070 C 
ATOM      2  C   UNL     1       5.943   2.421   2.703  0.00  0.00    +0.093 A 
ATOM      3  C   UNL     1       6.483   2.417   1.345  0.00  0.00    +0.103 A 
ATOM      4  C   UNL     1       6.247   1.750   0.139  0.00  0.00    +0.138 A 
ATOM      5  N   UNL     1       7.010   2.061  -0.909  0.00  0.00    -0.217 NA
ATOM      6  C   UNL     1       7.953   2.980  -0.812  0.00  0.00    +0.132 A 
ATOM      7  N   UNL     1       8.207   3.630   0.305  0.00  0.00    -0.195 NA
ATOM      8  C   UNL     1       7.505   3.387   1.403  0.00  0.00    +0.263 A 
ATOM      9  O   UNL     1       7.489   3.841   2.665  0.00  0.00    -0.334 OA
ATOM     10  N   UNL     1       6.643   3.309   3.347  0.00  0.00    -0.080 NA
ATOM     11  C   UNL     1       8.780   3.293  -2.033  0.00  0.00    +0.088 C 
ATOM     12  N   UNL     1       5.257   0.794   0.038  0.00  0.00    -0.314 N 
ATOM     13  C   UNL     1       5.676  -0.307  -0.838  0.00  0.00    +0.106 C 
ATOM     14  C   UNL     1       4.619  -1.413  -0.811  0.00  0.00    +0.020 C 
ATOM     15  C   UNL     1       3.279  -0.843  -1.283  0.00  0.00    +0.016 C 
ATOM     16  C   UNL     1       2.888   0.333  -0.383  0.00  0.00    +0.092 C 
ATOM     17  C   UNL     1       3.996   1.388  -0.423  0.00  0.00    +0.119 C 
ENDROOT
BRANCH  16  18
ATOM     18  C   UNL     1       1.599   0.938  -0.877  0.00  0.00    +0.218 C 
ATOM     19  O   UNL     1       1.568   2.100  -1.222  0.00  0.00    -0.275 OA
ATOM     20  N   UNL     1       0.481   0.187  -0.934  0.00  0.00    -0.310 N 
ATOM     21  H   UNL     1       0.509  -0.866  -0.617  0.00  0.00    +0.149 HD
BRANCH  20  22
ATOM     22  C   UNL     1      -0.770   0.773  -1.420  0.00  0.00    +0.146 C 
BRANCH  22  23
ATOM     23  C   UNL     1      -1.858  -0.269  -1.391  0.00  0.00    +0.007 A 
ATOM     24  C   UNL     1      -2.718  -0.578  -0.389  0.00  0.00    +0.013 A 
ATOM     25  C   UNL     1      -3.647  -1.582  -0.589  0.00  0.00    +0.008 A 
ATOM     26  C   UNL     1      -3.664  -2.235  -1.777  0.00  0.00    +0.045 A 
ATOM     27  S   UNL     1      -2.343  -1.424  -2.663  0.00  0.00    -0.100 S 
ENDBRANCH  22  23
ENDBRANCH  20  22
ENDBRANCH  16  18
TORSDOF 3
