REMARK  Name = ZINC63416337
REMARK  6 active torsions:
REMARK  status: ('A' for Active; 'I' for Inactive)
REMARK    1  A    between atoms: C_1  and  C_2
REMARK    2  A    between atoms: C_2  and  O_3
REMARK    3  A    between atoms: O_3  and  C_4
REMARK    4  A    between atoms: N_6  and  N_7
REMARK    5  A    between atoms: C_8  and  C_10
REMARK    6  A    between atoms: C_12  and  C_21
REMARK                            x       y       z     vdW  Elec       q    Type
REMARK                         _______ _______ _______ _____ _____    ______ ____
ROOT
ATOM      1  C   UNL     1      -6.170  -1.501   0.350  0.00  0.00    +0.199 C 
ATOM      2  C   UNL     1      -6.450  -0.698   1.601  0.00  0.00    -0.000 C 
ATOM      3  C   UNL     1      -7.800  -0.864   1.858  0.00  0.00    +0.005 A 
ATOM      4  C   UNL     1      -8.647  -0.367   2.878  0.00  0.00    +0.025 A 
ATOM      5  C   UNL     1      -9.961  -0.701   2.882  0.00  0.00    +0.019 A 
ATOM      6  C   UNL     1     -10.511  -1.531   1.897  0.00  0.00    +0.017 A 
ATOM      7  C   UNL     1      -9.762  -2.042   0.892  0.00  0.00    +0.027 A 
ATOM      8  C   UNL     1      -8.376  -1.738   0.819  0.00  0.00    +0.044 A 
ATOM      9  N   UNL     1      -7.449  -2.102  -0.042  0.00  0.00    -0.370 N 
ATOM     10 BR   UNL     1     -11.079  -0.029   4.252  0.00  0.00    -0.050 Br
ATOM     11  H   UNL     1      -7.588  -2.675  -0.811  0.00  0.00    +0.161 HD
ENDROOT
BRANCH   2  12
ATOM     12  C   UNL     1      -5.491   0.091   2.378  0.00  0.00    -0.019 A 
ATOM     13  C   UNL     1      -4.721   1.081   1.752  0.00  0.00    +0.008 A 
ATOM     14  C   UNL     1      -3.822   1.818   2.492  0.00  0.00    +0.001 A 
ATOM     15  C   UNL     1      -3.678   1.584   3.849  0.00  0.00    +0.000 A 
ATOM     16  C   UNL     1      -4.435   0.608   4.476  0.00  0.00    +0.001 A 
ATOM     17  C   UNL     1      -5.343  -0.136   3.754  0.00  0.00    +0.008 A 
ENDBRANCH   2  12
BRANCH   1  19
ATOM     18  N   UNL     1      -3.842  -2.325   0.498  0.00  0.00    -0.230 N 
ATOM     19  C   UNL     1      -5.158  -2.579   0.641  0.00  0.00    +0.256 C 
ATOM     20  O   UNL     1      -5.527  -3.676   1.005  0.00  0.00    -0.272 OA
ATOM     21  H   UNL     1      -3.549  -1.473   0.138  0.00  0.00    +0.173 HD
BRANCH  18  24
ATOM     22  C   UNL     1      -1.582  -3.037   0.724  0.00  0.00    +0.417 C 
ATOM     23  O   UNL     1      -0.762  -3.875   1.046  0.00  0.00    -0.225 OA
ATOM     24  N   UNL     1      -2.897  -3.291   0.868  0.00  0.00    -0.200 N 
ATOM     25  H   UNL     1      -3.190  -4.143   1.228  0.00  0.00    +0.176 HD
BRANCH  22  26
ATOM     26  O   UNL     1      -1.175  -1.854   0.225  0.00  0.00    -0.450 OA
BRANCH  26  28
ATOM     27  C   UNL     1       0.501  -0.263  -0.480  0.00  0.00    +0.048 C 
ATOM     28  C   UNL     1       0.234  -1.653   0.101  0.00  0.00    +0.230 C 
ENDBRANCH  26  28
ENDBRANCH  22  26
ENDBRANCH  18  24
ENDBRANCH   1  19
TORSDOF 5
