REMARK  Name = ZINC44973583
REMARK  6 active torsions:
REMARK  status: ('A' for Active; 'I' for Inactive)
REMARK    1  A    between atoms: C_1  and  C_2
REMARK    2  A    between atoms: C_2  and  C_33
REMARK    3  A    between atoms: C_6  and  C_24
REMARK    4  A    between atoms: C_11  and  S_15
REMARK    5  A    between atoms: S_15  and  C_16
REMARK    6  A    between atoms: C_16  and  C_17
REMARK                            x       y       z     vdW  Elec       q    Type
REMARK                         _______ _______ _______ _____ _____    ______ ____
ROOT
ATOM      1  C   UNL     1      -0.019   1.526   0.010  0.00  0.00    +0.011 C 
ATOM      2  C   UNL     1       0.002  -0.004   0.002  0.00  0.00    -0.023 C 
ATOM      3  C   UNL     1       0.740  -0.502  -1.242  0.00  0.00    +0.058 C 
ATOM      4  C   UNL     1       2.167  -0.009  -1.216  0.00  0.00    +0.017 C 
ATOM      5  C   UNL     1       2.812   0.188  -0.046  0.00  0.00    +0.024 C 
ATOM      6  C   UNL     1       4.237   0.680  -0.009  0.00  0.00    +0.090 C 
ATOM      7  C   UNL     1       4.912   0.502  -1.335  0.00  0.00    +0.044 A 
ATOM      8  C   UNL     1       6.300   0.550  -1.438  0.00  0.00    +0.126 A 
ATOM      9  N   UNL     1       6.862   0.391  -2.634  0.00  0.00    -0.207 NA
ATOM     10  C   UNL     1       6.120   0.190  -3.713  0.00  0.00    +0.192 A 
ATOM     11  N   UNL     1       4.796   0.139  -3.650  0.00  0.00    -0.206 NA
ATOM     12  C   UNL     1       4.169   0.288  -2.487  0.00  0.00    +0.133 A 
ATOM     13  N   UNL     1       2.787   0.228  -2.411  0.00  0.00    -0.302 N 
ATOM     14  N   UNL     1       7.083   0.760  -0.314  0.00  0.00    -0.343 N 
ATOM     15  C   UNL     1       2.173  -0.056   1.182  0.00  0.00    +0.162 C 
ATOM     16  O   UNL     1       2.788   0.109   2.217  0.00  0.00    -0.292 OA
ATOM     17  C   UNL     1       0.742  -0.517   1.242  0.00  0.00    +0.086 C 
ATOM     18  C   UNL     1      -1.431  -0.539   0.000  0.00  0.00    +0.011 C 
ATOM     19  H   UNL     1       2.256   0.355  -3.212  0.00  0.00    +0.153 HD
ATOM     20  H   UNL     1       6.665   0.875   0.554  0.00  0.00    +0.144 HD
ATOM     21  H   UNL     1       8.049   0.791  -0.394  0.00  0.00    +0.144 HD
ENDROOT
BRANCH   6  22
ATOM     22  C   UNL     1       4.243   2.143   0.354  0.00  0.00    -0.035 A 
ATOM     23  C   UNL     1       3.584   3.056  -0.448  0.00  0.00    +0.004 A 
ATOM     24  C   UNL     1       3.590   4.398  -0.115  0.00  0.00    +0.000 A 
ATOM     25  C   UNL     1       4.255   4.826   1.019  0.00  0.00    +0.000 A 
ATOM     26  C   UNL     1       4.913   3.913   1.820  0.00  0.00    +0.000 A 
ATOM     27  C   UNL     1       4.904   2.570   1.490  0.00  0.00    +0.004 A 
ENDBRANCH   6  22
BRANCH  10  28
ATOM     28  S   UNL     1       6.912  -0.012  -5.274  0.00  0.00    -0.081 S 
BRANCH  28  29
ATOM     29  C   UNL     1       8.679   0.130  -4.891  0.00  0.00    +0.112 C 
BRANCH  29  30
ATOM     30  C   UNL     1       9.482  -0.027  -6.156  0.00  0.00    -0.037 A 
ATOM     31  C   UNL     1       9.900  -1.281  -6.559  0.00  0.00    +0.004 A 
ATOM     32  C   UNL     1      10.637  -1.425  -7.720  0.00  0.00    +0.000 A 
ATOM     33  C   UNL     1      10.954  -0.314  -8.479  0.00  0.00    +0.000 A 
ATOM     34  C   UNL     1      10.534   0.940  -8.077  0.00  0.00    +0.000 A 
ATOM     35  C   UNL     1       9.794   1.083  -6.918  0.00  0.00    +0.004 A 
ENDBRANCH  29  30
ENDBRANCH  28  29
ENDBRANCH  10  28
TORSDOF 4
