REMARK  Name = ZINC57270811
REMARK  5 active torsions:
REMARK  status: ('A' for Active; 'I' for Inactive)
REMARK    1  A    between atoms: C_4  and  C_7
REMARK    2  A    between atoms: C_7  and  C_31
REMARK    3  A    between atoms: N_10  and  C_14
REMARK    4  A    between atoms: C_14  and  N_15
REMARK    5  A    between atoms: C_19  and  C_21
REMARK                            x       y       z     vdW  Elec       q    Type
REMARK                         _______ _______ _______ _____ _____    ______ ____
ROOT
ATOM      1  C   UNL     1       3.711  -0.707  -0.038  0.00  0.00    +0.164 C 
ATOM      2  C   UNL     1       4.021  -0.967  -1.498  0.00  0.00    +0.257 C 
ATOM      3  O   UNL     1       3.340  -1.577  -2.294  0.00  0.00    -0.272 OA
ATOM      4  N   UNL     1       5.211  -0.377  -1.729  0.00  0.00    -0.210 N 
ATOM      5  C   UNL     1       5.691   0.213  -0.628  0.00  0.00    +0.311 C 
ATOM      6  O   UNL     1       6.749   0.809  -0.588  0.00  0.00    -0.252 OA
ATOM      7  N   UNL     1       4.871   0.072   0.429  0.00  0.00    -0.278 N 
ATOM      8  H   UNL     1       5.016   0.416   1.325  0.00  0.00    +0.152 HD
ENDROOT
BRANCH   1  12
ATOM      9  C   UNL     1       0.116   1.567   0.356  0.00  0.00    +0.000 A 
ATOM     10  C   UNL     1       0.154   0.474  -0.490  0.00  0.00    +0.000 A 
ATOM     11  C   UNL     1       1.317  -0.261  -0.618  0.00  0.00    +0.006 A 
ATOM     12  C   UNL     1       2.443   0.096   0.101  0.00  0.00    -0.011 A 
ATOM     13  C   UNL     1       2.406   1.188   0.946  0.00  0.00    +0.006 A 
ATOM     14  C   UNL     1       1.242   1.923   1.075  0.00  0.00    +0.000 A 
ENDBRANCH   1  12
BRANCH   1  15
ATOM     15  C   UNL     1       3.602  -2.003   0.723  0.00  0.00    -0.011 A 
ATOM     16  C   UNL     1       2.774  -3.009   0.260  0.00  0.00    +0.006 A 
ATOM     17  C   UNL     1       2.674  -4.198   0.958  0.00  0.00    +0.000 A 
ATOM     18  C   UNL     1       3.402  -4.382   2.118  0.00  0.00    +0.000 A 
ATOM     19  C   UNL     1       4.231  -3.377   2.581  0.00  0.00    +0.000 A 
ATOM     20  C   UNL     1       4.334  -2.189   1.881  0.00  0.00    +0.006 A 
ENDBRANCH   1  15
BRANCH   4  21
ATOM     21  C   UNL     1       5.895  -0.382  -3.024  0.00  0.00    +0.205 C 
BRANCH  21  22
ATOM     22  N   UNL     1       5.475   0.789  -3.804  0.00  0.00    -0.279 NA
ATOM     23  C   UNL     1       6.270   1.982  -3.439  0.00  0.00    +0.086 C 
ATOM     24  C   UNL     1       7.366   2.075  -4.530  0.00  0.00    +0.017 C 
ATOM     25  C   UNL     1       6.588   1.627  -5.795  0.00  0.00    +0.025 C 
ATOM     26  C   UNL     1       5.631   0.545  -5.250  0.00  0.00    +0.088 C 
BRANCH  26  27
ATOM     27  C   UNL     1       4.294   0.652  -5.936  0.00  0.00    -0.027 A 
ATOM     28  C   UNL     1       3.403   1.641  -5.562  0.00  0.00    +0.009 A 
ATOM     29  C   UNL     1       2.175   1.741  -6.187  0.00  0.00    +0.050 A 
ATOM     30  C   UNL     1       1.833   0.849  -7.192  0.00  0.00    +0.162 A 
ATOM     31  C   UNL     1       2.728  -0.144  -7.570  0.00  0.00    +0.162 A 
ATOM     32  C   UNL     1       3.961  -0.236  -6.941  0.00  0.00    +0.054 A 
ATOM     33  O   UNL     1       2.415  -1.025  -8.559  0.00  0.00    -0.485 OA
ATOM     34  C   UNL     1       1.032  -1.132  -8.912  0.00  0.00    +0.270 C 
ATOM     35  C   UNL     1       0.461   0.286  -9.051  0.00  0.00    +0.270 C 
ATOM     36  O   UNL     1       0.618   0.958  -7.796  0.00  0.00    -0.485 OA
ENDBRANCH  26  27
ENDBRANCH  21  22
ENDBRANCH   4  21
TORSDOF 5
