REMARK  Name = ZINC66146553
REMARK  11 active torsions:
REMARK  status: ('A' for Active; 'I' for Inactive)
REMARK    1  A    between atoms: C_1  and  C_2
REMARK    2  A    between atoms: C_2  and  C_4
REMARK    3  A    between atoms: C_2  and  N_21
REMARK    4  A    between atoms: C_4  and  C_5
REMARK    5  A    between atoms: N_7  and  C_8
REMARK    6  A    between atoms: C_8  and  C_9
REMARK    7  A    between atoms: C_9  and  C_11
REMARK    8  A    between atoms: C_9  and  N_14
REMARK    9  A    between atoms: C_11  and  C_12
REMARK   10  A    between atoms: C_11  and  C_13
REMARK   11  A    between atoms: C_22  and  C_24
REMARK                            x       y       z     vdW  Elec       q    Type
REMARK                         _______ _______ _______ _____ _____    ______ ____
ROOT
ATOM      1  C   UNL     1       0.522  -1.755   1.986  0.00  0.00    +0.215 C 
ATOM      2  O   UNL     1      -0.166  -2.229   1.107  0.00  0.00    -0.276 OA
ATOM      3  N   UNL     1       1.330  -2.553   2.714  0.00  0.00    -0.317 N 
ATOM      4  H   UNL     1       1.880  -2.173   3.417  0.00  0.00    +0.149 HD
ENDROOT
BRANCH   1   5
ATOM      5  C   UNL     1       0.475  -0.275   2.265  0.00  0.00    +0.117 C 
BRANCH   5   7
ATOM      6  C   UNL     1      -0.469   1.909   1.503  0.00  0.00    +0.028 C 
ATOM      7  C   UNL     1      -0.512   0.393   1.306  0.00  0.00    +0.079 C 
BRANCH   7   8
ATOM      8  N   UNL     1      -1.866  -0.096   1.580  0.00  0.00    -0.312 N 
ATOM      9  C   UNL     1      -2.800  -0.073   0.609  0.00  0.00    +0.216 C 
ATOM     10  O   UNL     1      -2.521   0.354  -0.491  0.00  0.00    -0.276 OA
ATOM     11  H   UNL     1      -2.089  -0.437   2.460  0.00  0.00    +0.149 HD
BRANCH   9  12
ATOM     12  C   UNL     1      -4.193  -0.576   0.891  0.00  0.00    +0.075 C 
ATOM     13  C   UNL     1      -4.151  -2.077   1.243  0.00  0.00    +0.013 C 
ATOM     14  C   UNL     1      -5.432  -2.656   0.592  0.00  0.00    +0.001 C 
ATOM     15  C   UNL     1      -5.524  -1.870  -0.739  0.00  0.00    +0.001 C 
ATOM     16  C   UNL     1      -5.066  -0.444  -0.369  0.00  0.00    +0.013 C 
ENDBRANCH   9  12
ENDBRANCH   7   8
ENDBRANCH   5   7
ENDBRANCH   1   5
BRANCH   3  17
ATOM     17  C   UNL     1       1.376  -3.992   2.443  0.00  0.00    +0.089 C 
BRANCH  17  18
ATOM     18  C   UNL     1       2.448  -4.641   3.320  0.00  0.00    -0.049 C 
BRANCH  18  19
ATOM     19  N   UNL     1       2.156  -4.368   4.734  0.00  0.00    +0.383 N 
ATOM     20  C   UNL     1       3.315  -4.786   5.546  0.00  0.00    -0.078 C 
ATOM     21  C   UNL     1       3.302  -3.997   6.831  0.00  0.00    -0.019 C 
ATOM     22  C   UNL     1       2.626  -4.785   7.969  0.00  0.00    -0.002 C 
ATOM     23  C   UNL     1       1.372  -5.536   7.479  0.00  0.00    -0.002 C 
ATOM     24  C   UNL     1       0.542  -4.709   6.529  0.00  0.00    -0.019 C 
ATOM     25  C   UNL     1       0.972  -5.022   5.081  0.00  0.00    -0.078 C 
ATOM     26  H   UNL     1       2.022  -3.375   4.850  0.00  0.00    -0.081 HD
ENDBRANCH  18  19
BRANCH  18  27
ATOM     27  C   UNL     1       2.453  -6.153   3.083  0.00  0.00    -0.029 C 
ATOM     28  C   UNL     1       1.026  -6.631   2.808  0.00  0.00    +0.005 C 
ATOM     29  C   UNL     1       3.340  -6.478   1.880  0.00  0.00    +0.005 C 
ENDBRANCH  18  27
ENDBRANCH  17  18
ENDBRANCH   3  17
TORSDOF 8
