REMARK  Name = ZINC39685850
REMARK  11 active torsions:
REMARK  status: ('A' for Active; 'I' for Inactive)
REMARK    1  A    between atoms: C_1  and  C_2
REMARK    2  A    between atoms: C_2  and  C_3
REMARK    3  A    between atoms: C_2  and  C_4
REMARK    4  A    between atoms: C_4  and  C_6
REMARK    5  A    between atoms: C_4  and  N_13
REMARK    6  A    between atoms: N_8  and  C_9
REMARK    7  A    between atoms: C_9  and  C_10
REMARK    8  A    between atoms: C_9  and  C_11
REMARK    9  A    between atoms: C_9  and  C_12
REMARK   10  A    between atoms: C_14  and  C_16
REMARK   11  A    between atoms: C_27  and  C_29
REMARK                            x       y       z     vdW  Elec       q    Type
REMARK                         _______ _______ _______ _____ _____    ______ ____
ROOT
ATOM      1  C   UNL     1      -2.894  -0.061  -3.415  0.00  0.00    +0.100 C 
ATOM      2  C   UNL     1      -4.372   0.208  -3.055  0.00  0.00    +0.121 C 
ATOM      3  N   UNL     1      -5.132  -0.211  -4.256  0.00  0.00    -0.297 N 
ATOM      4  C   UNL     1      -4.442  -1.439  -4.719  0.00  0.00    +0.115 C 
ATOM      5  C   UNL     1      -2.944  -1.143  -4.507  0.00  0.00    -0.004 C 
ATOM      6  C   UNL     1      -2.322  -0.621  -5.798  0.00  0.00    -0.010 C 
ATOM      7  C   UNL     1      -2.333  -1.733  -6.851  0.00  0.00    -0.082 C 
ATOM      8  N   UNL     1      -1.577  -2.888  -6.352  0.00  0.00    +0.379 N 
ATOM      9  C   UNL     1      -2.235  -3.442  -5.162  0.00  0.00    -0.082 C 
ATOM     10  C   UNL     1      -2.220  -2.402  -4.038  0.00  0.00    -0.010 C 
ATOM     11  C   UNL     1      -6.208   0.388  -4.803  0.00  0.00    +0.260 C 
ATOM     12  O   UNL     1      -6.724  -0.081  -5.795  0.00  0.00    -0.271 OA
ATOM     13  H   UNL     1      -1.534  -3.596  -7.071  0.00  0.00    -0.086 HD
ATOM     14  H   UNL     1      -0.641  -2.598  -6.113  0.00  0.00    -0.086 HD
ENDROOT
BRANCH  11  15
ATOM     15  C   UNL     1      -6.770   1.641  -4.183  0.00  0.00    +0.296 C 
ATOM     16  C   UNL     1      -7.332   1.322  -2.791  0.00  0.00    +0.283 C 
ATOM     17  O   UNL     1      -7.869   2.529  -2.237  0.00  0.00    -0.484 OA
ATOM     18  C   UNL     1      -8.659   3.278  -3.053  0.00  0.00    +0.162 A 
ATOM     19  C   UNL     1      -9.491   4.240  -2.500  0.00  0.00    +0.049 A 
ATOM     20  C   UNL     1     -10.297   5.010  -3.317  0.00  0.00    +0.004 A 
ATOM     21  C   UNL     1     -10.276   4.825  -4.686  0.00  0.00    +0.004 A 
ATOM     22  C   UNL     1      -9.450   3.867  -5.244  0.00  0.00    +0.049 A 
ATOM     23  C   UNL     1      -8.640   3.090  -4.430  0.00  0.00    +0.163 A 
ATOM     24  O   UNL     1      -7.837   2.145  -4.993  0.00  0.00    -0.473 OA
ENDBRANCH  11  15
BRANCH   1  26
ATOM     25  N   UNL     1      -0.819  -0.346  -2.099  0.00  0.00    -0.303 N 
ATOM     26  C   UNL     1      -2.144  -0.567  -2.210  0.00  0.00    +0.219 C 
ATOM     27  O   UNL     1      -2.732  -1.172  -1.339  0.00  0.00    -0.275 OA
ATOM     28  H   UNL     1      -0.354   0.167  -2.778  0.00  0.00    +0.149 HD
BRANCH  25  29
ATOM     29  C   UNL     1      -0.080  -0.882  -0.953  0.00  0.00    +0.161 C 
BRANCH  29  30
ATOM     30  C   UNL     1       1.017   0.077  -0.569  0.00  0.00    +0.234 C 
ATOM     31  O   UNL     1       1.380   0.929  -1.353  0.00  0.00    -0.274 OA
ATOM     32  N   UNL     1       1.595  -0.011   0.645  0.00  0.00    -0.309 N 
ATOM     33  H   UNL     1       1.357  -0.736   1.244  0.00  0.00    +0.149 HD
BRANCH  32  34
ATOM     34  C   UNL     1       2.582   0.989   1.061  0.00  0.00    +0.026 C 
ATOM     35  C   UNL     1       1.935   2.376   1.059  0.00  0.00    +0.031 C 
ATOM     36  C   UNL     1       3.079   0.660   2.470  0.00  0.00    +0.031 C 
ATOM     37  C   UNL     1       3.762   0.975   0.088  0.00  0.00    +0.031 C 
ENDBRANCH  32  34
ENDBRANCH  29  30
BRANCH  29  39
ATOM     38  C   UNL     1      -0.584  -3.258  -1.539  0.00  0.00    +0.009 C 
ATOM     39  C   UNL     1       0.532  -2.233  -1.327  0.00  0.00    +0.012 C 
ATOM     40  C   UNL     1       1.341  -2.087  -2.618  0.00  0.00    +0.009 C 
ENDBRANCH  29  39
ENDBRANCH  25  29
ENDBRANCH   1  26
TORSDOF 6
