REMARK  Name = ZINC14459469
REMARK  7 active torsions:
REMARK  status: ('A' for Active; 'I' for Inactive)
REMARK    1  A    between atoms: C_1  and  N_2
REMARK    2  A    between atoms: N_2  and  C_3
REMARK    3  A    between atoms: C_4  and  C_6
REMARK    4  A    between atoms: C_19  and  C_22
REMARK    5  A    between atoms: C_25  and  O_30
REMARK    6  A    between atoms: C_26  and  O_28
REMARK    7  A    between atoms: O_28  and  C_29
REMARK                            x       y       z     vdW  Elec       q    Type
REMARK                         _______ _______ _______ _____ _____    ______ ____
ROOT
ATOM      1  C   UNL     1      -1.093   2.886  -3.055  0.00  0.00    +0.037 A 
ATOM      2  C   UNL     1      -2.379   3.300  -2.695  0.00  0.00    +0.015 A 
ATOM      3  C   UNL     1      -2.910   2.891  -1.524  0.00  0.00    +0.024 A 
ATOM      4  C   UNL     1      -2.170   2.127  -0.625  0.00  0.00    +0.031 A 
ATOM      5  C   UNL     1      -0.876   1.729  -0.962  0.00  0.00    -0.019 A 
ATOM      6  C   UNL     1      -0.349   2.096  -2.175  0.00  0.00    +0.019 A 
ATOM      7  C   UNL     1      -0.138   0.880  -0.002  0.00  0.00    +0.049 C 
ATOM      8  C   UNL     1       1.346   0.850   0.046  0.00  0.00    -0.023 C 
ATOM      9  C   UNL     1       1.725   0.627   1.299  0.00  0.00    -0.030 C 
ATOM     10  C   UNL     1       0.497   0.523   2.206  0.00  0.00    +0.033 C 
ATOM     11  C   UNL     1      -0.533   1.354   1.429  0.00  0.00    +0.029 C 
ATOM     12  C   UNL     1      -1.993   0.974   1.592  0.00  0.00    +0.105 C 
ATOM     13  N   UNL     1      -2.732   1.793   0.606  0.00  0.00    -0.336 N 
ATOM     14  H   UNL     1      -3.625   2.104   0.821  0.00  0.00    +0.147 HD
ENDROOT
BRANCH  12  15
ATOM     15  C   UNL     1      -2.185  -0.492   1.297  0.00  0.00    -0.023 A 
ATOM     16  C   UNL     1      -2.045  -1.423   2.310  0.00  0.00    +0.009 A 
ATOM     17  C   UNL     1      -2.220  -2.768   2.045  0.00  0.00    +0.049 A 
ATOM     18  C   UNL     1      -2.537  -3.187   0.763  0.00  0.00    +0.158 A 
ATOM     19  C   UNL     1      -2.677  -2.250  -0.256  0.00  0.00    +0.162 A 
ATOM     20  C   UNL     1      -2.506  -0.902   0.017  0.00  0.00    +0.054 A 
BRANCH  19  21
ATOM     21  O   UNL     1      -2.988  -2.655  -1.517  0.00  0.00    -0.491 OA
ATOM     22  C   UNL     1      -3.116  -1.639  -2.512  0.00  0.00    +0.277 C 
ENDBRANCH  19  21
BRANCH  18  23
ATOM     23  O   UNL     1      -2.709  -4.510   0.501  0.00  0.00    -0.503 OA
ATOM     24  H   UNL     1      -3.619  -4.818   0.613  0.00  0.00    +0.292 HD
ENDBRANCH  18  23
ENDBRANCH  12  15
BRANCH   1  28
ATOM     25  C   UNL     1       1.302   4.150  -5.716  0.00  0.00    +0.132 C 
ATOM     26  N   UNL     1       0.763   3.670  -4.441  0.00  0.00    -0.304 N 
ATOM     27  C   UNL     1       1.624   3.611  -3.257  0.00  0.00    +0.132 C 
ATOM     28  C   UNL     1      -0.525   3.282  -4.358  0.00  0.00    +0.246 C 
ATOM     29  O   UNL     1      -1.218   3.258  -5.356  0.00  0.00    -0.270 OA
ENDBRANCH   1  28
TORSDOF 4
