REMARK  Name = ZINC05445484
REMARK  6 active torsions:
REMARK  status: ('A' for Active; 'I' for Inactive)
REMARK    1  A    between atoms: C_1  and  C_2
REMARK    2  A    between atoms: C_2  and  C_3
REMARK    3  A    between atoms: C_2  and  O_4
REMARK    4  A    between atoms: O_4  and  P_5
REMARK    5  A    between atoms: C_8  and  N_51
REMARK    6  A    between atoms: N_14  and  C_15
REMARK                            x       y       z     vdW  Elec       q    Type
REMARK                         _______ _______ _______ _____ _____    ______ ____
ROOT
ATOM      1  P   UNL     1      -2.697   2.156   2.934  0.00  0.00    +0.183 P 
ATOM      2  S   UNL     1      -3.419   3.873   2.860  0.00  0.00    -0.011 S 
ATOM      3  C   UNL     1      -2.000   1.649   1.333  0.00  0.00    +0.064 C 
ATOM      4  C   UNL     1      -2.528   1.437   0.142  0.00  0.00    +0.004 C 
ATOM      5  C   UNL     1      -1.601   0.977  -0.966  0.00  0.00    +0.050 C 
ATOM      6  C   UNL     1      -0.202   1.553  -0.763  0.00  0.00    +0.012 C 
ATOM      7  C   UNL     1       0.404   1.083   0.567  0.00  0.00    +0.058 C 
ATOM      8  C   UNL     1      -0.561   1.492   1.670  0.00  0.00    +0.073 C 
ATOM      9  N   UNL     1      -0.296   1.735   2.896  0.00  0.00    -0.177 NA
ATOM     10  N   UNL     1      -1.277   2.119   3.818  0.00  0.00    -0.170 N 
ENDROOT
BRANCH  10  11
ATOM     11  C   UNL     1      -1.107   2.407   5.171  0.00  0.00    +0.059 A 
ATOM     12  C   UNL     1      -2.199   2.783   5.946  0.00  0.00    +0.025 A 
ATOM     13  C   UNL     1      -2.027   3.062   7.288  0.00  0.00    +0.002 A 
ATOM     14  C   UNL     1      -0.770   2.979   7.858  0.00  0.00    +0.000 A 
ATOM     15  C   UNL     1       0.319   2.611   7.089  0.00  0.00    +0.002 A 
ATOM     16  C   UNL     1       0.155   2.325   5.748  0.00  0.00    +0.025 A 
ENDBRANCH  10  11
BRANCH   4  21
ATOM     17  C   UNL     1      -4.828   0.593  -0.520  0.00  0.00    +0.085 C 
ATOM     18  C   UNL     1      -6.207   1.270  -0.667  0.00  0.00    +0.019 C 
ATOM     19  C   UNL     1      -5.839   2.764  -0.864  0.00  0.00    +0.019 C 
ATOM     20  C   UNL     1      -4.602   2.904   0.058  0.00  0.00    +0.085 C 
ATOM     21  N   UNL     1      -4.039   1.540   0.236  0.00  0.00    -0.396 NA
ATOM     22  H   UNL     1      -4.234   1.300   1.215  0.00  0.00    +0.126 HD
ENDBRANCH   4  21
BRANCH   1  23
ATOM     23  O   UNL     1      -3.769   1.087   3.483  0.00  0.00    -0.330 OA
BRANCH  23  25
ATOM     24  C   UNL     1      -5.188  -0.651   2.586  0.00  0.00    +0.038 C 
ATOM     25  C   UNL     1      -5.026   0.848   2.846  0.00  0.00    +0.119 C 
ATOM     26  C   UNL     1      -6.158   1.334   3.753  0.00  0.00    +0.038 C 
ENDBRANCH  23  25
ENDBRANCH   1  23
TORSDOF 4
