REMARK  Name = ZINC20347697
REMARK  10 active torsions:
REMARK  status: ('A' for Active; 'I' for Inactive)
REMARK    1  A    between atoms: C_1  and  C_2
REMARK    2  A    between atoms: C_7  and  N_8
REMARK    3  A    between atoms: C_9  and  C_11
REMARK    4  A    between atoms: C_11  and  S_12
REMARK    5  A    between atoms: S_12  and  C_13
REMARK    6  A    between atoms: C_14  and  C_34
REMARK    7  A    between atoms: C_15  and  C_25
REMARK    8  A    between atoms: C_28  and  C_31
REMARK    9  A    between atoms: C_31  and  C_32
REMARK   10  A    between atoms: C_31  and  C_33
REMARK                            x       y       z     vdW  Elec       q    Type
REMARK                         _______ _______ _______ _____ _____    ______ ____
ROOT
ATOM      1  C   UNL     1       1.709   2.134   0.028  0.00  0.00    +0.080 C 
ATOM      2  C   UNL     1       2.156   3.419   0.036  0.00  0.00    +0.069 C 
ATOM      3  C   UNL     1       3.625   3.728   0.027  0.00  0.00    +0.097 C 
ATOM      4  C   UNL     1       4.436   2.526   0.442  0.00  0.00    +0.024 C 
ATOM      5  C   UNL     1       3.903   1.286   0.413  0.00  0.00    +0.016 C 
ATOM      6  N   UNL     1       2.607   1.092   0.026  0.00  0.00    -0.311 N 
ATOM      7  C   UNL     1       4.718   0.081   0.816  0.00  0.00    +0.051 C 
ATOM      8  C   UNL     1       5.740   0.484   1.880  0.00  0.00    +0.014 C 
ATOM      9  C   UNL     1       6.630   1.591   1.304  0.00  0.00    +0.080 C 
ATOM     10  C   UNL     1       5.761   2.736   0.861  0.00  0.00    +0.162 C 
ATOM     11  O   UNL     1       6.213   3.864   0.866  0.00  0.00    -0.292 OA
ATOM     12  H   UNL     1       2.284   0.089  -0.290  0.00  0.00    +0.152 HD
ENDROOT
BRANCH   3  13
ATOM     13  C   UNL     1       4.034   4.144  -1.363  0.00  0.00    -0.035 A 
ATOM     14  C   UNL     1       3.869   3.271  -2.422  0.00  0.00    +0.005 A 
ATOM     15  C   UNL     1       4.240   3.655  -3.697  0.00  0.00    +0.004 A 
ATOM     16  C   UNL     1       4.785   4.907  -3.911  0.00  0.00    -0.045 A 
ATOM     17  C   UNL     1       4.955   5.777  -2.851  0.00  0.00    +0.004 A 
ATOM     18  C   UNL     1       4.579   5.396  -1.577  0.00  0.00    +0.005 A 
BRANCH  16  19
ATOM     19  C   UNL     1       5.195   5.323  -5.301  0.00  0.00    +0.013 C 
ATOM     20  C   UNL     1       6.261   4.361  -5.828  0.00  0.00    +0.012 C 
ATOM     21  C   UNL     1       3.975   5.287  -6.224  0.00  0.00    +0.012 C 
ENDBRANCH  16  19
ENDBRANCH   3  13
BRANCH   2  22
ATOM     22  C   UNL     1       1.210   4.494   0.052  0.00  0.00    +0.098 C 
ATOM     23  N   UNL     1       0.460   5.347   0.065  0.00  0.00    -0.191 NA
ENDBRANCH   2  22
BRANCH   1  24
ATOM     24  S   UNL     1      -0.022   1.805   0.029  0.00  0.00    -0.100 S 
BRANCH  24  25
ATOM     25  C   UNL     1       0.003  -0.004   0.017  0.00  0.00    +0.171 C 
BRANCH  25  27
ATOM     26  N   UNL     1      -1.640  -1.854   0.008  0.00  0.00    -0.285 N 
ATOM     27  C   UNL     1      -1.411  -0.526   0.016  0.00  0.00    +0.227 C 
ATOM     28  O   UNL     1      -2.344   0.250   0.022  0.00  0.00    -0.275 OA
ATOM     29  H   UNL     1      -0.799  -2.556  -0.090  0.00  0.00    +0.155 HD
BRANCH  26  36
ATOM     30  C   UNL     1      -2.218  -4.425  -1.065  0.00  0.00    +0.045 C 
ATOM     31  C   UNL     1      -3.272  -3.590  -0.386  0.00  0.00    -0.029 A 
ATOM     32  C   UNL     1      -4.562  -4.069  -0.266  0.00  0.00    +0.005 A 
ATOM     33  C   UNL     1      -5.532  -3.300   0.352  0.00  0.00    +0.000 A 
ATOM     34  C   UNL     1      -5.212  -2.052   0.855  0.00  0.00    +0.002 A 
ATOM     35  C   UNL     1      -3.923  -1.570   0.743  0.00  0.00    +0.023 A 
ATOM     36  C   UNL     1      -2.947  -2.340   0.123  0.00  0.00    +0.036 A 
ENDBRANCH  26  36
ENDBRANCH  25  27
ENDBRANCH  24  25
ENDBRANCH   1  24
TORSDOF 7
