REMARK  Name = ZINC02229605
REMARK  15 active torsions:
REMARK  status: ('A' for Active; 'I' for Inactive)
REMARK    1  A    between atoms: C_1  and  C_2
REMARK    2  A    between atoms: C_2  and  O_3
REMARK    3  A    between atoms: O_3  and  C_4
REMARK    4  A    between atoms: C_4  and  C_6
REMARK    5  A    between atoms: C_6  and  C_7
REMARK    6  A    between atoms: C_6  and  N_21
REMARK    7  A    between atoms: C_6  and  N_56
REMARK    8  A    between atoms: C_11  and  C_12
REMARK    9  A    between atoms: C_11  and  N_56
REMARK   10  A    between atoms: C_12  and  C_13
REMARK   11  A    between atoms: C_16  and  O_19
REMARK   12  A    between atoms: O_19  and  C_20
REMARK   13  A    between atoms: N_21  and  S_22
REMARK   14  A    between atoms: S_22  and  C_25
REMARK   15  A    between atoms: C_28  and  C_31
REMARK                            x       y       z     vdW  Elec       q    Type
REMARK                         _______ _______ _______ _____ _____    ______ ____
ROOT
ATOM      1  C   UNL     1       1.347   7.182   2.729  0.00  0.00    +0.199 C 
ENDROOT
BRANCH   1   2
ATOM      2  C   UNL     1       2.850   7.339   2.971  0.00  0.00    +0.405 C 
ATOM      3  F   UNL     1       3.474   7.739   1.785  0.00  0.00    -0.170 F 
ATOM      4  F   UNL     1       3.065   8.304   3.961  0.00  0.00    -0.170 F 
ATOM      5  F   UNL     1       3.385   6.115   3.390  0.00  0.00    -0.170 F 
ENDBRANCH   1   2
BRANCH   1   6
ATOM      6  N   UNL     1       1.110   6.055   1.808  0.00  0.00    +0.406 N 
ATOM      7  H   UNL     1       0.112   5.813   1.818  0.00  0.00    -0.082 HD
ATOM      8  H   UNL     1       1.662   5.245   2.114  0.00  0.00    -0.082 HD
BRANCH   6   9
ATOM      9  C   UNL     1       1.508   6.423   0.435  0.00  0.00    -0.074 C 
BRANCH   9  10
ATOM     10  C   UNL     1       1.161   5.273  -0.512  0.00  0.00    +0.016 C 
BRANCH  10  11
ATOM     11  C   UNL     1       1.565   5.641  -1.917  0.00  0.00    -0.049 A 
ATOM     12  C   UNL     1       2.832   5.330  -2.374  0.00  0.00    +0.007 A 
ATOM     13  C   UNL     1       3.204   5.666  -3.662  0.00  0.00    +0.046 A 
ATOM     14  C   UNL     1       2.305   6.316  -4.495  0.00  0.00    +0.120 A 
ATOM     15  C   UNL     1       1.034   6.625  -4.034  0.00  0.00    +0.046 A 
ATOM     16  C   UNL     1       0.667   6.287  -2.746  0.00  0.00    +0.007 A 
BRANCH  14  17
ATOM     17  O   UNL     1       2.669   6.647  -5.762  0.00  0.00    -0.495 OA
ATOM     18  C   UNL     1       1.692   7.314  -6.564  0.00  0.00    +0.277 C 
ENDBRANCH  14  17
ENDBRANCH  10  11
ENDBRANCH   9  10
ENDBRANCH   6   9
ENDBRANCH   1   6
BRANCH   1  19
ATOM     19  C   UNL     1       0.654   6.905   4.038  0.00  0.00    +0.320 C 
ATOM     20  O   UNL     1       0.193   5.810   4.257  0.00  0.00    -0.251 OA
BRANCH  19  21
ATOM     21  O   UNL     1       0.548   7.874   4.960  0.00  0.00    -0.465 OA
BRANCH  21  23
ATOM     22  C   UNL     1      -0.167   8.759   7.113  0.00  0.00    +0.048 C 
ATOM     23  C   UNL     1      -0.080   7.520   6.221  0.00  0.00    +0.229 C 
ENDBRANCH  21  23
ENDBRANCH  19  21
ENDBRANCH   1  19
BRANCH   1  24
ATOM     24  N   UNL     1       0.816   8.417   2.147  0.00  0.00    -0.182 NA
ATOM     25  H   UNL     1       1.394   9.187   2.030  0.00  0.00    +0.147 HD
BRANCH  24  26
ATOM     26  S   UNL     1      -0.773   8.498   1.687  0.00  0.00    +0.058 S 
ATOM     27  O   UNL     1      -0.988   9.815   1.197  0.00  0.00    -0.153 OA
ATOM     28  O   UNL     1      -1.028   7.342   0.900  0.00  0.00    -0.153 OA
BRANCH  26  29
ATOM     29  C   UNL     1      -1.747   8.338   3.146  0.00  0.00    +0.105 A 
ATOM     30  C   UNL     1      -2.271   7.108   3.497  0.00  0.00    +0.029 A 
ATOM     31  C   UNL     1      -3.031   6.982   4.644  0.00  0.00    +0.005 A 
ATOM     32  C   UNL     1      -3.276   8.088   5.436  0.00  0.00    -0.050 A 
ATOM     33  C   UNL     1      -2.756   9.319   5.083  0.00  0.00    +0.005 A 
ATOM     34  C   UNL     1      -1.992   9.444   3.938  0.00  0.00    +0.029 A 
ATOM     35  C   UNL     1      -4.109   7.951   6.684  0.00  0.00    +0.044 C 
ENDBRANCH  26  29
ENDBRANCH  24  26
ENDBRANCH   1  24
TORSDOF 12
