REMARK  Name = ZINC07263606
REMARK  11 active torsions:
REMARK  status: ('A' for Active; 'I' for Inactive)
REMARK    1  A    between atoms: C_1  and  C_2
REMARK    2  A    between atoms: C_2  and  N_59
REMARK    3  A    between atoms: C_3  and  C_4
REMARK    4  A    between atoms: C_3  and  N_59
REMARK    5  A    between atoms: C_5  and  C_6
REMARK    6  A    between atoms: C_5  and  N_59
REMARK    7  A    between atoms: C_6  and  N_7
REMARK    8  A    between atoms: C_8  and  C_25
REMARK    9  A    between atoms: C_15  and  C_24
REMARK   10  A    between atoms: C_16  and  C_23
REMARK   11  A    between atoms: C_29  and  O_31
REMARK                            x       y       z     vdW  Elec       q    Type
REMARK                         _______ _______ _______ _____ _____    ______ ____
ROOT
ATOM      1  N   UNL     1       7.448   0.133  -0.223  0.00  0.00    -0.285 N 
ATOM      2  C   UNL     1       7.134  -1.300  -0.188  0.00  0.00    +0.145 C 
ATOM      3  C   UNL     1       5.634  -1.400  -0.283  0.00  0.00    +0.072 A 
ATOM      4  C   UNL     1       4.713  -2.540  -0.300  0.00  0.00    +0.199 A 
ATOM      5  O   UNL     1       5.115  -3.688  -0.229  0.00  0.00    -0.287 OA
ATOM      6  C   UNL     1       3.275  -2.228  -0.407  0.00  0.00    +0.065 A 
ATOM      7  C   UNL     1       2.312  -3.236  -0.432  0.00  0.00    +0.019 A 
ATOM      8  C   UNL     1       0.989  -2.904  -0.532  0.00  0.00    -0.047 A 
ATOM      9  C   UNL     1       0.603  -1.573  -0.609  0.00  0.00    -0.044 A 
ATOM     10  C   UNL     1       1.541  -0.564  -0.586  0.00  0.00    +0.050 A 
ATOM     11  C   UNL     1       2.894  -0.877  -0.484  0.00  0.00    +0.140 A 
ATOM     12  O   UNL     1       3.823   0.096  -0.460  0.00  0.00    -0.450 OA
ATOM     13  C   UNL     1       5.146  -0.138  -0.364  0.00  0.00    +0.199 A 
ATOM     14  C   UNL     1       6.290   0.808  -0.325  0.00  0.00    +0.283 C 
ATOM     15  O   UNL     1       6.193   2.018  -0.378  0.00  0.00    -0.267 OA
ATOM     16  C   UNL     1      -0.859  -1.227  -0.725  0.00  0.00    +0.044 C 
ATOM     17  C   UNL     1      -0.056  -3.990  -0.560  0.00  0.00    +0.044 C 
ENDROOT
BRANCH   2  18
ATOM     18  C   UNL     1       7.776  -2.001  -1.358  0.00  0.00    -0.019 A 
ATOM     19  C   UNL     1       7.791  -1.395  -2.602  0.00  0.00    +0.006 A 
ATOM     20  C   UNL     1       8.379  -2.035  -3.677  0.00  0.00    +0.004 A 
ATOM     21  C   UNL     1       8.953  -3.281  -3.512  0.00  0.00    +0.045 A 
ATOM     22  C   UNL     1       8.939  -3.890  -2.265  0.00  0.00    +0.117 A 
ATOM     23  C   UNL     1       8.353  -3.244  -1.187  0.00  0.00    +0.051 A 
BRANCH  22  24
ATOM     24  O   UNL     1       9.502  -5.116  -2.100  0.00  0.00    -0.507 OA
ATOM     25  H   UNL     1      10.438  -5.089  -1.858  0.00  0.00    +0.292 HD
ENDBRANCH  22  24
ENDBRANCH   2  18
BRANCH   1  26
ATOM     26  C   UNL     1       8.787   0.724  -0.157  0.00  0.00    +0.090 C 
BRANCH  26  27
ATOM     27  C   UNL     1       9.157   0.985   1.305  0.00  0.00    -0.060 C 
BRANCH  27  28
ATOM     28  N   UNL     1      10.518   1.561   1.356  0.00  0.00    +0.380 N 
ATOM     29  H   UNL     1      11.154   0.962   0.818  0.00  0.00    -0.082 HD
BRANCH  28  31
ATOM     30  C   UNL     1       9.559   3.834   1.524  0.00  0.00    -0.017 C 
ATOM     31  C   UNL     1      10.516   2.915   0.762  0.00  0.00    -0.082 C 
ENDBRANCH  28  31
BRANCH  28  32
ATOM     32  C   UNL     1      10.987   1.624   2.756  0.00  0.00    -0.082 C 
ATOM     33  C   UNL     1      12.497   1.870   2.758  0.00  0.00    -0.017 C 
ENDBRANCH  28  32
ENDBRANCH  27  28
ENDBRANCH  26  27
ENDBRANCH   1  26
TORSDOF 7
