REMARK  Name = ZINC33927929
REMARK  6 active torsions:
REMARK  status: ('A' for Active; 'I' for Inactive)
REMARK    1  A    between atoms: C_1  and  C_2
REMARK    2  A    between atoms: C_5  and  O_36
REMARK    3  A    between atoms: C_18  and  C_35
REMARK    4  A    between atoms: C_23  and  N_25
REMARK    5  A    between atoms: C_26  and  C_28
REMARK    6  A    between atoms: C_28  and  N_29
REMARK                            x       y       z     vdW  Elec       q    Type
REMARK                         _______ _______ _______ _____ _____    ______ ____
ROOT
ATOM      1  C   UNL     1      -0.173   1.486  -0.060  0.00  0.00    +0.012 C 
ATOM      2  C   UNL     1      -0.129  -0.037  -0.068  0.00  0.00    -0.026 C 
ATOM      3  C   UNL     1      -1.559  -0.589  -0.104  0.00  0.00    +0.010 C 
ATOM      4  C   UNL     1      -2.321  -0.200   1.160  0.00  0.00    +0.032 C 
ATOM      5  C   UNL     1      -1.597  -0.705   2.407  0.00  0.00    +0.115 C 
ATOM      6  C   UNL     1      -0.169  -0.154   2.443  0.00  0.00    +0.035 C 
ATOM      7  C   UNL     1       0.570  -0.584   1.180  0.00  0.00    -0.002 C 
ATOM      8  C   UNL     1       2.035  -0.170   1.240  0.00  0.00    +0.004 C 
ATOM      9  C   UNL     1       2.775  -0.672  -0.011  0.00  0.00    +0.004 C 
ATOM     10  C   UNL     1       2.087  -0.068  -1.229  0.00  0.00    -0.004 C 
ATOM     11  C   UNL     1       0.638  -0.552  -1.287  0.00  0.00    -0.001 C 
ATOM     12  C   UNL     1       0.014  -0.152  -2.614  0.00  0.00    +0.005 C 
ATOM     13  C   UNL     1       0.667  -0.929  -3.771  0.00  0.00    +0.009 C 
ATOM     14  C   UNL     1       2.075  -1.334  -3.431  0.00  0.00    -0.011 C 
ATOM     15  C   UNL     1       2.780  -0.299  -2.535  0.00  0.00    +0.000 C 
ATOM     16  C   UNL     1       4.216  -0.840  -2.487  0.00  0.00    +0.006 C 
ATOM     17  C   UNL     1       4.449  -1.359  -3.933  0.00  0.00    +0.023 C 
ATOM     18  C   UNL     1       3.058  -1.389  -4.619  0.00  0.00    +0.079 C 
ATOM     19  C   UNL     1       2.093  -2.737  -2.808  0.00  0.00    +0.013 C 
ENDROOT
BRANCH  18  20
ATOM     20  N   UNL     1       2.896  -0.225  -5.485  0.00  0.00    -0.311 N 
ATOM     21  C   UNL     1       3.253  -0.296  -6.782  0.00  0.00    +0.227 C 
ATOM     22  O   UNL     1       3.709  -1.326  -7.231  0.00  0.00    -0.274 OA
ATOM     23  H   UNL     1       2.532   0.599  -5.126  0.00  0.00    +0.149 HD
BRANCH  21  24
ATOM     24  C   UNL     1       3.086   0.906  -7.676  0.00  0.00    +0.180 C 
BRANCH  24  25
ATOM     25  N   UNL     1       3.543   0.575  -9.032  0.00  0.00    -0.290 NA
ATOM     26  C   UNL     1       4.993   0.330  -9.054  0.00  0.00    +0.113 C 
ATOM     27  C   UNL     1       5.416  -0.068 -10.470  0.00  0.00    +0.175 C 
ATOM     28  O   UNL     1       5.027   0.959 -11.386  0.00  0.00    -0.377 OA
ATOM     29  C   UNL     1       3.621   1.223 -11.391  0.00  0.00    +0.175 C 
ATOM     30  C   UNL     1       3.179   1.635  -9.984  0.00  0.00    +0.113 C 
ENDBRANCH  24  25
ENDBRANCH  21  24
ENDBRANCH  18  20
BRANCH   5  31
ATOM     31  O   UNL     1      -1.559  -2.133   2.397  0.00  0.00    -0.392 OA
ATOM     32  H   UNL     1      -2.431  -2.550   2.388  0.00  0.00    +0.210 HD
ENDBRANCH   5  31
TORSDOF 4
