REMARK  Name = ZINC32255410
REMARK  7 active torsions:
REMARK  status: ('A' for Active; 'I' for Inactive)
REMARK    1  A    between atoms: C_1  and  C_2
REMARK    2  A    between atoms: N_11  and  C_15
REMARK    3  A    between atoms: C_15  and  C_16
REMARK    4  A    between atoms: N_18  and  N_19
REMARK    5  A    between atoms: N_19  and  C_20
REMARK    6  A    between atoms: N_19  and  C_27
REMARK    7  A    between atoms: C_20  and  C_21
REMARK                            x       y       z     vdW  Elec       q    Type
REMARK                         _______ _______ _______ _____ _____    ______ ____
ROOT
ATOM      1  C   UNL     1      -3.259  -1.887   2.394  0.00  0.00    +0.247 C 
ATOM      2  O   UNL     1      -2.347  -2.223   1.669  0.00  0.00    -0.273 OA
ATOM      3  N   UNL     1      -4.235  -2.765   2.700  0.00  0.00    -0.232 N 
ATOM      4  H   UNL     1      -5.062  -2.460   3.358  0.00  0.00    +0.173 HD
ENDROOT
BRANCH   1   5
ATOM      5  C   UNL     1      -3.300  -0.489   2.954  0.00  0.00    +0.215 C 
BRANCH   5  15
ATOM      6  C   UNL     1      -1.536   3.561   2.539  0.00  0.00    +0.010 C 
ATOM      7  C   UNL     1      -0.790   3.101   1.286  0.00  0.00    +0.018 C 
ATOM      8  C   UNL     1      -1.527   3.600   0.040  0.00  0.00    +0.006 C 
ATOM      9  C   UNL     1      -0.790   3.122  -1.213  0.00  0.00    +0.000 C 
ATOM     10  C   UNL     1      -0.753   1.593  -1.233  0.00  0.00    +0.003 C 
ATOM     11  C   UNL     1      -0.013   1.086   0.008  0.00  0.00    +0.035 C 
ATOM     12  C   UNL     1      -0.726   1.577   1.263  0.00  0.00    +0.115 C 
ATOM     13  C   UNL     1      -2.117   0.991   1.342  0.00  0.00    +0.247 C 
ATOM     14  O   UNL     1      -3.023   1.142   0.552  0.00  0.00    -0.273 OA
ATOM     15  N   UNL     1      -2.136   0.263   2.478  0.00  0.00    -0.215 N 
ATOM     16  C   UNL     1      -0.960   0.312   3.115  0.00  0.00    +0.310 C 
ATOM     17  O   UNL     1      -0.734  -0.264   4.161  0.00  0.00    -0.252 OA
ATOM     18  N   UNL     1      -0.056   1.072   2.468  0.00  0.00    -0.285 N 
ATOM     19  H   UNL     1       0.989   1.346   2.672  0.00  0.00    +0.151 HD
ENDBRANCH   5  15
ENDBRANCH   1   5
BRANCH   3  20
ATOM     20  N   UNL     1      -4.197  -4.065   2.179  0.00  0.00    -0.247 N 
BRANCH  20  21
ATOM     21  C   UNL     1      -3.300  -5.000   2.701  0.00  0.00    +0.048 A 
ATOM     22  C   UNL     1      -3.265  -6.291   2.190  0.00  0.00    +0.025 A 
ATOM     23  C   UNL     1      -2.373  -7.212   2.705  0.00  0.00    +0.002 A 
ATOM     24  C   UNL     1      -1.525  -6.853   3.737  0.00  0.00    +0.000 A 
ATOM     25  C   UNL     1      -1.562  -5.570   4.252  0.00  0.00    +0.002 A 
ATOM     26  C   UNL     1      -2.447  -4.643   3.737  0.00  0.00    +0.025 A 
ENDBRANCH  20  21
BRANCH  20  27
ATOM     27  C   UNL     1      -5.096  -4.443   1.087  0.00  0.00    +0.162 C 
BRANCH  27  28
ATOM     28  C   UNL     1      -4.383  -4.281  -0.231  0.00  0.00    -0.028 A 
ATOM     29  C   UNL     1      -4.449  -3.078  -0.909  0.00  0.00    +0.005 A 
ATOM     30  C   UNL     1      -3.791  -2.927  -2.115  0.00  0.00    +0.000 A 
ATOM     31  C   UNL     1      -3.074  -3.983  -2.648  0.00  0.00    +0.000 A 
ATOM     32  C   UNL     1      -3.013  -5.187  -1.973  0.00  0.00    +0.000 A 
ATOM     33  C   UNL     1      -3.667  -5.336  -0.764  0.00  0.00    +0.005 A 
ENDBRANCH  27  28
ENDBRANCH  20  27
ENDBRANCH   3  20
TORSDOF 6
