REMARK  Name = ZINC59966314
REMARK  9 active torsions:
REMARK  status: ('A' for Active; 'I' for Inactive)
REMARK    1  A    between atoms: C_1  and  C_2
REMARK    2  A    between atoms: C_5  and  O_9
REMARK    3  A    between atoms: C_6  and  C_8
REMARK    4  A    between atoms: O_9  and  C_10
REMARK    5  A    between atoms: C_10  and  C_11
REMARK    6  A    between atoms: C_14  and  C_16
REMARK    7  A    between atoms: N_18  and  N_19
REMARK    8  A    between atoms: C_20  and  C_22
REMARK    9  A    between atoms: N_31  and  C_33
REMARK                            x       y       z     vdW  Elec       q    Type
REMARK                         _______ _______ _______ _____ _____    ______ ____
ROOT
ATOM      1  C   UNL     1       1.732  -9.453  -0.703  0.00  0.00    +0.295 C 
ATOM      2  O   UNL     1       1.287 -10.576  -0.561  0.00  0.00    -0.265 OA
ATOM      3  N   UNL     1       3.065  -9.254  -0.727  0.00  0.00    -0.228 N 
ATOM      4  H   UNL     1       3.420  -8.358  -0.840  0.00  0.00    +0.173 HD
ENDROOT
BRANCH   1   8
ATOM      5  C   UNL     1       0.079  -6.266  -1.108  0.00  0.00    +0.143 A 
ATOM      6  C   UNL     1      -1.009  -7.061  -1.009  0.00  0.00    +0.049 A 
ATOM      7  C   UNL     1      -0.546  -8.376  -0.843  0.00  0.00    +0.055 A 
ATOM      8  C   UNL     1       0.818  -8.315  -0.849  0.00  0.00    +0.191 A 
ATOM      9  O   UNL     1       1.178  -7.026  -1.016  0.00  0.00    -0.452 OA
BRANCH   5  10
ATOM     10  C   UNL     1       0.058  -4.771  -1.298  0.00  0.00    +0.303 C 
BRANCH  10  11
ATOM     11  O   UNL     1       0.057  -4.129  -0.021  0.00  0.00    -0.484 OA
BRANCH  11  16
ATOM     12  C   UNL     1      -0.018   1.503   0.010  0.00  0.00    +0.044 C 
ATOM     13  C   UNL     1       0.002  -0.004   0.002  0.00  0.00    -0.050 A 
ATOM     14  C   UNL     1       0.006  -0.688  -1.200  0.00  0.00    +0.007 A 
ATOM     15  C   UNL     1       0.024  -2.069  -1.210  0.00  0.00    +0.046 A 
ATOM     16  C   UNL     1       0.039  -2.770  -0.013  0.00  0.00    +0.124 A 
ATOM     17  C   UNL     1       0.036  -2.082   1.191  0.00  0.00    -0.009 A 
ATOM     18  C   UNL     1       0.023  -0.701   1.196  0.00  0.00    +0.010 A 
ATOM     19  C   UNL     1       0.052  -2.841   2.493  0.00  0.00    +0.047 C 
ENDBRANCH  11  16
ENDBRANCH  10  11
ENDBRANCH   5  10
ENDBRANCH   1   8
BRANCH   3  20
ATOM     20  N   UNL     1       3.938 -10.340  -0.588  0.00  0.00    -0.229 N 
ATOM     21  C   UNL     1       5.271 -10.141  -0.611  0.00  0.00    +0.281 C 
ATOM     22  O   UNL     1       5.715  -9.019  -0.753  0.00  0.00    -0.267 OA
ATOM     23  H   UNL     1       3.583 -11.236  -0.474  0.00  0.00    +0.173 HD
BRANCH  21  24
ATOM     24  C   UNL     1       6.191 -11.287  -0.465  0.00  0.00    +0.155 A 
ATOM     25  C   UNL     1       7.648 -11.078  -0.483  0.00  0.00    +0.020 A 
ATOM     26  C   UNL     1       8.228  -9.824  -0.636  0.00  0.00    +0.011 A 
ATOM     27  C   UNL     1       9.602  -9.709  -0.643  0.00  0.00    +0.001 A 
ATOM     28  C   UNL     1      10.409 -10.830  -0.501  0.00  0.00    +0.001 A 
ATOM     29  C   UNL     1       9.855 -12.083  -0.349  0.00  0.00    +0.014 A 
ATOM     30  C   UNL     1       8.470 -12.220  -0.338  0.00  0.00    +0.050 A 
ATOM     31  C   UNL     1       7.797 -13.516  -0.180  0.00  0.00    +0.275 A 
ATOM     32  O   UNL     1       8.441 -14.541  -0.050  0.00  0.00    -0.266 OA
ATOM     33  N   UNL     1       6.448 -13.544  -0.184  0.00  0.00    -0.231 N 
ATOM     34  N   UNL     1       5.720 -12.500  -0.311  0.00  0.00    -0.163 NA
ATOM     35  C   UNL     1       5.782 -14.839  -0.027  0.00  0.00    +0.176 C 
ENDBRANCH  21  24
ENDBRANCH   3  20
TORSDOF 6
