REMARK  Name = ZINC33258125
REMARK  9 active torsions:
REMARK  status: ('A' for Active; 'I' for Inactive)
REMARK    1  A    between atoms: C_1  and  C_2
REMARK    2  A    between atoms: C_5  and  N_8
REMARK    3  A    between atoms: C_9  and  C_34
REMARK    4  A    between atoms: C_10  and  C_13
REMARK    5  A    between atoms: C_15  and  C_24
REMARK    6  A    between atoms: C_18  and  C_23
REMARK    7  A    between atoms: N_26  and  C_27
REMARK    8  A    between atoms: C_27  and  C_28
REMARK    9  A    between atoms: C_28  and  C_29
REMARK                            x       y       z     vdW  Elec       q    Type
REMARK                         _______ _______ _______ _____ _____    ______ ____
ROOT
ATOM      1  C   UNL     1       3.332   3.347   0.050  0.00  0.00    +0.076 A 
ATOM      2  C   UNL     1       3.475   1.951   0.020  0.00  0.00    +0.042 A 
ATOM      3  C   UNL     1       2.346   1.149   0.091  0.00  0.00    +0.048 A 
ATOM      4  C   UNL     1       1.050   1.821   0.194  0.00  0.00    +0.013 A 
ATOM      5  C   UNL     1      -0.145   1.097   0.269  0.00  0.00    +0.014 A 
ATOM      6  C   UNL     1      -1.332   1.762   0.358  0.00  0.00    -0.050 A 
ATOM      7  C   UNL     1      -1.368   3.155   0.386  0.00  0.00    +0.005 A 
ATOM      8  C   UNL     1      -0.225   3.889   0.315  0.00  0.00    +0.028 A 
ATOM      9  C   UNL     1       1.018   3.237   0.216  0.00  0.00    +0.072 A 
ATOM     10  N   UNL     1       2.156   3.931   0.143  0.00  0.00    -0.247 NA
ATOM     11  C   UNL     1      -2.619   0.982   0.432  0.00  0.00    +0.044 C 
ENDROOT
BRANCH   1  14
ATOM     12  N   UNL     1       5.876   5.932  -0.095  0.00  0.00    -0.236 N 
ATOM     13  C   UNL     1       4.583   5.558  -0.008  0.00  0.00    +0.051 A 
ATOM     14  C   UNL     1       4.547   4.192  -0.025  0.00  0.00    +0.041 A 
ATOM     15  C   UNL     1       5.877   3.734  -0.121  0.00  0.00    +0.145 A 
ATOM     16  N   UNL     1       6.663   4.777  -0.168  0.00  0.00    -0.174 NA
ATOM     17  C   UNL     1       3.394   6.479   0.090  0.00  0.00    +0.066 C 
BRANCH  12  22
ATOM     18  C   UNL     1       7.797  11.272  -0.158  0.00  0.00    +0.044 C 
ATOM     19  C   UNL     1       7.287   9.854  -0.141  0.00  0.00    -0.050 A 
ATOM     20  C   UNL     1       6.279   9.494   0.734  0.00  0.00    +0.005 A 
ATOM     21  C   UNL     1       5.809   8.195   0.751  0.00  0.00    +0.028 A 
ATOM     22  C   UNL     1       6.351   7.251  -0.111  0.00  0.00    +0.066 A 
ATOM     23  C   UNL     1       7.367   7.615  -0.984  0.00  0.00    +0.028 A 
ATOM     24  C   UNL     1       7.829   8.916  -1.001  0.00  0.00    +0.005 A 
ENDBRANCH  12  22
ENDBRANCH   1  14
BRANCH   3  25
ATOM     25  C   UNL     1       2.447  -0.327   0.064  0.00  0.00    +0.245 C 
ATOM     26  O   UNL     1       1.439  -1.004   0.023  0.00  0.00    -0.270 OA
ATOM     27  N   UNL     1       3.657  -0.919   0.084  0.00  0.00    -0.311 N 
ATOM     28  H   UNL     1       4.570  -0.306   0.121  0.00  0.00    +0.149 HD
BRANCH  27  29
ATOM     29  C   UNL     1       3.758  -2.381   0.057  0.00  0.00    +0.112 C 
BRANCH  29  30
ATOM     30  C   UNL     1       5.231  -2.791   0.088  0.00  0.00    +0.093 C 
BRANCH  30  31
ATOM     31  C   UNL     1       5.335  -4.295   0.060  0.00  0.00    +0.106 A 
ATOM     32  C   UNL     1       5.418  -5.057  -1.045  0.00  0.00    +0.044 A 
ATOM     33  C   UNL     1       5.497  -6.400  -0.611  0.00  0.00    +0.041 A 
ATOM     34  C   UNL     1       5.458  -6.378   0.733  0.00  0.00    +0.195 A 
ATOM     35  O   UNL     1       5.365  -5.100   1.135  0.00  0.00    -0.468 OA
ENDBRANCH  30  31
ENDBRANCH  29  30
ENDBRANCH  27  29
ENDBRANCH   3  25
TORSDOF 6
