REMARK  Name = ZINC18143176
REMARK  7 active torsions:
REMARK  status: ('A' for Active; 'I' for Inactive)
REMARK    1  A    between atoms: C_4  and  N_7
REMARK    2  A    between atoms: N_7  and  N_8
REMARK    3  A    between atoms: C_9  and  C_10
REMARK    4  A    between atoms: C_9  and  C_24
REMARK    5  A    between atoms: C_15  and  N_20
REMARK    6  A    between atoms: C_24  and  C_26
REMARK    7  A    between atoms: C_24  and  O_35
REMARK                            x       y       z     vdW  Elec       q    Type
REMARK                         _______ _______ _______ _____ _____    ______ ____
ROOT
ATOM      1  N   UNL     1      -5.829   1.716  -0.026  0.00  0.00    -0.182 NA
ATOM      2  C   UNL     1      -4.745   0.997  -0.026  0.00  0.00    +0.123 C 
ENDROOT
BRANCH   2   3
ATOM      3  C   UNL     1      -3.431   1.649  -0.137  0.00  0.00    +0.156 A 
ATOM      4  C   UNL     1      -3.339   3.104  -0.248  0.00  0.00    +0.298 A 
ATOM      5  N   UNL     1      -2.160   3.678  -0.347  0.00  0.00    -0.206 NA
ATOM      6  C   UNL     1      -1.047   2.929  -0.347  0.00  0.00    +0.095 A 
ATOM      7  C   UNL     1       0.216   3.534  -0.453  0.00  0.00    +0.062 A 
ATOM      8  C   UNL     1       1.339   2.763  -0.451  0.00  0.00    +0.128 A 
ATOM      9  C   UNL     1       1.256   1.377  -0.344  0.00  0.00    +0.035 A 
ATOM     10  C   UNL     1       0.049   0.756  -0.240  0.00  0.00    +0.032 A 
ATOM     11  C   UNL     1      -1.133   1.518  -0.244  0.00  0.00    +0.090 A 
ATOM     12  N   UNL     1      -2.325   0.920  -0.138  0.00  0.00    -0.238 NA
ATOM     13  O   UNL     1      -4.465   3.858  -0.248  0.00  0.00    -0.263 OA
BRANCH   8  14
ATOM     14  N   UNL     1       2.667   3.408  -0.563  0.00  0.00    +0.056 N 
ATOM     15  O   UNL     1       3.677   2.727  -0.562  0.00  0.00    -0.126 OA
ATOM     16  O   UNL     1       2.750   4.620  -0.656  0.00  0.00    -0.126 OA
ENDBRANCH   8  14
ENDBRANCH   2   3
BRANCH   1  17
ATOM     17  N   UNL     1      -7.074   1.105   0.174  0.00  0.00    -0.237 N 
ATOM     18  H   UNL     1      -7.145   0.009   0.238  0.00  0.00    +0.174 HD
BRANCH  17  22
ATOM     19  C   UNL     1     -10.504   3.438   0.523  0.00  0.00    +0.000 A 
ATOM     20  C   UNL     1     -10.578   2.069   0.711  0.00  0.00    +0.002 A 
ATOM     21  C   UNL     1      -9.442   1.292   0.596  0.00  0.00    +0.025 A 
ATOM     22  C   UNL     1      -8.223   1.887   0.291  0.00  0.00    +0.048 A 
ATOM     23  C   UNL     1      -8.152   3.263   0.109  0.00  0.00    +0.025 A 
ATOM     24  C   UNL     1      -9.293   4.033   0.220  0.00  0.00    +0.002 A 
ENDBRANCH  17  22
ENDBRANCH   1  17
BRANCH   2  25
ATOM     25  C   UNL     1      -4.835  -0.503   0.087  0.00  0.00    +0.197 C 
BRANCH  25  26
ATOM     26  C   UNL     1      -4.808  -1.113  -1.290  0.00  0.00    -0.009 A 
ATOM     27  C   UNL     1      -3.598  -1.396  -1.895  0.00  0.00    +0.010 A 
ATOM     28  C   UNL     1      -3.568  -1.956  -3.159  0.00  0.00    +0.050 A 
ATOM     29  C   UNL     1      -4.752  -2.235  -3.822  0.00  0.00    +0.166 A 
ATOM     30  C   UNL     1      -5.971  -1.950  -3.212  0.00  0.00    +0.167 A 
ATOM     31  C   UNL     1      -5.994  -1.394  -1.943  0.00  0.00    +0.056 A 
ATOM     32  O   UNL     1      -6.978  -2.313  -4.059  0.00  0.00    -0.453 OA
ATOM     33  C   UNL     1      -6.372  -3.197  -5.020  0.00  0.00    +0.466 C 
ATOM     34  O   UNL     1      -4.996  -2.776  -5.051  0.00  0.00    -0.453 OA
ENDBRANCH  25  26
BRANCH  25  35
ATOM     35  O   UNL     1      -3.726  -0.990   0.846  0.00  0.00    -0.381 OA
ATOM     36  H   UNL     1      -3.622  -2.069   1.036  0.00  0.00    +0.211 HD
ENDBRANCH  25  35
ENDBRANCH   2  25
TORSDOF 7
