REMARK  Name = ZINC14988005
REMARK  11 active torsions:
REMARK  status: ('A' for Active; 'I' for Inactive)
REMARK    1  A    between atoms: C_1  and  C_2
REMARK    2  A    between atoms: C_6  and  C_7
REMARK    3  A    between atoms: C_13  and  C_16
REMARK    4  A    between atoms: C_16  and  O_17
REMARK    5  A    between atoms: O_17  and  C_18
REMARK    6  A    between atoms: C_21  and  C_24
REMARK    7  A    between atoms: C_24  and  N_67
REMARK    8  A    between atoms: C_25  and  N_67
REMARK    9  A    between atoms: C_26  and  C_27
REMARK   10  A    between atoms: C_26  and  N_67
REMARK   11  A    between atoms: C_27  and  C_28
REMARK                            x       y       z     vdW  Elec       q    Type
REMARK                         _______ _______ _______ _____ _____    ______ ____
ROOT
ATOM      1  C   UNL     1       9.952  -1.202   0.678  0.00  0.00    +0.121 A 
ATOM      2  C   UNL     1      10.961  -0.310   0.346  0.00  0.00    +0.046 A 
ATOM      3  C   UNL     1      12.260  -0.759   0.208  0.00  0.00    +0.005 A 
ATOM      4  C   UNL     1      12.553  -2.098   0.392  0.00  0.00    -0.064 A 
ATOM      5  C   UNL     1      11.548  -2.989   0.718  0.00  0.00    +0.005 A 
ATOM      6  C   UNL     1      10.248  -2.545   0.862  0.00  0.00    +0.046 A 
ENDROOT
BRANCH   1   7
ATOM      7  O   UNL     1       8.674  -0.762   0.819  0.00  0.00    -0.492 OA
BRANCH   7   8
ATOM      8  C   UNL     1       8.442   0.634   0.616  0.00  0.00    +0.234 C 
BRANCH   8  15
ATOM      9  C   UNL     1       3.757  -0.289  -0.035  0.00  0.00    +0.253 C 
ATOM     10  O   UNL     1       4.045  -1.468   0.060  0.00  0.00    -0.269 OA
ATOM     11  N   UNL     1       4.732   0.636  -0.141  0.00  0.00    -0.297 N 
ATOM     12  C   UNL     1       4.408   2.069  -0.138  0.00  0.00    +0.108 C 
ATOM     13  C   UNL     1       5.246   2.757   0.950  0.00  0.00    +0.019 C 
ATOM     14  C   UNL     1       6.726   2.448   0.718  0.00  0.00    +0.010 C 
ATOM     15  C   UNL     1       6.956   0.938   0.816  0.00  0.00    +0.044 C 
ATOM     16  C   UNL     1       6.138   0.230  -0.268  0.00  0.00    +0.115 C 
BRANCH   9  22
ATOM     17  C   UNL     1       1.461  -1.584   1.595  0.00  0.00    +0.045 C 
ATOM     18  C   UNL     1       1.283  -0.410   0.668  0.00  0.00    -0.031 A 
ATOM     19  C   UNL     1       0.056   0.176   0.482  0.00  0.00    +0.011 A 
ATOM     20  C   UNL     1      -0.053   1.234  -0.365  0.00  0.00    +0.046 A 
ATOM     21  S   UNL     1       1.569   1.450  -0.939  0.00  0.00    -0.092 S 
ATOM     22  C   UNL     1       2.351   0.125  -0.035  0.00  0.00    +0.077 A 
ENDBRANCH   9  22
ENDBRANCH   8  15
ENDBRANCH   7   8
ENDBRANCH   1   7
BRANCH   4  23
ATOM     23  C   UNL     1      13.971  -2.586   0.235  0.00  0.00    -0.043 C 
BRANCH  23  25
ATOM     24  C   UNL     1      14.133  -1.814  -2.054  0.00  0.00    -0.096 C 
ATOM     25  N   UNL     1      14.181  -2.997  -1.169  0.00  0.00    +0.381 N 
ATOM     26  H   UNL     1      13.435  -3.647  -1.441  0.00  0.00    -0.082 HD
BRANCH  25  27
ATOM     27  C   UNL     1      15.486  -3.677  -1.306  0.00  0.00    -0.074 C 
BRANCH  27  28
ATOM     28  C   UNL     1      15.581  -4.286  -2.706  0.00  0.00    +0.016 C 
BRANCH  28  29
ATOM     29  C   UNL     1      16.898  -5.003  -2.854  0.00  0.00    -0.049 A 
ATOM     30  C   UNL     1      18.004  -4.324  -3.332  0.00  0.00    +0.003 A 
ATOM     31  C   UNL     1      19.214  -4.981  -3.463  0.00  0.00    +0.000 A 
ATOM     32  C   UNL     1      19.315  -6.317  -3.127  0.00  0.00    +0.000 A 
ATOM     33  C   UNL     1      18.207  -6.997  -2.654  0.00  0.00    +0.000 A 
ATOM     34  C   UNL     1      16.999  -6.340  -2.518  0.00  0.00    +0.003 A 
ENDBRANCH  28  29
ENDBRANCH  27  28
ENDBRANCH  25  27
ENDBRANCH  23  25
ENDBRANCH   4  23
TORSDOF 9
