REMARK  Name = ZINC40460980
REMARK  7 active torsions:
REMARK  status: ('A' for Active; 'I' for Inactive)
REMARK    1  A    between atoms: C_1  and  C_2
REMARK    2  A    between atoms: C_2  and  C_4
REMARK    3  A    between atoms: C_2  and  N_11
REMARK    4  A    between atoms: N_9  and  C_10
REMARK    5  A    between atoms: N_11  and  C_12
REMARK    6  A    between atoms: C_12  and  C_13
REMARK    7  A    between atoms: C_13  and  N_19
REMARK                            x       y       z     vdW  Elec       q    Type
REMARK                         _______ _______ _______ _____ _____    ______ ____
ROOT
ATOM      1  N   UNL     1      -0.180   1.387   2.578  0.00  0.00    +0.388 N 
ATOM      2  H   UNL     1       0.742   1.794   2.625  0.00  0.00    -0.085 HD
ATOM      3  H   UNL     1      -0.688   1.606   3.422  0.00  0.00    -0.085 HD
ENDROOT
BRANCH   1   5
ATOM      4  C   UNL     1      -2.337   1.413   1.419  0.00  0.00    -0.004 C 
ATOM      5  C   UNL     1      -0.899   1.934   1.419  0.00  0.00    +0.013 C 
BRANCH   5   6
ATOM      6  C   UNL     1      -0.909   3.439   1.500  0.00  0.00    +0.206 C 
ATOM      7  O   UNL     1      -0.371   4.000   2.430  0.00  0.00    -0.277 OA
ATOM      8  N   UNL     1      -1.516   4.161   0.537  0.00  0.00    -0.242 N 
ATOM      9  C   UNL     1      -1.526   5.507   0.609  0.00  0.00    +0.306 C 
ATOM     10  O   UNL     1      -0.987   6.069   1.542  0.00  0.00    -0.252 OA
ATOM     11  N   UNL     1      -2.133   6.229  -0.353  0.00  0.00    -0.302 N 
ATOM     12  C   UNL     1      -2.143   7.692  -0.275  0.00  0.00    +0.129 C 
ATOM     13  H   UNL     1      -1.947   3.712  -0.207  0.00  0.00    +0.159 HD
ATOM     14  H   UNL     1      -2.563   5.780  -1.098  0.00  0.00    +0.150 HD
ENDBRANCH   5   6
ENDBRANCH   1   5
BRANCH   1  15
ATOM     15  C   UNL     1      -0.066  -0.071   2.439  0.00  0.00    -0.059 C 
BRANCH  15  16
ATOM     16  C   UNL     1       0.806  -0.624   3.569  0.00  0.00    +0.007 C 
ATOM     17  C   UNL     1       0.104  -0.401   4.910  0.00  0.00    +0.020 C 
ATOM     18  C   UNL     1      -1.245  -1.124   4.906  0.00  0.00    +0.002 C 
ATOM     19  C   UNL     1      -1.020  -2.622   4.690  0.00  0.00    +0.000 C 
ATOM     20  C   UNL     1      -0.318  -2.844   3.349  0.00  0.00    +0.002 C 
ATOM     21  C   UNL     1       1.030  -2.122   3.353  0.00  0.00    +0.020 C 
BRANCH  16  22
ATOM     22  N   UNL     1       2.100   0.070   3.573  0.00  0.00    -0.294 NA
ATOM     23  C   UNL     1       2.742  -0.004   2.252  0.00  0.00    +0.113 C 
ATOM     24  C   UNL     1       4.056   0.781   2.284  0.00  0.00    +0.175 C 
ATOM     25  O   UNL     1       4.891   0.259   3.321  0.00  0.00    -0.377 OA
ATOM     26  C   UNL     1       4.298   0.315   4.622  0.00  0.00    +0.175 C 
ATOM     27  C   UNL     1       2.986  -0.474   4.613  0.00  0.00    +0.113 C 
ENDBRANCH  16  22
ENDBRANCH  15  16
ENDBRANCH   1  15
TORSDOF 5
