REMARK  Name = ZINC11871564
REMARK  6 active torsions:
REMARK  status: ('A' for Active; 'I' for Inactive)
REMARK    1  A    between atoms: C_1  and  N_67
REMARK    2  A    between atoms: C_2  and  C_3
REMARK    3  A    between atoms: C_2  and  N_67
REMARK    4  A    between atoms: C_13  and  N_67
REMARK    5  A    between atoms: N_19  and  C_22
REMARK    6  A    between atoms: C_22  and  C_23
REMARK                            x       y       z     vdW  Elec       q    Type
REMARK                         _______ _______ _______ _____ _____    ______ ____
ROOT
ATOM      1  C   UNL     1      -1.330  -2.803   2.888  0.00  0.00    -0.067 C 
ATOM      2  C   UNL     1       0.142  -2.433   2.842  0.00  0.00    -0.006 C 
ATOM      3  C   UNL     1       0.317  -0.944   2.534  0.00  0.00    +0.094 C 
ATOM      4  C   UNL     1       0.276  -0.762   1.031  0.00  0.00    +0.216 C 
ATOM      5  O   UNL     1       1.291  -0.483   0.428  0.00  0.00    -0.276 OA
ATOM      6  N   UNL     1      -0.873  -0.902   0.369  0.00  0.00    -0.297 N 
ATOM      7  C   UNL     1      -2.112  -1.238   1.089  0.00  0.00    +0.106 C 
ATOM      8  C   UNL     1      -2.031  -2.696   1.546  0.00  0.00    +0.004 C 
ENDROOT
BRANCH   1  10
ATOM      9  C   UNL     1      -0.986  -5.140   2.357  0.00  0.00    -0.096 C 
ATOM     10  N   UNL     1      -1.434  -4.188   3.394  0.00  0.00    +0.380 N 
ATOM     11  H   UNL     1      -0.832  -4.287   4.221  0.00  0.00    -0.082 HD
BRANCH  10  12
ATOM     12  C   UNL     1      -2.830  -4.481   3.780  0.00  0.00    -0.072 C 
BRANCH  12  13
ATOM     13  C   UNL     1      -3.004  -4.157   5.265  0.00  0.00    -0.043 C 
ATOM     14  C   UNL     1      -2.721  -2.671   5.499  0.00  0.00    +0.008 C 
ATOM     15  C   UNL     1      -2.894  -2.347   6.984  0.00  0.00    -0.010 C 
ATOM     16  C   UNL     1      -4.328  -2.667   7.412  0.00  0.00    +0.007 C 
ATOM     17  C   UNL     1      -4.610  -4.152   7.178  0.00  0.00    -0.010 C 
ATOM     18  C   UNL     1      -4.437  -4.477   5.693  0.00  0.00    +0.008 C 
ATOM     19  C   UNL     1      -3.633  -4.993   8.001  0.00  0.00    +0.007 C 
ATOM     20  C   UNL     1      -2.199  -4.674   7.573  0.00  0.00    -0.010 C 
ATOM     21  C   UNL     1      -1.916  -3.188   7.807  0.00  0.00    +0.007 C 
ATOM     22  C   UNL     1      -2.026  -4.998   6.088  0.00  0.00    +0.008 C 
ENDBRANCH  12  13
ENDBRANCH  10  12
ENDBRANCH   1  10
BRANCH   6  23
ATOM     23  C   UNL     1      -0.901  -0.725  -1.085  0.00  0.00    +0.144 C 
BRANCH  23  24
ATOM     24  C   UNL     1      -1.001   0.743  -1.411  0.00  0.00    -0.008 A 
ATOM     25  C   UNL     1       0.142   1.465  -1.701  0.00  0.00    +0.056 A 
ATOM     26  C   UNL     1       0.052   2.814  -2.000  0.00  0.00    +0.167 A 
ATOM     27  C   UNL     1      -1.191   3.442  -2.009  0.00  0.00    +0.168 A 
ATOM     28  C   UNL     1      -2.333   2.713  -1.718  0.00  0.00    +0.070 A 
ATOM     29  C   UNL     1      -2.237   1.365  -1.425  0.00  0.00    +0.049 A 
ATOM     30 CL   UNL     1      -3.670   0.452  -1.067  0.00  0.00    -0.083 Cl
ATOM     31  O   UNL     1      -1.014   4.757  -2.329  0.00  0.00    -0.453 OA
ATOM     32  C   UNL     1       0.385   5.020  -2.116  0.00  0.00    +0.466 C 
ATOM     33  O   UNL     1       1.008   3.737  -2.315  0.00  0.00    -0.453 OA
ENDBRANCH  23  24
ENDBRANCH   6  23
TORSDOF 5
