REMARK  Name = ZINC42008345
REMARK  4 active torsions:
REMARK  status: ('A' for Active; 'I' for Inactive)
REMARK    1  A    between atoms: C_5  and  N_17
REMARK    2  A    between atoms: C_6  and  S_7
REMARK    3  A    between atoms: S_7  and  C_8
REMARK    4  A    between atoms: C_8  and  C_14
REMARK                            x       y       z     vdW  Elec       q    Type
REMARK                         _______ _______ _______ _____ _____    ______ ____
ROOT
ATOM      1  S   UNL     1      -1.555  -0.980  -0.023  0.00  0.00    -0.105 S 
ENDROOT
BRANCH   1   7
ATOM      2  C   UNL     1      -0.017   1.280  -0.319  0.00  0.00    +0.036 A 
ATOM      3  C   UNL     1       1.194   1.926  -0.474  0.00  0.00    +0.112 A 
ATOM      4  N   UNL     1       2.323   1.248  -0.529  0.00  0.00    -0.261 NA
ATOM      5  C   UNL     1       2.353  -0.070  -0.441  0.00  0.00    +0.134 A 
ATOM      6  C   UNL     1       1.183  -0.795  -0.285  0.00  0.00    +0.057 A 
ATOM      7  C   UNL     1      -0.036  -0.109  -0.222  0.00  0.00    +0.032 A 
BRANCH   6   8
ATOM      8  N   UNL     1       1.220  -2.192  -0.193  0.00  0.00    -0.356 N 
ATOM      9  H   UNL     1       2.068  -2.659  -0.238  0.00  0.00    +0.142 HD
ATOM     10  H   UNL     1       0.396  -2.692  -0.084  0.00  0.00    +0.142 HD
ENDBRANCH   6   8
ENDBRANCH   1   7
BRANCH   1  11
ATOM     11  C   UNL     1      -2.790   0.332   0.185  0.00  0.00    +0.123 C 
ATOM     12  C   UNL     1      -2.417   1.185   1.394  0.00  0.00    +0.040 C 
ATOM     13  C   UNL     1      -3.270   2.457   1.418  0.00  0.00    +0.071 C 
ATOM     14  S   UNL     1      -5.016   1.984   1.596  0.00  0.00    -0.161 S 
ATOM     15  C   UNL     1      -5.253   0.775   0.259  0.00  0.00    +0.071 C 
ATOM     16  C   UNL     1      -4.167  -0.299   0.371  0.00  0.00    +0.040 C 
BRANCH  11  17
ATOM     17  C   UNL     1      -2.805   1.199  -1.048  0.00  0.00    +0.372 C 
ATOM     18  O   UNL     1      -2.081   0.930  -1.991  0.00  0.00    -0.245 OA
ATOM     19  O   UNL     1      -3.540   2.170  -1.101  0.00  0.00    -0.245 OA
ENDBRANCH  11  17
ENDBRANCH   1  11
TORSDOF 4
