REMARK  Name = ZINC09130195
REMARK  5 active torsions:
REMARK  status: ('A' for Active; 'I' for Inactive)
REMARK    1  A    between atoms: C_1  and  N_56
REMARK    2  A    between atoms: C_3  and  C_28
REMARK    3  A    between atoms: C_5  and  C_17
REMARK    4  A    between atoms: C_17  and  C_19
REMARK    5  A    between atoms: C_32  and  N_34
REMARK                            x       y       z     vdW  Elec       q    Type
REMARK                         _______ _______ _______ _____ _____    ______ ____
ROOT
ATOM      1  C   UNL     1       1.518   0.905   0.948  0.00  0.00    -0.094 C 
ATOM      2  C   UNL     1       3.766   1.640   0.364  0.00  0.00    -0.068 C 
ATOM      3  C   UNL     1       4.515   2.996   0.415  0.00  0.00    +0.013 C 
ATOM      4  C   UNL     1       3.687   3.811   1.438  0.00  0.00    +0.068 C 
ATOM      5  C   UNL     1       2.308   3.140   1.450  0.00  0.00    +0.050 C 
ATOM      6  C   UNL     1       1.223   4.128   1.114  0.00  0.00    -0.027 A 
ATOM      7  C   UNL     1       0.971   4.917   0.014  0.00  0.00    +0.004 A 
ATOM      8  C   UNL     1      -0.137   5.745  -0.004  0.00  0.00    +0.000 A 
ATOM      9  C   UNL     1      -0.989   5.778   1.085  0.00  0.00    +0.002 A 
ATOM     10  C   UNL     1      -0.740   4.990   2.189  0.00  0.00    +0.023 A 
ATOM     11  C   UNL     1       0.374   4.153   2.216  0.00  0.00    +0.036 A 
ATOM     12  N   UNL     1       0.833   3.276   3.200  0.00  0.00    -0.286 N 
ATOM     13  C   UNL     1       1.963   2.644   2.830  0.00  0.00    +0.212 C 
ATOM     14  O   UNL     1       2.583   1.831   3.483  0.00  0.00    -0.277 OA
ATOM     15  H   UNL     1       0.390   3.138   4.052  0.00  0.00    +0.155 HD
ATOM     16  N   UNL     1       2.361   2.049   0.483  0.00  0.00    +0.391 N 
ATOM     17  H   UNL     1       2.016   2.373  -0.428  0.00  0.00    -0.080 HD
ENDROOT
BRANCH   3  18
ATOM     18  C   UNL     1       5.928   2.807   0.902  0.00  0.00    -0.043 A 
ATOM     19  C   UNL     1       6.316   1.595   1.445  0.00  0.00    +0.004 A 
ATOM     20  C   UNL     1       7.614   1.420   1.887  0.00  0.00    +0.002 A 
ATOM     21  C   UNL     1       8.521   2.460   1.797  0.00  0.00    +0.033 A 
ATOM     22  C   UNL     1       8.132   3.672   1.260  0.00  0.00    +0.126 A 
ATOM     23  C   UNL     1       6.835   3.845   0.812  0.00  0.00    +0.036 A 
BRANCH  22  24
ATOM     24  N   UNL     1       9.103   4.785   1.163  0.00  0.00    +0.056 N 
ATOM     25  O   UNL     1       8.760   5.853   0.689  0.00  0.00    -0.126 OA
ATOM     26  O   UNL     1      10.245   4.632   1.557  0.00  0.00    -0.126 OA
ENDBRANCH  22  24
ENDBRANCH   3  18
BRANCH   4  27
ATOM     27  C   UNL     1       4.319   3.734   2.804  0.00  0.00    +0.166 C 
ATOM     28  O   UNL     1       4.900   2.727   3.147  0.00  0.00    -0.292 OA
BRANCH  27  29
ATOM     29  C   UNL     1       4.232   4.880   3.718  0.00  0.00    +0.021 A 
ATOM     30  C   UNL     1       3.567   6.046   3.321  0.00  0.00    +0.015 A 
ATOM     31  C   UNL     1       3.482   7.117   4.183  0.00  0.00    +0.050 A 
ATOM     32  C   UNL     1       4.065   7.049   5.442  0.00  0.00    +0.166 A 
ATOM     33  C   UNL     1       4.735   5.891   5.843  0.00  0.00    +0.167 A 
ATOM     34  C   UNL     1       4.819   4.812   4.988  0.00  0.00    +0.061 A 
ATOM     35  O   UNL     1       5.211   6.080   7.109  0.00  0.00    -0.453 OA
ATOM     36  C   UNL     1       5.182   7.504   7.321  0.00  0.00    +0.466 C 
ATOM     37  O   UNL     1       4.123   7.958   6.457  0.00  0.00    -0.453 OA
ENDBRANCH  27  29
ENDBRANCH   4  27
TORSDOF 4
