REMARK  Name = ZINC13499233
REMARK  14 active torsions:
REMARK  status: ('A' for Active; 'I' for Inactive)
REMARK    1  A    between atoms: C_1  and  C_2
REMARK    2  A    between atoms: C_2  and  C_3
REMARK    3  A    between atoms: C_3  and  C_4
REMARK    4  A    between atoms: C_4  and  C_6
REMARK    5  A    between atoms: C_4  and  N_71
REMARK    6  A    between atoms: N_10  and  C_11
REMARK    7  A    between atoms: C_11  and  C_12
REMARK    8  A    between atoms: C_11  and  C_13
REMARK    9  A    between atoms: C_11  and  C_14
REMARK   10  A    between atoms: C_15  and  C_16
REMARK   11  A    between atoms: C_15  and  N_71
REMARK   12  A    between atoms: C_20  and  C_28
REMARK   13  A    between atoms: C_28  and  C_29
REMARK   14  A    between atoms: C_30  and  N_71
REMARK                            x       y       z     vdW  Elec       q    Type
REMARK                         _______ _______ _______ _____ _____    ______ ____
ROOT
ATOM      1  N   UNL     1      -2.115   0.746   1.444  0.00  0.00    +0.391 N 
ATOM      2  H   UNL     1      -2.403  -0.221   1.636  0.00  0.00    -0.080 HD
ENDROOT
BRANCH   1   3
ATOM      3  C   UNL     1      -2.383   1.573   2.639  0.00  0.00    -0.067 C 
ATOM      4  C   UNL     1      -1.625   0.989   3.849  0.00  0.00    -0.015 C 
ATOM      5  C   UNL     1      -2.605   1.176   5.036  0.00  0.00    -0.002 C 
ATOM      6  C   UNL     1      -3.983   0.886   4.391  0.00  0.00    -0.002 C 
ATOM      7  C   UNL     1      -3.881   1.508   2.983  0.00  0.00    -0.015 C 
ENDBRANCH   1   3
BRANCH   1   8
ATOM      8  C   UNL     1      -0.670   0.762   1.132  0.00  0.00    +0.003 C 
BRANCH   8   9
ATOM      9  C   UNL     1      -0.070   2.098   1.489  0.00  0.00    +0.139 A 
ATOM     10  N   UNL     1      -0.081   2.671   2.667  0.00  0.00    -0.115 NA
ATOM     11  N   UNL     1       0.532   3.800   2.567  0.00  0.00    -0.023 NA
ATOM     12  N   UNL     1       0.933   3.962   1.354  0.00  0.00    -0.043 NA
ATOM     13  N   UNL     1       0.586   2.932   0.660  0.00  0.00    -0.226 N 
BRANCH  13  14
ATOM     14  C   UNL     1       0.852   2.712  -0.764  0.00  0.00    +0.059 C 
ATOM     15  C   UNL     1      -0.474   2.605  -1.520  0.00  0.00    +0.036 C 
ATOM     16  C   UNL     1       1.662   3.885  -1.318  0.00  0.00    +0.036 C 
ATOM     17  C   UNL     1       1.645   1.415  -0.940  0.00  0.00    +0.036 C 
ENDBRANCH  13  14
ENDBRANCH   8   9
BRANCH   8  18
ATOM     18  C   UNL     1       0.017  -0.338   1.943  0.00  0.00    -0.008 C 
BRANCH  18  20
ATOM     19  C   UNL     1       0.086  -2.796   2.388  0.00  0.00    +0.004 C 
ATOM     20  C   UNL     1      -0.677  -1.676   1.678  0.00  0.00    -0.005 C 
ENDBRANCH  18  20
ENDBRANCH   8  18
ENDBRANCH   1   8
BRANCH   1  21
ATOM     21  C   UNL     1      -2.886   1.258   0.292  0.00  0.00    -0.036 C 
BRANCH  21  22
ATOM     22  C   UNL     1      -4.266   0.653   0.331  0.00  0.00    +0.001 A 
ATOM     23  C   UNL     1      -5.349   1.451   0.504  0.00  0.00    +0.017 A 
ATOM     24  C   UNL     1      -6.675   0.833   0.537  0.00  0.00    -0.001 A 
ATOM     25  C   UNL     1      -7.829   1.604   0.712  0.00  0.00    +0.013 A 
ATOM     26  C   UNL     1      -9.052   0.997   0.738  0.00  0.00    -0.047 A 
ATOM     27  C   UNL     1      -9.161  -0.380   0.593  0.00  0.00    +0.005 A 
ATOM     28  C   UNL     1      -8.038  -1.159   0.421  0.00  0.00    +0.026 A 
ATOM     29  C   UNL     1      -6.781  -0.563   0.390  0.00  0.00    +0.049 A 
ATOM     30  N   UNL     1      -5.641  -1.319   0.218  0.00  0.00    -0.322 N 
ATOM     31  H   UNL     1      -5.716  -2.280   0.116  0.00  0.00    +0.169 HD
ATOM     32  C   UNL     1      -4.428  -0.741   0.183  0.00  0.00    +0.251 A 
ATOM     33  O   UNL     1      -3.442  -1.440   0.024  0.00  0.00    -0.268 OA
BRANCH  26  34
ATOM     34  C   UNL     1     -10.295   1.828   0.926  0.00  0.00    +0.032 C 
ATOM     35  C   UNL     1     -10.826   2.269  -0.439  0.00  0.00    +0.009 C 
ENDBRANCH  26  34
ENDBRANCH  21  22
ENDBRANCH   1  21
TORSDOF 9
