REMARK  Name = ZINC24211896
REMARK  7 active torsions:
REMARK  status: ('A' for Active; 'I' for Inactive)
REMARK    1  A    between atoms: C_1  and  C_2
REMARK    2  A    between atoms: C_3  and  N_9
REMARK    3  A    between atoms: C_10  and  C_12
REMARK    4  A    between atoms: C_12  and  N_13
REMARK    5  A    between atoms: C_14  and  C_16
REMARK    6  A    between atoms: C_16  and  N_17
REMARK    7  A    between atoms: C_25  and  C_27
REMARK                            x       y       z     vdW  Elec       q    Type
REMARK                         _______ _______ _______ _____ _____    ______ ____
ROOT
ATOM      1  N   UNL     1       3.495  -2.406   0.295  0.00  0.00    -0.308 N 
ATOM      2  C   UNL     1       4.535  -3.257   0.393  0.00  0.00    +0.197 C 
ATOM      3  O   UNL     1       5.669  -2.828   0.430  0.00  0.00    -0.278 OA
ATOM      4  H   UNL     1       2.467  -2.796   0.262  0.00  0.00    +0.149 HD
ENDROOT
BRANCH   1   5
ATOM      5  C   UNL     1       3.734  -0.962   0.234  0.00  0.00    +0.200 C 
BRANCH   5   7
ATOM      6  N   UNL     1       2.389   1.107   0.059  0.00  0.00    -0.284 N 
ATOM      7  C   UNL     1       2.416  -0.239   0.129  0.00  0.00    +0.234 C 
ATOM      8  O   UNL     1       1.379  -0.868   0.107  0.00  0.00    -0.274 OA
ATOM      9  H   UNL     1       3.330   1.674   0.005  0.00  0.00    +0.155 HD
BRANCH   6  12
ATOM     10  C   UNL     1       2.244   3.633   1.362  0.00  0.00    +0.047 C 
ATOM     11  C   UNL     1       1.049   3.018   0.680  0.00  0.00    -0.011 A 
ATOM     12  C   UNL     1       1.164   1.783   0.056  0.00  0.00    +0.038 A 
ATOM     13  C   UNL     1       0.060   1.220  -0.571  0.00  0.00    +0.023 A 
ATOM     14  C   UNL     1      -1.147   1.892  -0.578  0.00  0.00    +0.003 A 
ATOM     15  C   UNL     1      -1.260   3.119   0.048  0.00  0.00    +0.020 A 
ATOM     16  C   UNL     1      -0.162   3.684   0.674  0.00  0.00    +0.046 A 
ATOM     17 CL   UNL     1      -0.307   5.229   1.453  0.00  0.00    -0.083 Cl
ENDBRANCH   6  12
ENDBRANCH   5   7
ENDBRANCH   1   5
BRANCH   2  18
ATOM     18  C   UNL     1       4.290  -4.743   0.455  0.00  0.00    +0.020 C 
BRANCH  18  19
ATOM     19  N   UNL     1       5.564  -5.441   0.670  0.00  0.00    +0.392 N 
ATOM     20  C   UNL     1       6.503  -5.173  -0.429  0.00  0.00    -0.055 C 
ATOM     21  C   UNL     1       7.652  -6.189  -0.390  0.00  0.00    +0.103 C 
ATOM     22  N   UNL     1       8.188  -6.221   0.977  0.00  0.00    -0.354 N 
ATOM     23  C   UNL     1       9.378  -6.722   1.396  0.00  0.00    +0.086 A 
ATOM     24  C   UNL     1       9.466  -6.537   2.731  0.00  0.00    +0.019 A 
ATOM     25  C   UNL     1       8.280  -5.896   3.149  0.00  0.00    +0.021 A 
ATOM     26  C   UNL     1       7.518  -5.717   2.060  0.00  0.00    +0.005 A 
ATOM     27  C   UNL     1       6.152  -5.080   1.972  0.00  0.00    -0.023 C 
ATOM     28  C   UNL     1       5.264  -5.601   3.103  0.00  0.00    -0.007 C 
ATOM     29  H   UNL     1       5.360  -6.522   0.679  0.00  0.00    -0.080 HD
ENDBRANCH  18  19
ENDBRANCH   2  18
TORSDOF 5
