REMARK  Name = ZINC44680725
REMARK  4 active torsions:
REMARK  status: ('A' for Active; 'I' for Inactive)
REMARK    1  A    between atoms: C_3  and  S_8
REMARK    2  A    between atoms: S_8  and  N_11
REMARK    3  A    between atoms: N_11  and  C_12
REMARK    4  A    between atoms: N_16  and  C_18
REMARK                            x       y       z     vdW  Elec       q    Type
REMARK                         _______ _______ _______ _____ _____    ______ ____
ROOT
ATOM      1  S   UNL     1       3.881   2.027  -1.199  0.00  0.00    +0.031 S 
ATOM      2  O   UNL     1       3.958   3.431  -1.408  0.00  0.00    -0.158 OA
ATOM      3  O   UNL     1       4.569   1.417  -0.115  0.00  0.00    -0.158 OA
ENDROOT
BRANCH   1   6
ATOM      4  C   UNL     1      -0.019   1.526   0.010  0.00  0.00    -0.017 C 
ATOM      5  C   UNL     1       1.420   2.051  -0.001  0.00  0.00    +0.024 C 
ATOM      6  C   UNL     1       2.149   1.487  -1.223  0.00  0.00    +0.131 C 
ATOM      7  C   UNL     1       2.090  -0.042  -1.186  0.00  0.00    -0.055 C 
ATOM      8  N   UNL     1       0.689  -0.481  -1.204  0.00  0.00    +0.380 N 
ATOM      9  C   UNL     1       0.002  -0.004   0.002  0.00  0.00    -0.082 C 
ATOM     10  H   UNL     1       0.231  -0.107  -2.021  0.00  0.00    -0.086 HD
ATOM     11  H   UNL     1       0.654  -1.489  -1.234  0.00  0.00    -0.086 HD
ENDBRANCH   1   6
BRANCH   1  12
ATOM     12  N   UNL     1       4.554   1.360  -2.556  0.00  0.00    -0.193 NA
ATOM     13  H   UNL     1       5.252   0.691  -2.473  0.00  0.00    +0.148 HD
BRANCH  12  14
ATOM     14  C   UNL     1       4.096   1.780  -3.883  0.00  0.00    +0.058 C 
ATOM     15  C   UNL     1       5.051   2.846  -4.468  0.00  0.00    -0.000 C 
ATOM     16  C   UNL     1       5.987   2.011  -5.377  0.00  0.00    -0.077 C 
ATOM     17  N   UNL     1       5.076   0.994  -5.961  0.00  0.00    +0.383 N 
ATOM     18  C   UNL     1       4.158   0.598  -4.868  0.00  0.00    -0.058 C 
ATOM     19  H   UNL     1       4.553   1.394  -6.726  0.00  0.00    -0.081 HD
BRANCH  17  20
ATOM     20  C   UNL     1       5.844  -0.169  -6.424  0.00  0.00    -0.069 C 
ATOM     21  C   UNL     1       5.896  -0.427  -7.931  0.00  0.00    -0.017 C 
ATOM     22  C   UNL     1       5.062  -1.338  -7.028  0.00  0.00    -0.017 C 
ENDBRANCH  17  20
ENDBRANCH  12  14
ENDBRANCH   1  12
TORSDOF 4
