REMARK  Name = ZINC19642828
REMARK  8 active torsions:
REMARK  status: ('A' for Active; 'I' for Inactive)
REMARK    1  A    between atoms: C_1  and  C_2
REMARK    2  A    between atoms: C_6  and  C_10
REMARK    3  A    between atoms: C_7  and  O_8
REMARK    4  A    between atoms: O_8  and  C_9
REMARK    5  A    between atoms: N_12  and  C_13
REMARK    6  A    between atoms: C_13  and  N_15
REMARK    7  A    between atoms: N_15  and  C_16
REMARK    8  A    between atoms: C_25  and  O_26
REMARK                            x       y       z     vdW  Elec       q    Type
REMARK                         _______ _______ _______ _____ _____    ______ ____
ROOT
ATOM      1  C   UNL     1       0.337  -4.914   3.557  0.00  0.00    +0.141 C 
ATOM      2  S   UNL     1       0.671  -4.082   5.016  0.00  0.00    -0.018 S 
ENDROOT
BRANCH   1   5
ATOM      3  C   UNL     1       0.536  -2.915   2.370  0.00  0.00    +0.253 C 
ATOM      4  O   UNL     1       0.773  -2.324   3.405  0.00  0.00    -0.270 OA
ATOM      5  N   UNL     1       0.305  -4.242   2.390  0.00  0.00    -0.263 N 
ATOM      6  H   UNL     1       0.116  -4.714   1.563  0.00  0.00    +0.157 HD
BRANCH   3  12
ATOM      7  C   UNL     1       0.964   1.369  -0.173  0.00  0.00    +0.047 C 
ATOM      8  C   UNL     1       0.706  -0.116  -0.140  0.00  0.00    -0.007 A 
ATOM      9  C   UNL     1       0.436  -0.795  -1.311  0.00  0.00    +0.022 A 
ATOM     10  C   UNL     1       0.199  -2.160  -1.291  0.00  0.00    +0.019 A 
ATOM     11  C   UNL     1       0.229  -2.854  -0.100  0.00  0.00    +0.032 A 
ATOM     12  C   UNL     1       0.502  -2.179   1.092  0.00  0.00    +0.080 A 
ATOM     13  C   UNL     1       0.747  -0.799   1.067  0.00  0.00    +0.135 A 
ATOM     14 BR   UNL     1      -0.171  -3.075  -2.905  0.00  0.00    -0.050 Br
BRANCH  13  15
ATOM     15  O   UNL     1       1.016  -0.133   2.217  0.00  0.00    -0.494 OA
ATOM     16  C   UNL     1      -0.098   0.404   2.933  0.00  0.00    +0.277 C 
ENDBRANCH  13  15
ENDBRANCH   3  12
ENDBRANCH   1   5
BRANCH   1  17
ATOM     17  N   UNL     1       0.105  -6.242   3.577  0.00  0.00    -0.296 N 
ATOM     18  H   UNL     1      -0.145  -6.703   2.761  0.00  0.00    +0.154 HD
BRANCH  17  19
ATOM     19  C   UNL     1       0.226  -6.954   4.772  0.00  0.00    +0.040 A 
ATOM     20  C   UNL     1      -0.359  -6.480   5.926  0.00  0.00    +0.024 A 
ATOM     21  C   UNL     1      -0.245  -7.183   7.122  0.00  0.00    +0.003 A 
ATOM     22  C   UNL     1       0.447  -8.354   7.185  0.00  0.00    +0.012 A 
ATOM     23  C   UNL     1       1.058  -8.871   6.031  0.00  0.00    +0.025 A 
ATOM     24  C   UNL     1       0.944  -8.168   4.807  0.00  0.00    +0.007 A 
ATOM     25  C   UNL     1       1.552  -8.689   3.653  0.00  0.00    +0.010 A 
ATOM     26  C   UNL     1       2.238  -9.863   3.721  0.00  0.00    +0.004 A 
ATOM     27  C   UNL     1       2.349 -10.561   4.921  0.00  0.00    +0.046 A 
ATOM     28  C   UNL     1       1.781 -10.081   6.067  0.00  0.00    +0.125 A 
BRANCH  28  29
ATOM     29  O   UNL     1       1.898 -10.773   7.230  0.00  0.00    -0.506 OA
ATOM     30  H   UNL     1       1.194 -11.420   7.375  0.00  0.00    +0.292 HD
ENDBRANCH  28  29
ENDBRANCH  17  19
ENDBRANCH   1  17
TORSDOF 6
