REMARK  Name = ZINC03442419
REMARK  7 active torsions:
REMARK  status: ('A' for Active; 'I' for Inactive)
REMARK    1  A    between atoms: C_3  and  S_22
REMARK    2  A    between atoms: C_6  and  C_7
REMARK    3  A    between atoms: C_7  and  N_8
REMARK    4  A    between atoms: C_9  and  C_11
REMARK    5  A    between atoms: C_11  and  N_12
REMARK    6  A    between atoms: C_13  and  C_15
REMARK    7  A    between atoms: S_22  and  N_25
REMARK                            x       y       z     vdW  Elec       q    Type
REMARK                         _______ _______ _______ _____ _____    ______ ____
ROOT
ATOM      1  N   UNL     1      -1.726  -1.018  -1.368  0.00  0.00    -0.310 N 
ATOM      2  C   UNL     1      -2.867  -1.694  -1.606  0.00  0.00    +0.230 C 
ATOM      3  O   UNL     1      -3.535  -2.103  -0.680  0.00  0.00    -0.274 OA
ATOM      4  H   UNL     1      -1.192  -0.691  -2.108  0.00  0.00    +0.149 HD
ENDROOT
BRANCH   1   5
ATOM      5  C   UNL     1      -1.293  -0.775   0.011  0.00  0.00    +0.139 C 
BRANCH   5  11
ATOM      6  C   UNL     1      -0.017   1.378   0.010  0.00  0.00    +0.007 A 
ATOM      7  C   UNL     1       1.171   2.086   0.002  0.00  0.00    +0.029 A 
ATOM      8  C   UNL     1       2.377   1.411  -0.013  0.00  0.00    +0.105 A 
ATOM      9  C   UNL     1       2.396   0.029  -0.020  0.00  0.00    +0.029 A 
ATOM     10  C   UNL     1       1.208  -0.679  -0.012  0.00  0.00    +0.007 A 
ATOM     11  C   UNL     1       0.002  -0.004   0.002  0.00  0.00    -0.030 A 
BRANCH   8  12
ATOM     12  S   UNL     1       3.891   2.312  -0.024  0.00  0.00    +0.056 S 
ATOM     13  O   UNL     1       4.872   1.453  -0.588  0.00  0.00    -0.153 OA
ATOM     14  O   UNL     1       3.597   3.593  -0.566  0.00  0.00    -0.153 OA
BRANCH  12  15
ATOM     15  N   UNL     1       4.327   2.556   1.555  0.00  0.00    -0.204 NA
ATOM     16  H   UNL     1       5.265   2.623   1.794  0.00  0.00    +0.144 HD
ATOM     17  H   UNL     1       3.645   2.631   2.241  0.00  0.00    +0.144 HD
ENDBRANCH  12  15
ENDBRANCH   8  12
ENDBRANCH   5  11
ENDBRANCH   1   5
BRANCH   2  18
ATOM     18  C   UNL     1      -3.312  -1.944  -3.024  0.00  0.00    +0.200 C 
BRANCH  18  19
ATOM     19  N   UNL     1      -4.571  -2.694  -3.016  0.00  0.00    -0.303 N 
ATOM     20  C   UNL     1      -5.161  -3.032  -4.179  0.00  0.00    +0.244 C 
ATOM     21  O   UNL     1      -4.650  -2.716  -5.235  0.00  0.00    -0.270 OA
ATOM     22  H   UNL     1      -4.979  -2.946  -2.173  0.00  0.00    +0.150 HD
BRANCH  20  23
ATOM     23  C   UNL     1      -6.431  -3.788  -4.170  0.00  0.00    +0.037 A 
ATOM     24  C   UNL     1      -7.024  -4.148  -2.958  0.00  0.00    +0.016 A 
ATOM     25  C   UNL     1      -8.208  -4.854  -2.956  0.00  0.00    +0.039 A 
ATOM     26  C   UNL     1      -8.810  -5.206  -4.154  0.00  0.00    +0.123 A 
ATOM     27  C   UNL     1      -8.225  -4.851  -5.361  0.00  0.00    +0.039 A 
ATOM     28  C   UNL     1      -7.045  -4.140  -5.374  0.00  0.00    +0.016 A 
ATOM     29  F   UNL     1      -9.970  -5.898  -4.147  0.00  0.00    -0.205 F 
ENDBRANCH  20  23
ENDBRANCH  18  19
ENDBRANCH   2  18
TORSDOF 7
