REMARK  Name = ZINC20477055
REMARK  9 active torsions:
REMARK  status: ('A' for Active; 'I' for Inactive)
REMARK    1  A    between atoms: C_1  and  C_2
REMARK    2  A    between atoms: C_2  and  O_3
REMARK    3  A    between atoms: O_3  and  C_4
REMARK    4  A    between atoms: C_6  and  C_20
REMARK    5  A    between atoms: C_9  and  O_10
REMARK    6  A    between atoms: O_10  and  C_11
REMARK    7  A    between atoms: C_11  and  C_12
REMARK    8  A    between atoms: C_20  and  N_21
REMARK    9  A    between atoms: N_21  and  C_22
REMARK                            x       y       z     vdW  Elec       q    Type
REMARK                         _______ _______ _______ _____ _____    ______ ____
ROOT
ATOM      1  C   UNL     1       1.558   4.046  -1.195  0.00  0.00    +0.163 A 
ATOM      2  C   UNL     1       1.716   5.423  -1.184  0.00  0.00    +0.054 A 
ATOM      3  C   UNL     1       1.808   6.099   0.018  0.00  0.00    -0.029 A 
ATOM      4  C   UNL     1       1.738   5.405   1.212  0.00  0.00    +0.024 A 
ATOM      5  C   UNL     1       1.575   4.032   1.208  0.00  0.00    +0.063 A 
ATOM      6  C   UNL     1       1.482   3.348   0.006  0.00  0.00    +0.176 A 
ATOM      7 BR   UNL     1       1.479   3.086   2.844  0.00  0.00    -0.046 Br
ENDROOT
BRANCH   1   8
ATOM      8  O   UNL     1       1.473   3.380  -2.377  0.00  0.00    -0.489 OA
BRANCH   8  10
ATOM      9  C   UNL     1       1.444   3.244  -4.790  0.00  0.00    +0.048 C 
ATOM     10  C   UNL     1       1.559   4.161  -3.571  0.00  0.00    +0.226 C 
ENDBRANCH   8  10
ENDBRANCH   1   8
BRANCH   6  11
ATOM     11  O   UNL     1       1.322   1.997   0.000  0.00  0.00    -0.483 OA
BRANCH  11  12
ATOM     12  C   UNL     1      -0.018   1.503   0.010  0.00  0.00    +0.264 C 
BRANCH  12  13
ATOM     13  C   UNL     1       0.002  -0.004   0.002  0.00  0.00    -0.010 A 
ATOM     14  C   UNL     1      -0.006  -0.689  -1.199  0.00  0.00    +0.008 A 
ATOM     15  C   UNL     1       0.019  -2.071  -1.207  0.00  0.00    +0.020 A 
ATOM     16  C   UNL     1       0.040  -2.769  -0.013  0.00  0.00    +0.041 A 
ATOM     17  C   UNL     1       0.042  -2.083   1.188  0.00  0.00    +0.020 A 
ATOM     18  C   UNL     1       0.023  -0.701   1.196  0.00  0.00    +0.008 A 
ATOM     19 CL   UNL     1       0.064  -4.505  -0.023  0.00  0.00    -0.084 Cl
ENDBRANCH  12  13
ENDBRANCH  11  12
ENDBRANCH   6  11
BRANCH   3  20
ATOM     20  C   UNL     1       1.986   7.595   0.028  0.00  0.00    +0.116 C 
BRANCH  20  21
ATOM     21  N   UNL     1       3.419   7.918   0.017  0.00  0.00    -0.311 NA
ATOM     22  H   UNL     1       3.899   7.486   0.907  0.00  0.00    +0.122 HD
BRANCH  21  23
ATOM     23  C   UNL     1       3.631   9.372   0.025  0.00  0.00    +0.040 C 
ATOM     24  C   UNL     1       3.567   9.909  -1.407  0.00  0.00    -0.060 C 
ATOM     25  N   UNL     1       4.847  10.545  -1.747  0.00  0.00    +0.381 N 
ATOM     26  C   UNL     1       5.949   9.574  -1.698  0.00  0.00    -0.078 C 
ATOM     27  C   UNL     1       6.080   9.027  -0.274  0.00  0.00    -0.014 C 
ATOM     28  C   UNL     1       5.014   9.686   0.610  0.00  0.00    +0.001 C 
ATOM     29  C   UNL     1       5.224  11.205   0.581  0.00  0.00    -0.014 C 
ATOM     30  C   UNL     1       5.116  11.691  -0.868  0.00  0.00    -0.078 C 
ATOM     31  H   UNL     1       4.773  10.920  -2.778  0.00  0.00    -0.082 HD
ENDBRANCH  21  23
ENDBRANCH  20  21
ENDBRANCH   3  20
TORSDOF 8
