REMARK  Name = ZINC48547611
REMARK  4 active torsions:
REMARK  status: ('A' for Active; 'I' for Inactive)
REMARK    1  A    between atoms: C_3  and  C_10
REMARK    2  A    between atoms: C_5  and  N_7
REMARK    3  A    between atoms: C_16  and  C_18
REMARK    4  A    between atoms: N_20  and  C_21
REMARK                            x       y       z     vdW  Elec       q    Type
REMARK                         _______ _______ _______ _____ _____    ______ ____
ROOT
ATOM      1  C   UNL     1       3.651   2.202  -0.006  0.00  0.00    +0.211 C 
ATOM      2  C   UNL     1       4.037   2.581   1.429  0.00  0.00    +0.128 C 
ATOM      3  C   UNL     1       5.223   3.514   1.375  0.00  0.00    +0.164 C 
ATOM      4  O   UNL     1       6.002   3.572   2.304  0.00  0.00    -0.292 OA
ATOM      5  C   UNL     1       5.416   4.320   0.227  0.00  0.00    +0.097 C 
ATOM      6  C   UNL     1       4.551   4.244  -0.813  0.00  0.00    +0.186 C 
ATOM      7  O   UNL     1       3.496   3.401  -0.774  0.00  0.00    -0.478 OA
ENDROOT
BRANCH   1  10
ATOM      8  C   UNL     1      -0.041   1.413   0.020  0.00  0.00    +0.003 A 
ATOM      9  C   UNL     1       1.150   2.116   0.012  0.00  0.00    +0.007 A 
ATOM     10  C   UNL     1       2.354   1.436   0.004  0.00  0.00    -0.005 A 
ATOM     11  C   UNL     1       2.367   0.054   0.005  0.00  0.00    +0.040 A 
ATOM     12  C   UNL     1       1.177  -0.648   0.014  0.00  0.00    +0.127 A 
ATOM     13  C   UNL     1      -0.027   0.031   0.021  0.00  0.00    +0.033 A 
BRANCH  12  14
ATOM     14  N   UNL     1       1.191  -2.129   0.014  0.00  0.00    +0.056 N 
ATOM     15  O   UNL     1       2.243  -2.723   0.006  0.00  0.00    -0.126 OA
ATOM     16  O   UNL     1       0.150  -2.743   0.022  0.00  0.00    -0.126 OA
ENDBRANCH  12  14
ENDBRANCH   1  10
BRANCH   6  17
ATOM     17  C   UNL     1       4.766   5.092  -2.009  0.00  0.00    +0.283 C 
ATOM     18  O   UNL     1       3.994   5.029  -2.945  0.00  0.00    -0.267 OA
ATOM     19  N   UNL     1       5.817   5.934  -2.059  0.00  0.00    -0.278 N 
ATOM     20  H   UNL     1       6.396   6.033  -1.287  0.00  0.00    +0.155 HD
BRANCH  19  21
ATOM     21  C   UNL     1       6.073   6.665  -3.223  0.00  0.00    +0.054 A 
ATOM     22  C   UNL     1       5.019   7.121  -4.004  0.00  0.00    +0.046 A 
ATOM     23  C   UNL     1       5.276   7.843  -5.154  0.00  0.00    +0.061 A 
ATOM     24  C   UNL     1       6.582   8.111  -5.529  0.00  0.00    +0.061 A 
ATOM     25  C   UNL     1       7.634   7.657  -4.753  0.00  0.00    +0.043 A 
ATOM     26  C   UNL     1       7.383   6.940  -3.598  0.00  0.00    +0.064 A 
ATOM     27 CL   UNL     1       8.703   6.378  -2.621  0.00  0.00    -0.082 Cl
ATOM     28 CL   UNL     1       6.900   9.017  -6.975  0.00  0.00    -0.082 Cl
ATOM     29 CL   UNL     1       3.959   8.414  -6.131  0.00  0.00    -0.082 Cl
ENDBRANCH  19  21
ENDBRANCH   6  17
TORSDOF 4
