REMARK  Name = ZINC63874119
REMARK  6 active torsions:
REMARK  status: ('A' for Active; 'I' for Inactive)
REMARK    1  A    between atoms: C_7  and  C_10
REMARK    2  A    between atoms: C_10  and  C_11
REMARK    3  A    between atoms: C_11  and  C_12
REMARK    4  A    between atoms: C_18  and  S_20
REMARK    5  A    between atoms: S_20  and  C_23
REMARK    6  A    between atoms: C_26  and  N_29
REMARK                            x       y       z     vdW  Elec       q    Type
REMARK                         _______ _______ _______ _____ _____    ______ ____
ROOT
ATOM      1  C   UNL     1      -0.484  -4.830  -1.460  0.00  0.00    +0.219 C 
ATOM      2  O   UNL     1      -0.925  -5.254  -0.412  0.00  0.00    -0.275 OA
ATOM      3  N   UNL     1      -0.837  -5.413  -2.623  0.00  0.00    -0.265 N 
ATOM      4  C   UNL     1      -1.705  -6.499  -2.622  0.00  0.00    +0.166 A 
ATOM      5  N   UNL     1      -2.280  -7.084  -1.594  0.00  0.00    -0.231 NA
ATOM      6  C   UNL     1      -3.087  -8.116  -1.759  0.00  0.00    +0.148 A 
ATOM      7  C   UNL     1      -3.293  -8.539  -3.031  0.00  0.00    +0.152 A 
ATOM      8  S   UNL     1      -2.281  -7.379  -3.935  0.00  0.00    -0.033 S 
ATOM      9  H   UNL     1      -0.485  -5.075  -3.461  0.00  0.00    +0.157 HD
ENDROOT
BRANCH   7  10
ATOM     10  S   UNL     1      -4.289  -9.865  -3.627  0.00  0.00    +0.033 S 
ATOM     11  O   UNL     1      -3.752 -10.242  -4.887  0.00  0.00    -0.164 OA
ATOM     12  O   UNL     1      -4.427 -10.784  -2.551  0.00  0.00    -0.164 OA
BRANCH  10  13
ATOM     13  C   UNL     1      -5.895  -9.210  -3.939  0.00  0.00    +0.094 A 
ATOM     14  C   UNL     1      -6.848  -9.208  -2.938  0.00  0.00    +0.029 A 
ATOM     15  C   UNL     1      -8.107  -8.695  -3.183  0.00  0.00    +0.034 A 
ATOM     16  C   UNL     1      -8.414  -8.182  -4.430  0.00  0.00    +0.126 A 
ATOM     17  C   UNL     1      -7.461  -8.183  -5.431  0.00  0.00    +0.034 A 
ATOM     18  C   UNL     1      -6.200  -8.693  -5.184  0.00  0.00    +0.029 A 
BRANCH  16  19
ATOM     19  N   UNL     1      -9.763  -7.633  -4.693  0.00  0.00    +0.056 N 
ATOM     20  O   UNL     1     -10.597  -7.633  -3.818  0.00  0.00    -0.126 OA
ATOM     21  O   UNL     1     -10.031  -7.185  -5.783  0.00  0.00    -0.126 OA
ENDBRANCH  16  19
ENDBRANCH  10  13
ENDBRANCH   7  10
BRANCH   1  22
ATOM     22  C   UNL     1       0.457  -3.653  -1.462  0.00  0.00    +0.100 C 
BRANCH  22  23
ATOM     23  C   UNL     1       0.691  -3.186  -0.024  0.00  0.00    +0.042 C 
BRANCH  23  30
ATOM     24  C   UNL     1      -0.016   1.348   0.009  0.00  0.00    +0.001 A 
ATOM     25  C   UNL     1       1.166   2.101   0.002  0.00  0.00    +0.002 A 
ATOM     26  C   UNL     1       2.391   1.535  -0.013  0.00  0.00    +0.026 A 
ATOM     27  C   UNL     1       2.529   0.120  -0.022  0.00  0.00    +0.043 A 
ATOM     28  N   UNL     1       3.587  -0.654  -0.037  0.00  0.00    -0.380 N 
ATOM     29  C   UNL     1       3.143  -2.053  -0.041  0.00  0.00    +0.144 C 
ATOM     30  C   UNL     1       1.631  -2.008  -0.025  0.00  0.00    -0.041 C 
ATOM     31  C   UNL     1       1.295  -0.698  -0.014  0.00  0.00    -0.001 A 
ATOM     32  C   UNL     1       0.002  -0.004   0.002  0.00  0.00    +0.010 A 
ATOM     33  H   UNL     1       4.509  -0.353  -0.045  0.00  0.00    +0.160 HD
ENDBRANCH  23  30
ENDBRANCH  22  23
ENDBRANCH   1  22
TORSDOF 6
