REMARK  Name = ZINC59736998
REMARK  5 active torsions:
REMARK  status: ('A' for Active; 'I' for Inactive)
REMARK    1  A    between atoms: C_1  and  C_2
REMARK    2  A    between atoms: C_3  and  C_14
REMARK    3  A    between atoms: N_6  and  C_7
REMARK    4  A    between atoms: N_16  and  N_17
REMARK    5  A    between atoms: C_18  and  C_20
REMARK                            x       y       z     vdW  Elec       q    Type
REMARK                         _______ _______ _______ _____ _____    ______ ____
ROOT
ATOM      1  C   UNL     1      -0.004  -0.358  -2.502  0.00  0.00    +0.282 C 
ATOM      2  O   UNL     1      -0.021   0.831  -2.756  0.00  0.00    -0.267 OA
ATOM      3  N   UNL     1       0.005  -1.261  -3.503  0.00  0.00    -0.229 N 
ATOM      4  H   UNL     1       0.019  -2.209  -3.301  0.00  0.00    +0.173 HD
ENDROOT
BRANCH   1   7
ATOM      5  C   UNL     1      -0.018   1.503   0.010  0.00  0.00    +0.068 C 
ATOM      6  C   UNL     1       0.002  -0.004   0.002  0.00  0.00    +0.074 A 
ATOM      7  C   UNL     1       0.009  -0.813  -1.099  0.00  0.00    +0.172 A 
ATOM      8  N   UNL     1       0.028  -2.092  -0.688  0.00  0.00    -0.124 NA
ATOM      9  N   UNL     1       0.033  -2.132   0.599  0.00  0.00    -0.060 NA
ATOM     10  N   UNL     1       0.023  -0.815   1.082  0.00  0.00    -0.216 N 
BRANCH  10  11
ATOM     11  C   UNL     1       0.031  -0.417   2.427  0.00  0.00    +0.068 A 
ATOM     12  C   UNL     1       0.705   0.736   2.807  0.00  0.00    +0.028 A 
ATOM     13  C   UNL     1       0.711   1.126   4.132  0.00  0.00    +0.003 A 
ATOM     14  C   UNL     1       0.047   0.369   5.080  0.00  0.00    +0.015 A 
ATOM     15  C   UNL     1      -0.624  -0.781   4.705  0.00  0.00    +0.020 A 
ATOM     16  C   UNL     1      -0.638  -1.173   3.379  0.00  0.00    +0.043 A 
ATOM     17 BR   UNL     1      -1.528  -1.814   6.005  0.00  0.00    -0.050 Br
ENDBRANCH  10  11
ENDBRANCH   1   7
BRANCH   3  18
ATOM     18  N   UNL     1      -0.007  -0.829  -4.836  0.00  0.00    -0.231 N 
ATOM     19  C   UNL     1       0.001  -1.732  -5.837  0.00  0.00    +0.273 C 
ATOM     20  O   UNL     1       0.019  -2.918  -5.583  0.00  0.00    -0.270 OA
ATOM     21  H   UNL     1      -0.021   0.119  -5.039  0.00  0.00    +0.173 HD
BRANCH  19  22
ATOM     22  C   UNL     1      -0.011  -1.268  -7.271  0.00  0.00    +0.297 C 
ATOM     23  C   UNL     1       1.293  -0.522  -7.584  0.00  0.00    +0.283 C 
ATOM     24  O   UNL     1       1.254  -0.108  -8.954  0.00  0.00    -0.484 OA
ATOM     25  C   UNL     1       0.853  -1.039  -9.863  0.00  0.00    +0.162 A 
ATOM     26  C   UNL     1       1.130  -0.841 -11.208  0.00  0.00    +0.049 A 
ATOM     27  C   UNL     1       0.727  -1.776 -12.143  0.00  0.00    +0.004 A 
ATOM     28  C   UNL     1       0.046  -2.910 -11.741  0.00  0.00    +0.004 A 
ATOM     29  C   UNL     1      -0.232  -3.114 -10.402  0.00  0.00    +0.049 A 
ATOM     30  C   UNL     1       0.171  -2.180  -9.459  0.00  0.00    +0.163 A 
ATOM     31  O   UNL     1      -0.103  -2.399  -8.143  0.00  0.00    -0.472 OA
ENDBRANCH  19  22
ENDBRANCH   3  18
TORSDOF 4
