REMARK  Name = ZINC35383131
REMARK  12 active torsions:
REMARK  status: ('A' for Active; 'I' for Inactive)
REMARK    1  A    between atoms: C_3  and  C_6
REMARK    2  A    between atoms: C_6  and  N_7
REMARK    3  A    between atoms: N_7  and  C_8
REMARK    4  A    between atoms: C_8  and  C_9
REMARK    5  A    between atoms: C_16  and  C_18
REMARK    6  A    between atoms: C_18  and  N_19
REMARK    7  A    between atoms: N_19  and  C_20
REMARK    8  A    between atoms: C_20  and  C_21
REMARK    9  A    between atoms: C_21  and  N_22
REMARK   10  A    between atoms: C_27  and  C_29
REMARK   11  A    between atoms: C_29  and  C_30
REMARK   12  A    between atoms: C_30  and  C_31
REMARK                            x       y       z     vdW  Elec       q    Type
REMARK                         _______ _______ _______ _____ _____    ______ ____
ROOT
ATOM      1  C   UNL     1       3.372   4.322   1.298  0.00  0.00    +0.203 C 
ENDROOT
BRANCH   1   3
ATOM      2  N   UNL     1       4.234   2.004   1.353  0.00  0.00    -0.291 N 
ATOM      3  C   UNL     1       4.057   3.175   1.996  0.00  0.00    +0.234 C 
ATOM      4  O   UNL     1       4.448   3.306   3.136  0.00  0.00    -0.274 OA
BRANCH   2   5
ATOM      5  C   UNL     1       3.761   1.845  -0.024  0.00  0.00    +0.150 C 
BRANCH   5   8
ATOM      6  C   UNL     1      -0.016   1.351   0.009  0.00  0.00    +0.008 A 
ATOM      7  C   UNL     1       1.183   2.038   0.002  0.00  0.00    +0.013 A 
ATOM      8  C   UNL     1       2.343   1.336  -0.013  0.00  0.00    +0.007 A 
ATOM      9  S   UNL     1       1.754  -0.349  -0.017  0.00  0.00    -0.100 S 
ATOM     10  C   UNL     1       0.002  -0.004   0.002  0.00  0.00    +0.045 A 
ENDBRANCH   5   8
ENDBRANCH   2   5
BRANCH   2  11
ATOM     11  C   UNL     1       4.899   0.889   2.032  0.00  0.00    +0.143 C 
BRANCH  11  12
ATOM     12  C   UNL     1       6.383   0.962   1.781  0.00  0.00    -0.030 A 
ATOM     13  C   UNL     1       6.931   0.325   0.683  0.00  0.00    +0.008 A 
ATOM     14  C   UNL     1       8.291   0.391   0.451  0.00  0.00    +0.038 A 
ATOM     15  C   UNL     1       9.107   1.097   1.320  0.00  0.00    +0.123 A 
ATOM     16  C   UNL     1       8.558   1.734   2.419  0.00  0.00    +0.038 A 
ATOM     17  C   UNL     1       7.196   1.671   2.646  0.00  0.00    +0.008 A 
ATOM     18  F   UNL     1      10.437   1.162   1.095  0.00  0.00    -0.205 F 
ENDBRANCH  11  12
ENDBRANCH   2  11
ENDBRANCH   1   3
BRANCH   1  19
ATOM     19  N   UNL     1       3.303   5.472   2.202  0.00  0.00    -0.294 N 
ATOM     20  C   UNL     1       2.239   5.627   3.015  0.00  0.00    +0.216 C 
ATOM     21  O   UNL     1       1.339   4.814   2.999  0.00  0.00    -0.276 OA
BRANCH  19  22
ATOM     22  C   UNL     1       4.390   6.454   2.223  0.00  0.00    +0.090 C 
BRANCH  22  23
ATOM     23  C   UNL     1       4.097   7.560   1.206  0.00  0.00    -0.060 C 
BRANCH  23  24
ATOM     24  N   UNL     1       5.187   8.544   1.226  0.00  0.00    +0.381 N 
ATOM     25  C   UNL     1       6.431   7.944   0.679  0.00  0.00    -0.079 C 
ATOM     26  C   UNL     1       7.261   9.178   0.247  0.00  0.00    -0.020 C 
ATOM     27  C   UNL     1       6.185  10.141  -0.306  0.00  0.00    -0.020 C 
ATOM     28  C   UNL     1       4.864   9.682   0.338  0.00  0.00    -0.079 C 
ATOM     29  H   UNL     1       5.343   8.872   2.168  0.00  0.00    -0.082 HD
ENDBRANCH  23  24
ENDBRANCH  22  23
ENDBRANCH  19  22
BRANCH  20  30
ATOM     30  C   UNL     1       2.168   6.811   3.945  0.00  0.00    +0.096 C 
BRANCH  30  31
ATOM     31  C   UNL     1       0.869   6.749   4.751  0.00  0.00    +0.013 C 
BRANCH  31  32
ATOM     32  C   UNL     1       0.797   7.951   5.695  0.00  0.00    -0.011 C 
ATOM     33  C   UNL     1       1.880   7.831   6.788  0.00  0.00    +0.003 C 
ATOM     34  C   UNL     1       1.197   8.386   8.062  0.00  0.00    +0.000 C 
ATOM     35  C   UNL     1      -0.254   7.861   7.929  0.00  0.00    +0.000 C 
ATOM     36  C   UNL     1      -0.560   7.970   6.421  0.00  0.00    +0.003 C 
ENDBRANCH  31  32
ENDBRANCH  30  31
ENDBRANCH  20  30
ENDBRANCH   1  19
TORSDOF 12
