REMARK  Name = ZINC15358679
REMARK  13 active torsions:
REMARK  status: ('A' for Active; 'I' for Inactive)
REMARK    1  A    between atoms: C_1  and  C_2
REMARK    2  A    between atoms: C_2  and  O_3
REMARK    3  A    between atoms: O_3  and  C_4
REMARK    4  A    between atoms: C_4  and  C_6
REMARK    5  A    between atoms: C_7  and  C_33
REMARK    6  A    between atoms: C_8  and  C_29
REMARK    7  A    between atoms: C_10  and  N_11
REMARK    8  A    between atoms: C_12  and  C_14
REMARK    9  A    between atoms: C_14  and  N_56
REMARK   10  A    between atoms: C_15  and  C_17
REMARK   11  A    between atoms: C_15  and  C_24
REMARK   12  A    between atoms: C_15  and  N_56
REMARK   13  A    between atoms: N_31  and  C_32
REMARK                            x       y       z     vdW  Elec       q    Type
REMARK                         _______ _______ _______ _____ _____    ______ ____
ROOT
ATOM      1  N   UNL     1      -1.280  -2.329  -2.491  0.00  0.00    -0.281 N 
ATOM      2  C   UNL     1      -1.323  -3.183  -3.533  0.00  0.00    +0.201 C 
ATOM      3  O   UNL     1      -1.367  -4.379  -3.334  0.00  0.00    -0.278 OA
ATOM      4  H   UNL     1      -1.244  -1.373  -2.650  0.00  0.00    +0.155 HD
ENDROOT
BRANCH   1   9
ATOM      5  C   UNL     1      -1.248  -2.099   0.003  0.00  0.00    +0.091 A 
ATOM      6  C   UNL     1      -1.259  -2.822   1.186  0.00  0.00    -0.015 A 
ATOM      7  C   UNL     1      -1.318  -4.186   1.097  0.00  0.00    +0.079 A 
ATOM      8  S   UNL     1      -1.345  -4.463  -0.664  0.00  0.00    -0.068 S 
ATOM      9  C   UNL     1      -1.287  -2.815  -1.198  0.00  0.00    +0.087 A 
ATOM     10  C   UNL     1      -1.214  -2.129   2.524  0.00  0.00    +0.046 C 
BRANCH   7  11
ATOM     11  C   UNL     1      -1.345  -5.173   2.178  0.00  0.00    +0.251 C 
ATOM     12  O   UNL     1      -1.320  -4.805   3.338  0.00  0.00    -0.270 OA
ATOM     13  N   UNL     1      -1.399  -6.488   1.889  0.00  0.00    -0.314 N 
ATOM     14  C   UNL     1      -1.427  -7.475   2.971  0.00  0.00    +0.128 C 
ATOM     15  H   UNL     1      -1.419  -6.781   0.965  0.00  0.00    +0.149 HD
ENDBRANCH   7  11
BRANCH   5  16
ATOM     16  C   UNL     1      -1.191  -0.632   0.010  0.00  0.00    +0.342 C 
ATOM     17  O   UNL     1      -2.220   0.016   0.023  0.00  0.00    -0.245 OA
BRANCH  16  18
ATOM     18  O   UNL     1       0.002  -0.004   0.002  0.00  0.00    -0.461 OA
BRANCH  18  20
ATOM     19  C   UNL     1       1.418   1.977  -0.001  0.00  0.00    +0.048 C 
ATOM     20  C   UNL     1      -0.018   1.448   0.010  0.00  0.00    +0.229 C 
ENDBRANCH  18  20
ENDBRANCH  16  18
ENDBRANCH   5  16
ENDBRANCH   1   9
BRANCH   2  21
ATOM     21  C   UNL     1      -1.315  -2.653  -4.943  0.00  0.00    +0.016 C 
BRANCH  21  22
ATOM     22  N   UNL     1      -1.368  -3.786  -5.886  0.00  0.00    +0.392 N 
ATOM     23  H   UNL     1      -2.227  -4.325  -5.720  0.00  0.00    -0.084 HD
ATOM     24  H   UNL     1      -0.551  -4.390  -5.736  0.00  0.00    -0.084 HD
BRANCH  22  25
ATOM     25  C   UNL     1      -1.362  -3.296  -7.277  0.00  0.00    -0.003 C 
BRANCH  25  26
ATOM     26  C   UNL     1      -2.011  -4.324  -8.167  0.00  0.00    -0.056 A 
ATOM     27  C   UNL     1      -1.764  -5.669  -7.963  0.00  0.00    +0.005 A 
ATOM     28  C   UNL     1      -2.363  -6.614  -8.775  0.00  0.00    +0.038 A 
ATOM     29  C   UNL     1      -3.202  -6.212  -9.800  0.00  0.00    +0.123 A 
ATOM     30  C   UNL     1      -3.445  -4.864 -10.007  0.00  0.00    +0.038 A 
ATOM     31  C   UNL     1      -2.850  -3.922  -9.190  0.00  0.00    +0.005 A 
ATOM     32  F   UNL     1      -3.783  -7.134 -10.598  0.00  0.00    -0.205 F 
ENDBRANCH  25  26
BRANCH  25  33
ATOM     33  C   UNL     1       0.059  -3.070  -7.724  0.00  0.00    -0.020 A 
ATOM     34  C   UNL     1       0.565  -2.069  -8.486  0.00  0.00    +0.010 A 
ATOM     35  C   UNL     1       1.918  -2.062  -8.771  0.00  0.00    +0.008 A 
ATOM     36  C   UNL     1       2.696  -3.062  -8.290  0.00  0.00    +0.045 A 
ATOM     37  S   UNL     1       1.511  -4.054  -7.396  0.00  0.00    -0.103 S 
ENDBRANCH  25  33
ENDBRANCH  22  25
ENDBRANCH  21  22
ENDBRANCH   2  21
TORSDOF 10
