REMARK  Name = ZINC64136965
REMARK  8 active torsions:
REMARK  status: ('A' for Active; 'I' for Inactive)
REMARK    1  A    between atoms: C_1  and  C_2
REMARK    2  A    between atoms: C_7  and  C_14
REMARK    3  A    between atoms: C_14  and  N_15
REMARK    4  A    between atoms: N_15  and  C_16
REMARK    5  A    between atoms: N_15  and  S_24
REMARK    6  A    between atoms: C_19  and  C_23
REMARK    7  A    between atoms: C_20  and  C_22
REMARK    8  A    between atoms: S_24  and  C_27
REMARK                            x       y       z     vdW  Elec       q    Type
REMARK                         _______ _______ _______ _____ _____    ______ ____
ROOT
ATOM      1  C   UNL     1      -1.433  -5.985   1.269  0.00  0.00    +0.148 C 
ENDROOT
BRANCH   1   8
ATOM      2  C   UNL     1      -5.672  -8.681  -4.297  0.00  0.00    +0.044 C 
ATOM      3  C   UNL     1      -5.033  -7.841  -3.220  0.00  0.00    -0.049 A 
ATOM      4  C   UNL     1      -4.786  -6.493  -3.481  0.00  0.00    +0.004 A 
ATOM      5  C   UNL     1      -4.213  -5.687  -2.550  0.00  0.00    +0.010 A 
ATOM      6  C   UNL     1      -3.852  -6.255  -1.251  0.00  0.00    -0.007 A 
ATOM      7  C   UNL     1      -3.275  -5.483  -0.286  0.00  0.00    -0.003 C 
ATOM      8  C   UNL     1      -2.935  -6.154   1.030  0.00  0.00    +0.118 C 
ATOM      9  C   UNL     1      -3.263  -7.624   1.165  0.00  0.00    +0.226 C 
ATOM     10  O   UNL     1      -3.011  -8.213   2.200  0.00  0.00    -0.275 OA
ATOM     11  N   UNL     1      -3.824  -8.267   0.155  0.00  0.00    -0.284 N 
ATOM     12  C   UNL     1      -4.125  -7.681  -1.003  0.00  0.00    +0.041 A 
ATOM     13  C   UNL     1      -4.726  -8.427  -2.034  0.00  0.00    +0.027 A 
ATOM     14  H   UNL     1      -4.026  -9.210   0.263  0.00  0.00    +0.155 HD
ENDBRANCH   1   8
BRANCH   1  15
ATOM     15  N   UNL     1      -1.091  -6.491   2.600  0.00  0.00    -0.207 N 
BRANCH  15  16
ATOM     16  C   UNL     1      -1.565  -5.837   3.739  0.00  0.00    +0.051 A 
ATOM     17  C   UNL     1      -1.231  -4.508   3.969  0.00  0.00    +0.025 A 
ATOM     18  C   UNL     1      -1.702  -3.864   5.096  0.00  0.00    +0.005 A 
ATOM     19  C   UNL     1      -2.506  -4.540   5.995  0.00  0.00    -0.047 A 
ATOM     20  C   UNL     1      -2.841  -5.862   5.770  0.00  0.00    -0.046 A 
ATOM     21  C   UNL     1      -2.377  -6.511   4.642  0.00  0.00    +0.028 A 
ATOM     22  C   UNL     1      -3.716  -6.596   6.753  0.00  0.00    +0.044 C 
ATOM     23  C   UNL     1      -3.019  -3.834   7.224  0.00  0.00    +0.044 C 
ENDBRANCH  15  16
BRANCH  15  24
ATOM     24  S   UNL     1      -0.140  -7.838   2.755  0.00  0.00    +0.043 S 
ATOM     25  O   UNL     1      -0.573  -8.450   3.962  0.00  0.00    -0.155 OA
ATOM     26  O   UNL     1      -0.267  -8.516   1.513  0.00  0.00    -0.155 OA
ATOM     27  C   UNL     1       1.546  -7.199   2.949  0.00  0.00    +0.218 C 
ENDBRANCH  15  24
ENDBRANCH   1  15
TORSDOF 4
