REMARK  Name = ZINC12227349
REMARK  10 active torsions:
REMARK  status: ('A' for Active; 'I' for Inactive)
REMARK    1  A    between atoms: C_1  and  O_2
REMARK    2  A    between atoms: O_2  and  C_3
REMARK    3  A    between atoms: C_7  and  C_11
REMARK    4  A    between atoms: C_8  and  O_9
REMARK    5  A    between atoms: O_9  and  C_10
REMARK    6  A    between atoms: C_11  and  N_12
REMARK    7  A    between atoms: C_13  and  C_15
REMARK    8  A    between atoms: C_15  and  C_16
REMARK    9  A    between atoms: C_23  and  C_24
REMARK   10  A    between atoms: C_23  and  N_56
REMARK                            x       y       z     vdW  Elec       q    Type
REMARK                         _______ _______ _______ _____ _____    ______ ____
ROOT
ATOM      1  C   UNL     1       4.204   4.742  -1.591  0.00  0.00    +0.028 C 
ATOM      2  C   UNL     1       3.150   3.688  -1.401  0.00  0.00    +0.200 C 
ATOM      3  O   UNL     1       2.055   3.866  -1.891  0.00  0.00    -0.278 OA
ATOM      4  N   UNL     1       3.369   2.561  -0.715  0.00  0.00    -0.318 N 
ATOM      5  C   UNL     1       4.639   2.267  -0.057  0.00  0.00    +0.085 C 
ATOM      6  C   UNL     1       5.745   3.156  -0.630  0.00  0.00    -0.058 C 
ATOM      7  H   UNL     1       2.653   1.911  -0.652  0.00  0.00    +0.149 HD
ATOM      8  N   UNL     1       5.273   4.555  -0.593  0.00  0.00    +0.391 N 
ATOM      9  H   UNL     1       4.900   4.758   0.342  0.00  0.00    -0.080 HD
ENDROOT
BRANCH   1  10
ATOM     10  C   UNL     1       3.577   6.125  -1.395  0.00  0.00    +0.089 C 
BRANCH  10  12
ATOM     11  N   UNL     1       2.591   7.433   0.458  0.00  0.00    -0.311 N 
ATOM     12  C   UNL     1       3.090   6.258   0.025  0.00  0.00    +0.212 C 
ATOM     13  O   UNL     1       3.147   5.309   0.778  0.00  0.00    -0.276 OA
ATOM     14  H   UNL     1       2.545   8.192  -0.143  0.00  0.00    +0.149 HD
BRANCH  11  15
ATOM     15  C   UNL     1       2.116   7.562   1.839  0.00  0.00    +0.143 C 
BRANCH  15  20
ATOM     16  C   UNL     1      -0.118  10.618   1.846  0.00  0.00    +0.162 A 
ATOM     17  C   UNL     1       0.690  11.543   2.489  0.00  0.00    +0.049 A 
ATOM     18  C   UNL     1       1.952  11.178   2.918  0.00  0.00    +0.004 A 
ATOM     19  C   UNL     1       2.412   9.891   2.707  0.00  0.00    +0.009 A 
ATOM     20  C   UNL     1       1.612   8.964   2.067  0.00  0.00    +0.015 A 
ATOM     21  C   UNL     1       0.347   9.325   1.629  0.00  0.00    +0.166 A 
BRANCH  16  23
ATOM     22  C   UNL     1      -1.769  12.321   1.676  0.00  0.00    +0.277 C 
ATOM     23  O   UNL     1      -1.360  10.975   1.424  0.00  0.00    -0.491 OA
ENDBRANCH  16  23
BRANCH  21  24
ATOM     24  O   UNL     1      -0.440   8.415   0.995  0.00  0.00    -0.491 OA
ATOM     25  C   UNL     1      -1.304   7.623   1.812  0.00  0.00    +0.277 C 
ENDBRANCH  21  24
ENDBRANCH  15  20
ENDBRANCH  11  15
ENDBRANCH  10  12
ENDBRANCH   1  10
BRANCH   8  26
ATOM     26  C   UNL     1       6.396   5.477  -0.874  0.00  0.00    -0.040 C 
BRANCH  26  27
ATOM     27  C   UNL     1       7.430   5.339   0.215  0.00  0.00    -0.045 A 
ATOM     28  C   UNL     1       7.377   6.160   1.325  0.00  0.00    +0.006 A 
ATOM     29  C   UNL     1       8.324   6.034   2.324  0.00  0.00    +0.038 A 
ATOM     30  C   UNL     1       9.322   5.081   2.215  0.00  0.00    +0.125 A 
ATOM     31  C   UNL     1       9.379   4.262   1.100  0.00  0.00    +0.058 A 
ATOM     32  C   UNL     1       8.430   4.390   0.101  0.00  0.00    +0.045 A 
ATOM     33 CL   UNL     1       8.495   3.360  -1.294  0.00  0.00    -0.083 Cl
ATOM     34  F   UNL     1      10.245   4.953   3.194  0.00  0.00    -0.205 F 
ENDBRANCH  26  27
ENDBRANCH   8  26
TORSDOF 8
