REMARK  Name = ZINC39759211
REMARK  10 active torsions:
REMARK  status: ('A' for Active; 'I' for Inactive)
REMARK    1  A    between atoms: C_1  and  C_2
REMARK    2  A    between atoms: C_5  and  N_9
REMARK    3  A    between atoms: C_6  and  C_8
REMARK    4  A    between atoms: C_10  and  C_12
REMARK    5  A    between atoms: C_12  and  C_13
REMARK    6  A    between atoms: C_16  and  S_19
REMARK    7  A    between atoms: N_17  and  C_18
REMARK    8  A    between atoms: S_19  and  C_20
REMARK    9  A    between atoms: C_20  and  C_21
REMARK   10  A    between atoms: N_23  and  C_24
REMARK                            x       y       z     vdW  Elec       q    Type
REMARK                         _______ _______ _______ _____ _____    ______ ____
ROOT
ATOM      1  C   UNL     1      -0.337  -5.197  -3.424  0.00  0.00    +0.143 A 
ATOM      2  N   UNL     1      -1.320  -5.983  -3.761  0.00  0.00    -0.133 NA
ATOM      3  N   UNL     1      -1.056  -6.566  -4.876  0.00  0.00    -0.122 NA
ATOM      4  C   UNL     1       0.120  -6.179  -5.314  0.00  0.00    +0.192 A 
ATOM      5  N   UNL     1       0.614  -5.290  -4.403  0.00  0.00    -0.309 N 
ATOM      6  C   UNL     1       1.896  -4.584  -4.460  0.00  0.00    +0.152 C 
ENDROOT
BRANCH   1   7
ATOM      7  C   UNL     1      -0.263  -4.340  -2.187  0.00  0.00    +0.172 C 
BRANCH   7   9
ATOM      8  N   UNL     1      -0.902  -2.047  -1.512  0.00  0.00    -0.285 N 
ATOM      9  C   UNL     1      -0.859  -2.986  -2.478  0.00  0.00    +0.225 C 
ATOM     10  O   UNL     1      -1.300  -2.742  -3.581  0.00  0.00    -0.275 OA
ATOM     11  H   UNL     1      -0.494  -2.220  -0.649  0.00  0.00    +0.155 HD
BRANCH   8  16
ATOM     12  C   UNL     1      -3.471   2.915  -2.493  0.00  0.00    +0.044 C 
ATOM     13  C   UNL     1      -2.789   1.597  -2.232  0.00  0.00    -0.050 A 
ATOM     14  C   UNL     1      -2.224   0.893  -3.280  0.00  0.00    +0.005 A 
ATOM     15  C   UNL     1      -1.598  -0.315  -3.045  0.00  0.00    +0.024 A 
ATOM     16  C   UNL     1      -1.535  -0.823  -1.754  0.00  0.00    +0.036 A 
ATOM     17  C   UNL     1      -2.103  -0.114  -0.704  0.00  0.00    -0.029 A 
ATOM     18  C   UNL     1      -2.724   1.096  -0.945  0.00  0.00    +0.008 A 
ATOM     19  C   UNL     1      -2.038  -0.661   0.699  0.00  0.00    +0.045 C 
ENDBRANCH   8  16
ENDBRANCH   7   9
ENDBRANCH   1   7
BRANCH   4  20
ATOM     20  S   UNL     1       0.909  -6.705  -6.799  0.00  0.00    -0.077 S 
BRANCH  20  21
ATOM     21  C   UNL     1      -0.272  -7.867  -7.536  0.00  0.00    +0.173 C 
BRANCH  21  22
ATOM     22  C   UNL     1       0.287  -8.398  -8.831  0.00  0.00    +0.228 C 
ATOM     23  O   UNL     1       1.376  -8.029  -9.218  0.00  0.00    -0.275 OA
ATOM     24  N   UNL     1      -0.422  -9.283  -9.559  0.00  0.00    -0.282 N 
ATOM     25  H   UNL     1      -1.314  -9.539  -9.277  0.00  0.00    +0.155 HD
BRANCH  24  26
ATOM     26  C   UNL     1       0.129  -9.834 -10.723  0.00  0.00    +0.071 A 
ATOM     27  C   UNL     1       1.456 -10.244 -10.738  0.00  0.00    +0.065 A 
ATOM     28  C   UNL     1       1.997 -10.788 -11.888  0.00  0.00    +0.042 A 
ATOM     29  C   UNL     1       1.218 -10.924 -13.024  0.00  0.00    +0.044 A 
ATOM     30  C   UNL     1      -0.104 -10.516 -13.011  0.00  0.00    +0.042 A 
ATOM     31  C   UNL     1      -0.652  -9.977 -11.863  0.00  0.00    +0.065 A 
ATOM     32 CL   UNL     1      -2.313  -9.472 -11.846  0.00  0.00    -0.082 Cl
ATOM     33 CL   UNL     1       1.901 -11.606 -14.466  0.00  0.00    -0.083 Cl
ATOM     34 CL   UNL     1       2.435 -10.073  -9.314  0.00  0.00    -0.082 Cl
ENDBRANCH  24  26
ENDBRANCH  21  22
ENDBRANCH  20  21
ENDBRANCH   4  20
TORSDOF 7
