REMARK  Name = ZINC10219163
REMARK  9 active torsions:
REMARK  status: ('A' for Active; 'I' for Inactive)
REMARK    1  A    between atoms: C_1  and  C_2
REMARK    2  A    between atoms: C_5  and  S_23
REMARK    3  A    between atoms: C_7  and  C_8
REMARK    4  A    between atoms: N_10  and  C_11
REMARK    5  A    between atoms: C_11  and  C_12
REMARK    6  A    between atoms: C_12  and  C_14
REMARK    7  A    between atoms: C_12  and  N_65
REMARK    8  A    between atoms: S_23  and  N_26
REMARK    9  A    between atoms: N_26  and  C_27
REMARK                            x       y       z     vdW  Elec       q    Type
REMARK                         _______ _______ _______ _____ _____    ______ ____
ROOT
ATOM      1  C   UNL     1      -3.360   1.005  -0.990  0.00  0.00    +0.044 C 
ATOM      2  C   UNL     1      -1.956   1.451  -0.672  0.00  0.00    -0.038 A 
ATOM      3  C   UNL     1      -0.908   0.557  -0.767  0.00  0.00    +0.006 A 
ATOM      4  C   UNL     1       0.382   0.966  -0.482  0.00  0.00    +0.029 A 
ATOM      5  C   UNL     1       0.631   2.271  -0.093  0.00  0.00    +0.106 A 
ATOM      6  C   UNL     1      -0.407   3.172   0.011  0.00  0.00    +0.041 A 
ATOM      7  C   UNL     1      -1.712   2.766  -0.276  0.00  0.00    +0.041 A 
ENDROOT
BRANCH   7   8
ATOM      8  C   UNL     1      -2.830   3.728  -0.165  0.00  0.00    +0.244 C 
ATOM      9  O   UNL     1      -3.975   3.348  -0.313  0.00  0.00    -0.270 OA
ATOM     10  N   UNL     1      -2.579   5.025   0.100  0.00  0.00    -0.312 N 
ATOM     11  H   UNL     1      -1.665   5.328   0.218  0.00  0.00    +0.149 HD
BRANCH  10  12
ATOM     12  C   UNL     1      -3.687   5.977   0.210  0.00  0.00    +0.097 C 
BRANCH  12  13
ATOM     13  C   UNL     1      -3.129   7.386   0.422  0.00  0.00    +0.016 C 
BRANCH  13  18
ATOM     14  C   UNL     1      -2.783   7.458  -1.987  0.00  0.00    -0.078 C 
ATOM     15  C   UNL     1      -1.902   8.309  -2.937  0.00  0.00    -0.020 C 
ATOM     16  C   UNL     1      -1.605   9.570  -2.095  0.00  0.00    -0.020 C 
ATOM     17  C   UNL     1      -1.815   9.137  -0.632  0.00  0.00    -0.078 C 
ATOM     18  N   UNL     1      -2.171   7.718  -0.675  0.00  0.00    +0.387 N 
ATOM     19  H   UNL     1      -1.325   7.145  -0.567  0.00  0.00    -0.081 HD
ENDBRANCH  13  18
BRANCH  13  20
ATOM     20  C   UNL     1      -2.424   7.452   1.752  0.00  0.00    +0.093 A 
ATOM     21  C   UNL     1      -2.934   7.962   2.888  0.00  0.00    +0.043 A 
ATOM     22  C   UNL     1      -1.939   7.821   3.882  0.00  0.00    +0.041 A 
ATOM     23  C   UNL     1      -0.881   7.234   3.295  0.00  0.00    +0.195 A 
ATOM     24  O   UNL     1      -1.183   7.008   2.006  0.00  0.00    -0.469 OA
ENDBRANCH  13  20
ENDBRANCH  12  13
ENDBRANCH  10  12
ENDBRANCH   7   8
BRANCH   5  25
ATOM     25  S   UNL     1       2.278   2.781   0.268  0.00  0.00    +0.059 S 
ATOM     26  O   UNL     1       2.175   3.902   1.135  0.00  0.00    -0.153 OA
ATOM     27  O   UNL     1       2.999   1.608   0.622  0.00  0.00    -0.153 OA
BRANCH  25  28
ATOM     28  N   UNL     1       2.940   3.335  -1.146  0.00  0.00    -0.187 NA
ATOM     29  H   UNL     1       3.689   2.866  -1.546  0.00  0.00    +0.148 HD
BRANCH  28  30
ATOM     30  C   UNL     1       2.395   4.532  -1.790  0.00  0.00    +0.077 C 
ATOM     31  C   UNL     1       1.377   4.118  -2.856  0.00  0.00    +0.020 C 
ATOM     32  C   UNL     1       0.807   5.368  -3.529  0.00  0.00    +0.002 C 
ATOM     33  C   UNL     1       1.942   6.155  -4.187  0.00  0.00    +0.000 C 
ATOM     34  C   UNL     1       2.960   6.569  -3.122  0.00  0.00    +0.002 C 
ATOM     35  C   UNL     1       3.530   5.319  -2.448  0.00  0.00    +0.020 C 
ENDBRANCH  28  30
ENDBRANCH  25  28
ENDBRANCH   5  25
TORSDOF 8
