REMARK  Name = ZINC11306774
REMARK  10 active torsions:
REMARK  status: ('A' for Active; 'I' for Inactive)
REMARK    1  A    between atoms: C_1  and  C_2
REMARK    2  A    between atoms: C_2  and  O_3
REMARK    3  A    between atoms: O_3  and  C_4
REMARK    4  A    between atoms: C_4  and  C_6
REMARK    5  A    between atoms: C_7  and  C_21
REMARK    6  A    between atoms: C_12  and  C_14
REMARK    7  A    between atoms: C_21  and  S_22
REMARK    8  A    between atoms: S_22  and  C_23
REMARK    9  A    between atoms: N_27  and  C_28
REMARK   10  A    between atoms: C_31  and  C_34
REMARK                            x       y       z     vdW  Elec       q    Type
REMARK                         _______ _______ _______ _____ _____    ______ ____
ROOT
ATOM      1  C   UNL     1       5.055  -3.327  -1.222  0.00  0.00    +0.079 C 
ATOM      2  C   UNL     1       4.497  -2.905  -0.067  0.00  0.00    +0.034 C 
ATOM      3  N   UNL     1       4.686  -3.591   1.099  0.00  0.00    -0.272 N 
ATOM      4  C   UNL     1       5.423  -4.705   1.194  0.00  0.00    +0.304 C 
ATOM      5  O   UNL     1       5.533  -5.246   2.276  0.00  0.00    -0.252 OA
ATOM      6  N   UNL     1       6.046  -5.246   0.128  0.00  0.00    -0.288 N 
ATOM      7  C   UNL     1       5.905  -4.581  -1.178  0.00  0.00    +0.144 C 
ATOM      8  H   UNL     1       4.263  -3.252   1.903  0.00  0.00    +0.156 HD
ATOM      9  H   UNL     1       6.575  -6.054   0.219  0.00  0.00    +0.151 HD
ENDROOT
BRANCH   7  10
ATOM     10  C   UNL     1       7.285  -4.229  -1.672  0.00  0.00    -0.022 A 
ATOM     11  C   UNL     1       8.232  -3.746  -0.788  0.00  0.00    +0.007 A 
ATOM     12  C   UNL     1       9.499  -3.428  -1.239  0.00  0.00    +0.020 A 
ATOM     13  C   UNL     1       9.816  -3.583  -2.577  0.00  0.00    +0.041 A 
ATOM     14  C   UNL     1       8.866  -4.061  -3.462  0.00  0.00    +0.020 A 
ATOM     15  C   UNL     1       7.601  -4.384  -3.009  0.00  0.00    +0.007 A 
ATOM     16 CL   UNL     1      11.406  -3.178  -3.145  0.00  0.00    -0.084 Cl
ENDBRANCH   7  10
BRANCH   1  17
ATOM     17  C   UNL     1       4.856  -2.621  -2.432  0.00  0.00    +0.339 C 
ATOM     18  O   UNL     1       4.298  -1.540  -2.420  0.00  0.00    -0.245 OA
BRANCH  17  19
ATOM     19  O   UNL     1       5.284  -3.146  -3.598  0.00  0.00    -0.462 OA
BRANCH  19  21
ATOM     20  C   UNL     1       5.601  -3.129  -5.994  0.00  0.00    +0.048 C 
ATOM     21  C   UNL     1       5.050  -2.378  -4.780  0.00  0.00    +0.229 C 
ENDBRANCH  19  21
ENDBRANCH  17  19
ENDBRANCH   1  17
BRANCH   2  22
ATOM     22  C   UNL     1       3.649  -1.660  -0.065  0.00  0.00    +0.128 C 
BRANCH  22  23
ATOM     23  S   UNL     1       4.631  -0.261   0.529  0.00  0.00    -0.078 S 
BRANCH  23  24
ATOM     24  C   UNL     1       3.428   1.022   0.430  0.00  0.00    +0.214 A 
ATOM     25  N   UNL     1       2.183   0.899   0.023  0.00  0.00    -0.101 NA
ATOM     26  N   UNL     1       1.577   2.030   0.075  0.00  0.00    -0.022 NA
ATOM     27  N   UNL     1       2.371   2.948   0.510  0.00  0.00    -0.038 NA
ATOM     28  N   UNL     1       3.610   2.332   0.760  0.00  0.00    -0.187 N 
BRANCH  28  29
ATOM     29  C   UNL     1       4.779   2.935   1.244  0.00  0.00    +0.070 A 
ATOM     30  C   UNL     1       5.623   2.233   2.095  0.00  0.00    +0.028 A 
ATOM     31  C   UNL     1       6.776   2.828   2.567  0.00  0.00    +0.005 A 
ATOM     32  C   UNL     1       7.087   4.125   2.200  0.00  0.00    -0.050 A 
ATOM     33  C   UNL     1       6.246   4.828   1.357  0.00  0.00    +0.005 A 
ATOM     34  C   UNL     1       5.093   4.237   0.878  0.00  0.00    +0.028 A 
ATOM     35  C   UNL     1       8.343   4.773   2.721  0.00  0.00    +0.044 C 
ENDBRANCH  28  29
ENDBRANCH  23  24
ENDBRANCH  22  23
ENDBRANCH   2  22
TORSDOF 8
