REMARK  Name = ZINC50711424
REMARK  5 active torsions:
REMARK  status: ('A' for Active; 'I' for Inactive)
REMARK    1  A    between atoms: C_1  and  C_2
REMARK    2  A    between atoms: C_8  and  C_10
REMARK    3  A    between atoms: C_12  and  N_19
REMARK    4  A    between atoms: C_13  and  N_17
REMARK    5  A    between atoms: N_17  and  C_18
REMARK                            x       y       z     vdW  Elec       q    Type
REMARK                         _______ _______ _______ _____ _____    ______ ____
ROOT
ATOM      1  C   UNL     1       1.101  -0.979   3.541  0.00  0.00    +0.041 A 
ATOM      2  C   UNL     1       0.753  -0.821   4.885  0.00  0.00    +0.047 A 
ATOM      3  C   UNL     1       1.508  -1.423   5.866  0.00  0.00    +0.149 A 
ATOM      4  C   UNL     1       2.618  -2.189   5.520  0.00  0.00    +0.076 A 
ATOM      5  C   UNL     1       2.968  -2.348   4.181  0.00  0.00    +0.065 A 
ATOM      6  C   UNL     1       2.213  -1.753   3.196  0.00  0.00    +0.035 A 
ATOM      7 CL   UNL     1       4.354  -3.303   3.755  0.00  0.00    -0.082 Cl
ENDROOT
BRANCH   1  14
ATOM      8  C   UNL     1      -0.507   1.807   0.450  0.00  0.00    +0.028 C 
ATOM      9  C   UNL     1       0.126   0.455   0.113  0.00  0.00    +0.073 C 
ATOM     10  C   UNL     1       1.158   0.626  -1.020  0.00  0.00    +0.024 C 
ATOM     11  C   UNL     1       2.503   0.728  -0.253  0.00  0.00    +0.021 C 
ATOM     12  C   UNL     1       2.264  -0.249   0.925  0.00  0.00    +0.108 C 
ATOM     13  N   UNL     1       0.843  -0.068   1.286  0.00  0.00    -0.295 N 
ATOM     14  C   UNL     1       0.294  -0.334   2.488  0.00  0.00    +0.247 C 
ATOM     15  O   UNL     1      -0.867  -0.043   2.704  0.00  0.00    -0.270 OA
ENDBRANCH   1  14
BRANCH   4  16
ATOM     16  N   UNL     1       3.379  -2.796   6.514  0.00  0.00    -0.344 N 
ATOM     17  C   UNL     1       4.251  -3.925   6.181  0.00  0.00    +0.125 C 
ATOM     18  H   UNL     1       3.332  -2.472   7.427  0.00  0.00    +0.146 HD
ENDBRANCH   4  16
BRANCH   3  19
ATOM     19  N   UNL     1       1.140  -1.256   7.290  0.00  0.00    +0.058 N 
ATOM     20  O   UNL     1       0.127  -0.666   7.587  0.00  0.00    -0.126 OA
ATOM     21  O   UNL     1       1.852  -1.709   8.155  0.00  0.00    -0.126 OA
ENDBRANCH   3  19
TORSDOF 3
