REMARK  Name = ZINC05055742
REMARK  5 active torsions:
REMARK  status: ('A' for Active; 'I' for Inactive)
REMARK    1  A    between atoms: C_1  and  N_2
REMARK    2  A    between atoms: C_3  and  C_5
REMARK    3  A    between atoms: C_9  and  N_10
REMARK    4  A    between atoms: C_11  and  C_13
REMARK    5  A    between atoms: C_15  and  N_20
REMARK                            x       y       z     vdW  Elec       q    Type
REMARK                         _______ _______ _______ _____ _____    ______ ____
ROOT
ATOM      1  N   UNL     1      -4.966  -0.188   0.025  0.00  0.00    -0.275 N 
ATOM      2  C   UNL     1      -4.980   1.160   0.033  0.00  0.00    +0.250 C 
ATOM      3  O   UNL     1      -6.039   1.757   0.042  0.00  0.00    -0.270 OA
ATOM      4  H   UNL     1      -4.121  -0.664   0.019  0.00  0.00    +0.156 HD
ENDROOT
BRANCH   1   9
ATOM      5  C   UNL     1      -6.348  -2.264   0.016  0.00  0.00    +0.069 A 
ATOM      6  C   UNL     1      -7.725  -2.758   0.025  0.00  0.00    -0.023 A 
ATOM      7  C   UNL     1      -8.674  -1.804   0.036  0.00  0.00    -0.004 A 
ATOM      8  S   UNL     1      -7.775  -0.272   0.039  0.00  0.00    -0.077 S 
ATOM      9  C   UNL     1      -6.159  -0.892   0.028  0.00  0.00    +0.085 A 
ATOM     10  C   UNL     1     -10.060  -2.388   0.043  0.00  0.00    +0.043 C 
ATOM     11  C   UNL     1      -9.861  -3.858   0.472  0.00  0.00    +0.010 C 
ATOM     12  C   UNL     1      -8.411  -4.124   0.020  0.00  0.00    +0.037 C 
BRANCH   5  15
ATOM     13  C   UNL     1      -3.558  -4.523  -1.196  0.00  0.00    +0.128 C 
ATOM     14  N   UNL     1      -4.695  -3.600  -1.178  0.00  0.00    -0.314 N 
ATOM     15  C   UNL     1      -5.210  -3.188  -0.002  0.00  0.00    +0.246 C 
ATOM     16  O   UNL     1      -4.729  -3.582   1.044  0.00  0.00    -0.270 OA
ATOM     17  H   UNL     1      -5.078  -3.286  -2.012  0.00  0.00    +0.149 HD
ENDBRANCH   5  15
ENDBRANCH   1   9
BRANCH   2  18
ATOM     18  C   UNL     1      -3.708   1.912   0.030  0.00  0.00    +0.057 A 
ATOM     19  C   UNL     1      -2.490   1.229   0.021  0.00  0.00    +0.047 A 
ATOM     20  C   UNL     1      -1.306   1.936   0.019  0.00  0.00    +0.127 A 
ATOM     21  C   UNL     1      -1.323   3.321   0.032  0.00  0.00    +0.034 A 
ATOM     22  C   UNL     1      -2.525   4.004   0.037  0.00  0.00    +0.023 A 
ATOM     23  C   UNL     1      -3.718   3.309   0.039  0.00  0.00    +0.053 A 
ATOM     24 CL   UNL     1      -5.226   4.168   0.050  0.00  0.00    -0.083 Cl
BRANCH  20  25
ATOM     25  N   UNL     1      -0.014   1.214   0.009  0.00  0.00    +0.056 N 
ATOM     26  O   UNL     1       0.002  -0.004   0.002  0.00  0.00    -0.126 OA
ATOM     27  O   UNL     1       1.032   1.837   0.002  0.00  0.00    -0.126 OA
ENDBRANCH  20  25
ENDBRANCH   2  18
TORSDOF 4
