REMARK  Name = ZINC02970422
REMARK  9 active torsions:
REMARK  status: ('A' for Active; 'I' for Inactive)
REMARK    1  A    between atoms: C_1  and  C_2
REMARK    2  A    between atoms: C_4  and  C_34
REMARK    3  A    between atoms: N_8  and  S_9
REMARK    4  A    between atoms: S_9  and  C_12
REMARK    5  A    between atoms: C_15  and  N_18
REMARK    6  A    between atoms: C_19  and  C_21
REMARK    7  A    between atoms: C_21  and  S_22
REMARK    8  A    between atoms: S_22  and  C_23
REMARK    9  A    between atoms: C_24  and  C_32
REMARK                            x       y       z     vdW  Elec       q    Type
REMARK                         _______ _______ _______ _____ _____    ______ ____
ROOT
ATOM      1  C   UNL     1       1.201  -0.681  -0.028  0.00  0.00    +0.109 A 
ATOM      2  C   UNL     1       0.007  -0.000  -0.186  0.00  0.00    +0.030 A 
ATOM      3  C   UNL     1      -0.009   1.381  -0.174  0.00  0.00    +0.025 A 
ATOM      4  C   UNL     1       1.175   2.086  -0.003  0.00  0.00    +0.034 A 
ATOM      5  C   UNL     1       2.372   1.400   0.155  0.00  0.00    +0.025 A 
ATOM      6  C   UNL     1       2.381   0.019   0.142  0.00  0.00    +0.030 A 
ENDROOT
BRANCH   4   7
ATOM      7  N   UNL     1       1.162   3.485   0.009  0.00  0.00    -0.285 N 
ATOM      8  C   UNL     1       0.101   4.145   0.516  0.00  0.00    +0.227 C 
ATOM      9  O   UNL     1      -0.799   3.529   1.047  0.00  0.00    -0.275 OA
ATOM     10  H   UNL     1       1.916   3.981  -0.347  0.00  0.00    +0.155 HD
BRANCH   8  11
ATOM     11  C   UNL     1       0.033   5.647   0.422  0.00  0.00    +0.172 C 
BRANCH  11  12
ATOM     12  S   UNL     1      -1.500   6.231   1.186  0.00  0.00    -0.095 S 
BRANCH  12  13
ATOM     13  C   UNL     1      -1.323   7.967   0.942  0.00  0.00    +0.115 A 
ATOM     14  C   UNL     1      -2.324   8.844   1.398  0.00  0.00    +0.084 A 
ATOM     15  C   UNL     1      -2.156  10.216   1.190  0.00  0.00    +0.027 A 
ATOM     16  C   UNL     1      -1.011  10.654   0.545  0.00  0.00    -0.025 A 
ATOM     17  C   UNL     1      -0.068   9.733   0.123  0.00  0.00    +0.046 A 
ATOM     18  N   UNL     1      -0.247   8.439   0.335  0.00  0.00    -0.244 NA
ATOM     19  C   UNL     1       1.081  10.457  -0.551  0.00  0.00    +0.056 C 
ATOM     20  C   UNL     1       0.949  11.928  -0.106  0.00  0.00    +0.011 C 
ATOM     21  C   UNL     1      -0.561  12.053   0.186  0.00  0.00    +0.037 C 
BRANCH  14  22
ATOM     22  C   UNL     1      -3.490   8.341   2.060  0.00  0.00    +0.102 C 
ATOM     23  N   UNL     1      -4.415   7.942   2.585  0.00  0.00    -0.191 NA
ENDBRANCH  14  22
ENDBRANCH  12  13
ENDBRANCH  11  12
ENDBRANCH   8  11
ENDBRANCH   4   7
BRANCH   1  24
ATOM     24  S   UNL     1       1.217  -2.442  -0.044  0.00  0.00    +0.075 S 
ATOM     25  O   UNL     1       2.379  -2.844   0.668  0.00  0.00    -0.150 OA
ATOM     26  O   UNL     1      -0.088  -2.864   0.328  0.00  0.00    -0.150 OA
BRANCH  24  34
ATOM     27  C   UNL     1       5.501  -0.380  -1.746  0.00  0.00    +0.066 C 
ATOM     28  C   UNL     1       4.578  -1.409  -2.345  0.00  0.00    +0.044 A 
ATOM     29  C   UNL     1       4.912  -2.047  -3.529  0.00  0.00    +0.046 A 
ATOM     30  C   UNL     1       4.035  -2.988  -4.046  0.00  0.00    +0.044 A 
ATOM     31  N   UNL     1       2.912  -3.247  -3.398  0.00  0.00    -0.219 NA
ATOM     32  C   UNL     1       2.622  -2.620  -2.268  0.00  0.00    +0.235 A 
ATOM     33  N   UNL     1       3.436  -1.712  -1.750  0.00  0.00    -0.219 NA
ATOM     34  N   UNL     1       1.438  -2.916  -1.615  0.00  0.00    -0.184 N 
ATOM     35  C   UNL     1       4.358  -3.706  -5.331  0.00  0.00    +0.066 C 
ATOM     36  H   UNL     1       0.737  -3.401  -2.079  0.00  0.00    +0.177 HD
ENDBRANCH  24  34
ENDBRANCH   1  24
TORSDOF 7
