REMARK  Name = ZINC12805854
REMARK  8 active torsions:
REMARK  status: ('A' for Active; 'I' for Inactive)
REMARK    1  A    between atoms: C_1  and  N_2
REMARK    2  A    between atoms: N_2  and  C_3
REMARK    3  A    between atoms: N_2  and  S_4
REMARK    4  A    between atoms: S_4  and  C_7
REMARK    5  A    between atoms: C_12  and  C_13
REMARK    6  A    between atoms: C_13  and  N_14
REMARK    7  A    between atoms: C_15  and  C_17
REMARK    8  A    between atoms: N_20  and  C_22
REMARK                            x       y       z     vdW  Elec       q    Type
REMARK                         _______ _______ _______ _____ _____    ______ ____
ROOT
ATOM      1  N   UNL     1      -2.375   1.411   0.163  0.00  0.00    -0.306 N 
ATOM      2  C   UNL     1      -1.121   1.904   0.180  0.00  0.00    +0.265 C 
ATOM      3  O   UNL     1      -0.937   3.101   0.074  0.00  0.00    -0.268 OA
ATOM      4  H   UNL     1      -2.519   0.452   0.174  0.00  0.00    +0.149 HD
ENDROOT
BRANCH   2   5
ATOM      5  C   UNL     1       0.030   0.990   0.328  0.00  0.00    +0.151 A 
ATOM      6  C   UNL     1       1.396   1.356   0.358  0.00  0.00    +0.006 A 
ATOM      7  C   UNL     1       2.082   0.202   0.502  0.00  0.00    +0.049 A 
ATOM      8  N   UNL     1       1.165  -0.802   0.555  0.00  0.00    -0.236 N 
ATOM      9  N   UNL     1      -0.022  -0.322   0.452  0.00  0.00    -0.161 NA
ATOM     10  C   UNL     1       3.568   0.481   0.547  0.00  0.00    +0.056 C 
ATOM     11  C   UNL     1       3.724   1.910  -0.017  0.00  0.00    +0.011 C 
ATOM     12  C   UNL     1       2.342   2.530   0.290  0.00  0.00    +0.040 C 
BRANCH   8  13
ATOM     13  C   UNL     1       1.471  -2.162   0.700  0.00  0.00    +0.066 A 
ATOM     14  C   UNL     1       2.612  -2.686   0.107  0.00  0.00    +0.028 A 
ATOM     15  C   UNL     1       2.914  -4.025   0.257  0.00  0.00    +0.002 A 
ATOM     16  C   UNL     1       2.075  -4.847   0.987  0.00  0.00    +0.000 A 
ATOM     17  C   UNL     1       0.935  -4.330   1.574  0.00  0.00    +0.002 A 
ATOM     18  C   UNL     1       0.631  -2.990   1.432  0.00  0.00    +0.028 A 
ENDBRANCH   8  13
ENDBRANCH   2   5
BRANCH   1  19
ATOM     19  C   UNL     1      -3.520   2.324   0.126  0.00  0.00    +0.141 C 
BRANCH  19  25
ATOM     20  C   UNL     1      -5.244   1.105   1.471  0.00  0.00    +0.110 A 
ATOM     21  C   UNL     1      -6.416   0.378   1.570  0.00  0.00    +0.029 A 
ATOM     22  C   UNL     1      -7.142   0.079   0.433  0.00  0.00    +0.002 A 
ATOM     23  C   UNL     1      -6.696   0.506  -0.804  0.00  0.00    +0.000 A 
ATOM     24  C   UNL     1      -5.527   1.237  -0.903  0.00  0.00    +0.007 A 
ATOM     25  C   UNL     1      -4.798   1.532   0.234  0.00  0.00    -0.004 A 
BRANCH  20  26
ATOM     26  S   UNL     1      -4.318   1.487   2.921  0.00  0.00    +0.061 S 
ATOM     27  O   UNL     1      -2.983   1.068   2.673  0.00  0.00    -0.153 OA
ATOM     28  O   UNL     1      -4.644   2.825   3.270  0.00  0.00    -0.153 OA
BRANCH  26  30
ATOM     29  C   UNL     1      -4.243  -0.750   4.440  0.00  0.00    +0.131 C 
ATOM     30  N   UNL     1      -4.898   0.526   4.139  0.00  0.00    -0.183 NA
ATOM     31  C   UNL     1      -6.065   0.951   4.915  0.00  0.00    +0.131 C 
ENDBRANCH  26  30
ENDBRANCH  20  26
ENDBRANCH  19  25
ENDBRANCH   1  19
TORSDOF 6
