REMARK  Name = ZINC00055320
REMARK  4 active torsions:
REMARK  status: ('A' for Active; 'I' for Inactive)
REMARK    1  A    between atoms: C_6  and  C_7
REMARK    2  A    between atoms: C_8  and  N_18
REMARK    3  A    between atoms: N_9  and  C_12
REMARK    4  A    between atoms: N_18  and  C_19
REMARK                            x       y       z     vdW  Elec       q    Type
REMARK                         _______ _______ _______ _____ _____    ______ ____
ROOT
ATOM      1  C   UNL     1       1.294   5.287   0.607  0.00  0.00    +0.152 A 
ATOM      2  C   UNL     1       1.305   5.582  -0.745  0.00  0.00    +0.147 A 
ATOM      3  N   UNL     1       2.609   5.548  -1.134  0.00  0.00    -0.227 N 
ATOM      4  N   UNL     1       3.360   5.220   0.004  0.00  0.00    -0.063 NA
ATOM      5  N   UNL     1       2.559   5.075   1.001  0.00  0.00    -0.126 NA
ENDROOT
BRANCH   1  11
ATOM      6  C   UNL     1      -0.127   4.313   2.473  0.00  0.00    +0.051 A 
ATOM      7  C   UNL     1      -1.376   4.590   3.028  0.00  0.00    +0.135 A 
ATOM      8  N   UNL     1      -1.899   5.607   2.391  0.00  0.00    -0.182 NA
ATOM      9  N   UNL     1      -0.997   6.027   1.405  0.00  0.00    -0.275 N 
ATOM     10  H   UNL     1      -1.129   6.787   0.770  0.00  0.00    +0.189 HD
ATOM     11  C   UNL     1       0.094   5.212   1.467  0.00  0.00    +0.089 A 
ENDBRANCH   1  11
BRANCH   3  12
ATOM     12  C   UNL     1       3.127   5.798  -2.481  0.00  0.00    +0.111 C 
ATOM     13  C   UNL     1       3.774   4.522  -3.024  0.00  0.00    +0.027 C 
ATOM     14  C   UNL     1       4.315   4.783  -4.431  0.00  0.00    +0.002 C 
ATOM     15  C   UNL     1       5.358   5.901  -4.377  0.00  0.00    +0.000 C 
ATOM     16  C   UNL     1       4.711   7.176  -3.835  0.00  0.00    +0.002 C 
ATOM     17  C   UNL     1       4.170   6.915  -2.428  0.00  0.00    +0.027 C 
ENDBRANCH   3  12
BRANCH   2  18
ATOM     18  N   UNL     1       0.205   5.861  -1.544  0.00  0.00    -0.325 N 
ATOM     19  H   UNL     1      -0.411   6.521  -1.094  0.00  0.00    +0.148 HD
BRANCH  18  20
ATOM     20  C   UNL     1      -0.513   4.630  -1.900  0.00  0.00    +0.072 C 
ATOM     21  C   UNL     1       0.096   4.035  -3.172  0.00  0.00    +0.022 C 
ATOM     22  C   UNL     1      -0.651   2.752  -3.543  0.00  0.00    +0.002 C 
ATOM     23  C   UNL     1      -2.127   3.074  -3.787  0.00  0.00    +0.000 C 
ATOM     24  C   UNL     1      -2.736   3.670  -2.515  0.00  0.00    +0.002 C 
ATOM     25  C   UNL     1      -1.988   4.952  -2.144  0.00  0.00    +0.022 C 
ENDBRANCH  18  20
ENDBRANCH   2  18
TORSDOF 4
