REMARK  Name = ZINC36591196
REMARK  15 active torsions:
REMARK  status: ('A' for Active; 'I' for Inactive)
REMARK    1  A    between atoms: C_1  and  C_2
REMARK    2  A    between atoms: C_2  and  C_3
REMARK    3  A    between atoms: C_3  and  C_4
REMARK    4  A    between atoms: C_4  and  N_5
REMARK    5  A    between atoms: C_6  and  C_8
REMARK    6  A    between atoms: C_8  and  C_10
REMARK    7  A    between atoms: C_8  and  N_20
REMARK    8  A    between atoms: C_12  and  N_17
REMARK    9  A    between atoms: N_20  and  C_33
REMARK   10  A    between atoms: C_21  and  C_23
REMARK   11  A    between atoms: C_23  and  N_24
REMARK   12  A    between atoms: C_25  and  C_27
REMARK   13  A    between atoms: C_33  and  C_34
REMARK   14  A    between atoms: C_33  and  C_35
REMARK   15  A    between atoms: C_33  and  C_36
REMARK                            x       y       z     vdW  Elec       q    Type
REMARK                         _______ _______ _______ _____ _____    ______ ____
ROOT
ATOM      1  C   UNL     1      -3.964  -3.607   0.200  0.00  0.00    +0.194 C 
ENDROOT
BRANCH   1   2
ATOM      2  C   UNL     1      -3.441  -3.451  -1.205  0.00  0.00    +0.002 A 
ATOM      3  C   UNL     1      -4.055  -4.117  -2.249  0.00  0.00    +0.040 A 
ATOM      4  C   UNL     1      -3.575  -3.975  -3.537  0.00  0.00    +0.127 A 
ATOM      5  C   UNL     1      -2.481  -3.167  -3.783  0.00  0.00    +0.034 A 
ATOM      6  C   UNL     1      -1.866  -2.500  -2.740  0.00  0.00    +0.022 A 
ATOM      7  C   UNL     1      -2.350  -2.638  -1.451  0.00  0.00    +0.047 A 
ATOM      8 CL   UNL     1      -1.583  -1.795  -0.141  0.00  0.00    -0.083 Cl
BRANCH   4   9
ATOM      9  N   UNL     1      -4.233  -4.689  -4.655  0.00  0.00    +0.056 N 
ATOM     10  O   UNL     1      -5.190  -5.396  -4.440  0.00  0.00    -0.126 OA
ATOM     11  O   UNL     1      -3.813  -4.565  -5.782  0.00  0.00    -0.126 OA
ENDBRANCH   4   9
ENDBRANCH   1   2
BRANCH   1  13
ATOM     12  N   UNL     1      -4.483  -1.204   0.474  0.00  0.00    -0.313 N 
ATOM     13  C   UNL     1      -4.916  -2.479   0.509  0.00  0.00    +0.238 C 
ATOM     14  O   UNL     1      -6.071  -2.720   0.789  0.00  0.00    -0.273 OA
ATOM     15  H   UNL     1      -3.559  -1.011   0.251  0.00  0.00    +0.149 HD
BRANCH  12  16
ATOM     16  C   UNL     1      -5.408  -0.108   0.775  0.00  0.00    +0.104 C 
BRANCH  16  17
ATOM     17  C   UNL     1      -4.669   1.228   0.666  0.00  0.00    +0.018 C 
BRANCH  17  19
ATOM     18  C   UNL     1      -4.896   3.707   0.871  0.00  0.00    +0.004 C 
ATOM     19  C   UNL     1      -5.635   2.372   0.980  0.00  0.00    -0.002 C 
ENDBRANCH  17  19
ENDBRANCH  16  17
ENDBRANCH  12  16
ENDBRANCH   1  13
BRANCH   1  20
ATOM     20  N   UNL     1      -4.668  -4.886   0.320  0.00  0.00    -0.280 N 
ATOM     21  C   UNL     1      -5.828  -5.082  -0.336  0.00  0.00    +0.234 C 
ATOM     22  O   UNL     1      -6.331  -4.173  -0.963  0.00  0.00    -0.274 OA
BRANCH  20  23
ATOM     23  C   UNL     1      -4.109  -5.953   1.154  0.00  0.00    +0.030 C 
ATOM     24  C   UNL     1      -3.001  -5.381   2.040  0.00  0.00    +0.031 C 
ATOM     25  C   UNL     1      -5.212  -6.543   2.035  0.00  0.00    +0.031 C 
ATOM     26  C   UNL     1      -3.530  -7.050   0.258  0.00  0.00    +0.031 C 
ENDBRANCH  20  23
BRANCH  21  27
ATOM     27  C   UNL     1      -6.502  -6.429  -0.291  0.00  0.00    +0.200 C 
BRANCH  27  28
ATOM     28  N   UNL     1      -7.655  -6.429  -1.194  0.00  0.00    -0.303 N 
ATOM     29  C   UNL     1      -8.414  -7.535  -1.318  0.00  0.00    +0.244 C 
ATOM     30  O   UNL     1      -8.142  -8.534  -0.680  0.00  0.00    -0.270 OA
ATOM     31  H   UNL     1      -7.873  -5.632  -1.703  0.00  0.00    +0.150 HD
BRANCH  29  32
ATOM     32  C   UNL     1      -9.578  -7.535  -2.230  0.00  0.00    +0.037 A 
ATOM     33  C   UNL     1      -9.890  -6.393  -2.968  0.00  0.00    +0.013 A 
ATOM     34  C   UNL     1     -10.978  -6.399  -3.817  0.00  0.00    +0.001 A 
ATOM     35  C   UNL     1     -11.758  -7.535  -3.938  0.00  0.00    +0.000 A 
ATOM     36  C   UNL     1     -11.454  -8.671  -3.208  0.00  0.00    +0.001 A 
ATOM     37  C   UNL     1     -10.366  -8.680  -2.360  0.00  0.00    +0.013 A 
ENDBRANCH  29  32
ENDBRANCH  27  28
ENDBRANCH  21  27
ENDBRANCH   1  20
TORSDOF 11
