REMARK  Name = ZINC13073774
REMARK  11 active torsions:
REMARK  status: ('A' for Active; 'I' for Inactive)
REMARK    1  A    between atoms: C_1  and  C_2
REMARK    2  A    between atoms: C_2  and  C_3
REMARK    3  A    between atoms: C_2  and  N_4
REMARK    4  A    between atoms: C_5  and  C_20
REMARK    5  A    between atoms: N_7  and  C_10
REMARK    6  A    between atoms: C_10  and  N_53
REMARK    7  A    between atoms: C_11  and  N_53
REMARK    8  A    between atoms: C_12  and  C_13
REMARK    9  A    between atoms: C_12  and  N_53
REMARK   10  A    between atoms: C_23  and  O_26
REMARK   11  A    between atoms: O_26  and  C_27
REMARK                            x       y       z     vdW  Elec       q    Type
REMARK                         _______ _______ _______ _____ _____    ______ ____
ROOT
ATOM      1  N   UNL     1       1.030   6.372   4.931  0.00  0.00    -0.301 N 
ATOM      2  C   UNL     1      -0.317   6.569   4.700  0.00  0.00    +0.163 A 
ATOM      3  N   UNL     1      -0.564   6.315   3.445  0.00  0.00    -0.152 NA
ATOM      4  N   UNL     1       0.639   5.934   2.835  0.00  0.00    -0.257 N 
ATOM      5  C   UNL     1       1.605   5.983   3.776  0.00  0.00    +0.177 A 
ATOM      6  S   UNL     1       3.261   5.617   3.544  0.00  0.00    -0.011 S 
ENDROOT
BRANCH   2   7
ATOM      7  C   UNL     1      -1.312   7.001   5.705  0.00  0.00    +0.019 A 
ATOM      8  C   UNL     1      -0.934   7.856   6.741  0.00  0.00    +0.015 A 
ATOM      9  C   UNL     1      -1.865   8.261   7.674  0.00  0.00    +0.046 A 
ATOM     10  C   UNL     1      -3.176   7.810   7.589  0.00  0.00    +0.120 A 
ATOM     11  C   UNL     1      -3.555   6.955   6.563  0.00  0.00    +0.046 A 
ATOM     12  C   UNL     1      -2.631   6.550   5.624  0.00  0.00    +0.015 A 
BRANCH  10  13
ATOM     13  O   UNL     1      -4.090   8.207   8.512  0.00  0.00    -0.495 OA
ATOM     14  C   UNL     1      -3.632   9.088   9.541  0.00  0.00    +0.277 C 
ENDBRANCH  10  13
ENDBRANCH   2   7
BRANCH   1  16
ATOM     15  C   UNL     1       2.468   5.274   6.576  0.00  0.00    +0.030 C 
ATOM     16  C   UNL     1       1.717   6.556   6.212  0.00  0.00    +0.085 C 
ATOM     17  C   UNL     1       2.710   7.714   6.097  0.00  0.00    +0.030 C 
ENDBRANCH   1  16
BRANCH   4  18
ATOM     18  C   UNL     1       0.817   5.559   1.430  0.00  0.00    +0.072 C 
BRANCH  18  20
ATOM     19  C   UNL     1       1.688   3.367   1.980  0.00  0.00    -0.093 C 
ATOM     20  N   UNL     1       0.604   4.102   1.295  0.00  0.00    +0.394 N 
ATOM     21  H   UNL     1      -0.293   3.855   1.730  0.00  0.00    -0.079 HD
BRANCH  20  22
ATOM     22  C   UNL     1       0.564   3.728  -0.134  0.00  0.00    -0.041 C 
BRANCH  22  23
ATOM     23  C   UNL     1       0.128   2.290  -0.247  0.00  0.00    -0.064 A 
ATOM     24  C   UNL     1      -1.216   1.980  -0.341  0.00  0.00    +0.003 A 
ATOM     25  C   UNL     1      -1.616   0.661  -0.446  0.00  0.00    +0.020 A 
ATOM     26  C   UNL     1      -0.671  -0.349  -0.457  0.00  0.00    +0.041 A 
ATOM     27  C   UNL     1       0.674  -0.039  -0.363  0.00  0.00    +0.020 A 
ATOM     28  C   UNL     1       1.073   1.280  -0.258  0.00  0.00    +0.003 A 
ATOM     29 CL   UNL     1      -1.173  -2.006  -0.588  0.00  0.00    -0.084 Cl
ENDBRANCH  22  23
ENDBRANCH  20  22
ENDBRANCH  18  20
ENDBRANCH   4  18
TORSDOF 7
