REMARK  Name = ZINC35481975
REMARK  5 active torsions:
REMARK  status: ('A' for Active; 'I' for Inactive)
REMARK    1  A    between atoms: C_1  and  C_2
REMARK    2  A    between atoms: C_2  and  C_3
REMARK    3  A    between atoms: C_2  and  N_4
REMARK    4  A    between atoms: C_8  and  C_17
REMARK    5  A    between atoms: C_19  and  C_22
REMARK                            x       y       z     vdW  Elec       q    Type
REMARK                         _______ _______ _______ _____ _____    ______ ____
ROOT
ATOM      1  N   UNL     1       0.711  -0.489   1.189  0.00  0.00    -0.300 N 
ATOM      2  C   UNL     1       0.027  -1.220   2.154  0.00  0.00    +0.069 A 
ATOM      3  C   UNL     1      -1.329  -1.485   1.983  0.00  0.00    +0.028 A 
ATOM      4  C   UNL     1      -2.019  -2.207   2.931  0.00  0.00    +0.014 A 
ATOM      5  C   UNL     1      -1.361  -2.679   4.068  0.00  0.00    +0.025 A 
ATOM      6  C   UNL     1      -0.007  -2.418   4.246  0.00  0.00    +0.039 A 
ATOM      7  C   UNL     1       0.690  -1.690   3.291  0.00  0.00    +0.067 A 
ATOM      8  N   UNL     1       2.046  -1.435   3.476  0.00  0.00    -0.316 N 
ATOM      9  H   UNL     1       2.498  -1.766   4.268  0.00  0.00    +0.169 HD
ATOM     10  C   UNL     1       2.733  -0.728   2.555  0.00  0.00    +0.314 A 
ATOM     11  O   UNL     1       3.916  -0.502   2.712  0.00  0.00    -0.262 OA
ATOM     12  C   UNL     1       2.025  -0.231   1.340  0.00  0.00    +0.317 A 
ATOM     13  O   UNL     1       2.627   0.403   0.496  0.00  0.00    -0.262 OA
ENDROOT
BRANCH   5  14
ATOM     14  C   UNL     1      -2.108  -3.456   5.088  0.00  0.00    +0.202 A 
ATOM     15  N   UNL     1      -3.410  -3.775   5.028  0.00  0.00    -0.187 NA
ATOM     16  C   UNL     1      -3.751  -4.468   6.090  0.00  0.00    +0.259 A 
ATOM     17  O   UNL     1      -2.662  -4.612   6.865  0.00  0.00    -0.332 OA
ATOM     18  N   UNL     1      -1.601  -3.950   6.192  0.00  0.00    -0.056 NA
BRANCH  16  19
ATOM     19  C   UNL     1      -5.098  -4.999   6.382  0.00  0.00    +0.040 A 
ATOM     20  C   UNL     1      -6.146  -4.782   5.486  0.00  0.00    +0.016 A 
ATOM     21  C   UNL     1      -7.402  -5.279   5.763  0.00  0.00    +0.039 A 
ATOM     22  C   UNL     1      -7.625  -5.993   6.931  0.00  0.00    +0.123 A 
ATOM     23  C   UNL     1      -6.588  -6.211   7.825  0.00  0.00    +0.039 A 
ATOM     24  C   UNL     1      -5.327  -5.723   7.554  0.00  0.00    +0.016 A 
ATOM     25  F   UNL     1      -8.857  -6.477   7.199  0.00  0.00    -0.205 F 
ENDBRANCH  16  19
ENDBRANCH   5  14
BRANCH   1  27
ATOM     26  C   UNL     1       0.091   1.522  -0.057  0.00  0.00    +0.030 C 
ATOM     27  C   UNL     1       0.002  -0.004   0.002  0.00  0.00    +0.085 C 
ATOM     28  C   UNL     1       0.641  -0.601  -1.253  0.00  0.00    +0.030 C 
ENDBRANCH   1  27
TORSDOF 3
