REMARK  Name = ZINC07436755
REMARK  9 active torsions:
REMARK  status: ('A' for Active; 'I' for Inactive)
REMARK    1  A    between atoms: C_1  and  C_2
REMARK    2  A    between atoms: C_2  and  O_3
REMARK    3  A    between atoms: O_3  and  C_4
REMARK    4  A    between atoms: C_4  and  C_6
REMARK    5  A    between atoms: C_12  and  C_13
REMARK    6  A    between atoms: C_12  and  N_51
REMARK    7  A    between atoms: N_15  and  C_16
REMARK    8  A    between atoms: C_21  and  C_22
REMARK    9  A    between atoms: C_22  and  C_24
REMARK                            x       y       z     vdW  Elec       q    Type
REMARK                         _______ _______ _______ _____ _____    ______ ____
ROOT
ATOM      1  C   UNL     1      -0.814   1.550  -8.521  0.00  0.00    +0.201 C 
ATOM      2  O   UNL     1      -1.897   2.093  -8.470  0.00  0.00    -0.278 OA
ATOM      3  N   UNL     1      -0.390   1.000  -9.677  0.00  0.00    -0.286 N 
ATOM      4  H   UNL     1       0.438   0.494  -9.698  0.00  0.00    +0.155 HD
ENDROOT
BRANCH   3   5
ATOM      5  C   UNL     1      -1.139   1.159 -10.840  0.00  0.00    +0.048 A 
ATOM      6  C   UNL     1      -2.519   1.039 -10.799  0.00  0.00    +0.073 A 
ATOM      7  C   UNL     1      -3.267   1.197 -11.956  0.00  0.00    +0.168 A 
ATOM      8  C   UNL     1      -2.633   1.478 -13.171  0.00  0.00    +0.167 A 
ATOM      9  C   UNL     1      -1.262   1.600 -13.225  0.00  0.00    +0.062 A 
ATOM     10  C   UNL     1      -0.498   1.447 -12.059  0.00  0.00    +0.042 A 
ATOM     11  O   UNL     1      -3.587   1.584 -14.143  0.00  0.00    -0.453 OA
ATOM     12  C   UNL     1      -4.764   0.962 -13.595  0.00  0.00    +0.466 C 
ATOM     13  O   UNL     1      -4.611   1.129 -12.173  0.00  0.00    -0.453 OA
BRANCH  10  14
ATOM     14  C   UNL     1       0.959   1.581 -12.110  0.00  0.00    +0.162 C 
ATOM     15  O   UNL     1       1.626   1.333 -11.127  0.00  0.00    -0.292 OA
ATOM     16  C   UNL     1       1.630   2.026 -13.384  0.00  0.00    +0.091 C 
ENDBRANCH  10  14
ENDBRANCH   3   5
BRANCH   1  17
ATOM     17  C   UNL     1       0.058   1.491  -7.294  0.00  0.00    +0.019 C 
BRANCH  17  23
ATOM     18  C   UNL     1      -1.337   4.488  -5.492  0.00  0.00    +0.081 C 
ATOM     19  C   UNL     1      -0.667   4.276  -4.131  0.00  0.00    +0.011 C 
ATOM     20  C   UNL     1      -0.624   2.777  -3.821  0.00  0.00    -0.018 C 
ATOM     21  C   UNL     1       0.127   2.050  -4.939  0.00  0.00    -0.078 C 
ATOM     22  C   UNL     1      -0.565   3.712  -6.562  0.00  0.00    -0.064 C 
ATOM     23  N   UNL     1      -0.582   2.275  -6.218  0.00  0.00    +0.386 N 
ATOM     24  H   UNL     1      -1.557   1.968  -6.116  0.00  0.00    -0.081 HD
BRANCH  18  25
ATOM     25  C   UNL     1      -1.330   5.957  -5.832  0.00  0.00    +0.308 C 
ATOM     26  O   UNL     1      -0.766   6.343  -6.828  0.00  0.00    -0.251 OA
BRANCH  25  27
ATOM     27  O   UNL     1      -1.950   6.835  -5.028  0.00  0.00    -0.465 OA
BRANCH  27  29
ATOM     28  C   UNL     1      -2.659   9.075  -4.388  0.00  0.00    +0.048 C 
ATOM     29  C   UNL     1      -1.903   8.232  -5.418  0.00  0.00    +0.229 C 
ENDBRANCH  27  29
ENDBRANCH  25  27
ENDBRANCH  18  25
ENDBRANCH  17  23
ENDBRANCH   1  17
TORSDOF 7
