REMARK  Name = ZINC13500632
REMARK  11 active torsions:
REMARK  status: ('A' for Active; 'I' for Inactive)
REMARK    1  A    between atoms: C_1  and  C_2
REMARK    2  A    between atoms: C_9  and  C_14
REMARK    3  A    between atoms: C_14  and  N_69
REMARK    4  A    between atoms: C_15  and  N_69
REMARK    5  A    between atoms: C_20  and  C_22
REMARK    6  A    between atoms: C_20  and  C_35
REMARK    7  A    between atoms: C_20  and  N_69
REMARK    8  A    between atoms: N_26  and  C_27
REMARK    9  A    between atoms: C_27  and  C_28
REMARK   10  A    between atoms: C_35  and  C_36
REMARK   11  A    between atoms: C_35  and  C_37
REMARK                            x       y       z     vdW  Elec       q    Type
REMARK                         _______ _______ _______ _____ _____    ______ ____
ROOT
ATOM      1  N   UNL     1      -0.453   0.881   1.312  0.00  0.00    +0.391 N 
ATOM      2  H   UNL     1      -0.233   1.738   1.832  0.00  0.00    -0.080 HD
ENDROOT
BRANCH   1   3
ATOM      3  C   UNL     1       0.566   0.682   0.260  0.00  0.00    -0.067 C 
ATOM      4  C   UNL     1       0.214   1.512  -1.000  0.00  0.00    -0.015 C 
ATOM      5  C   UNL     1       1.593   1.705  -1.679  0.00  0.00    -0.002 C 
ATOM      6  C   UNL     1       2.568   1.914  -0.501  0.00  0.00    -0.002 C 
ATOM      7  C   UNL     1       1.915   1.264   0.731  0.00  0.00    -0.015 C 
ENDBRANCH   1   3
BRANCH   1   8
ATOM      8  C   UNL     1      -0.444  -0.264   2.246  0.00  0.00    -0.036 C 
BRANCH   8  17
ATOM      9  C   UNL     1       3.705   1.662   8.136  0.00  0.00    +0.044 C 
ATOM     10  C   UNL     1       3.553   0.974   6.804  0.00  0.00    -0.050 A 
ATOM     11  C   UNL     1       4.639   0.315   6.243  0.00  0.00    +0.005 A 
ATOM     12  C   UNL     1       4.523  -0.320   5.025  0.00  0.00    +0.026 A 
ATOM     13  C   UNL     1       3.306  -0.302   4.350  0.00  0.00    +0.049 A 
ATOM     14  C   UNL     1       2.208   0.367   4.923  0.00  0.00    -0.001 A 
ATOM     15  C   UNL     1       2.349   1.005   6.160  0.00  0.00    +0.013 A 
ATOM     16  C   UNL     1       0.934   0.384   4.202  0.00  0.00    +0.017 A 
ATOM     17  C   UNL     1       0.855  -0.257   3.010  0.00  0.00    +0.001 A 
ATOM     18  C   UNL     1       1.986  -0.914   2.480  0.00  0.00    +0.251 A 
ATOM     19  O   UNL     1       1.895  -1.480   1.405  0.00  0.00    -0.268 OA
ATOM     20  N   UNL     1       3.162  -0.930   3.132  0.00  0.00    -0.322 N 
ATOM     21  H   UNL     1       3.920  -1.391   2.739  0.00  0.00    +0.169 HD
ENDBRANCH   8  17
ENDBRANCH   1   8
BRANCH   1  22
ATOM     22  C   UNL     1      -1.791   1.022   0.698  0.00  0.00    +0.006 C 
BRANCH  22  23
ATOM     23  C   UNL     1      -2.082  -0.146  -0.208  0.00  0.00    +0.139 A 
ATOM     24  N   UNL     1      -1.659  -1.377  -0.059  0.00  0.00    -0.115 NA
ATOM     25  N   UNL     1      -2.120  -2.078  -1.037  0.00  0.00    -0.023 NA
ATOM     26  N   UNL     1      -2.827  -1.325  -1.806  0.00  0.00    -0.044 NA
ATOM     27  N   UNL     1      -2.832  -0.128  -1.326  0.00  0.00    -0.226 N 
BRANCH  27  28
ATOM     28  C   UNL     1      -3.522   1.034  -1.893  0.00  0.00    +0.182 C 
BRANCH  28  29
ATOM     29  C   UNL     1      -2.667   1.648  -2.971  0.00  0.00    -0.026 A 
ATOM     30  C   UNL     1      -1.875   2.744  -2.684  0.00  0.00    +0.008 A 
ATOM     31  C   UNL     1      -1.087   3.306  -3.671  0.00  0.00    +0.038 A 
ATOM     32  C   UNL     1      -1.100   2.777  -4.950  0.00  0.00    +0.123 A 
ATOM     33  C   UNL     1      -1.898   1.682  -5.238  0.00  0.00    +0.038 A 
ATOM     34  C   UNL     1      -2.681   1.119  -4.248  0.00  0.00    +0.008 A 
ATOM     35  F   UNL     1      -0.334   3.328  -5.917  0.00  0.00    -0.205 F 
ENDBRANCH  28  29
ENDBRANCH  27  28
ENDBRANCH  22  23
BRANCH  22  36
ATOM     36  C   UNL     1      -2.844   1.083   1.806  0.00  0.00    -0.024 C 
ATOM     37  C   UNL     1      -2.465   2.172   2.811  0.00  0.00    +0.006 C 
ATOM     38  C   UNL     1      -4.209   1.404   1.195  0.00  0.00    +0.006 C 
ENDBRANCH  22  36
ENDBRANCH   1  22
TORSDOF 8
