REMARK  Name = ZINC19630440
REMARK  10 active torsions:
REMARK  status: ('A' for Active; 'I' for Inactive)
REMARK    1  A    between atoms: C_1  and  C_2
REMARK    2  A    between atoms: C_5  and  N_9
REMARK    3  A    between atoms: C_6  and  C_8
REMARK    4  A    between atoms: N_9  and  S_10
REMARK    5  A    between atoms: S_10  and  C_13
REMARK    6  A    between atoms: C_16  and  N_22
REMARK    7  A    between atoms: C_17  and  N_19
REMARK    8  A    between atoms: N_22  and  N_23
REMARK    9  A    between atoms: C_24  and  C_25
REMARK   10  A    between atoms: C_28  and  N_31
REMARK                            x       y       z     vdW  Elec       q    Type
REMARK                         _______ _______ _______ _____ _____    ______ ____
ROOT
ATOM      1  C   UNL     1       1.415   2.987   1.219  0.00  0.00    +0.111 A 
ATOM      2  C   UNL     1       0.937   4.284   1.267  0.00  0.00    +0.031 A 
ATOM      3  C   UNL     1       1.081   5.032   2.418  0.00  0.00    +0.029 A 
ATOM      4  C   UNL     1       1.718   4.484   3.526  0.00  0.00    +0.079 A 
ATOM      5  C   UNL     1       2.202   3.183   3.472  0.00  0.00    +0.150 A 
ATOM      6  C   UNL     1       2.048   2.438   2.319  0.00  0.00    +0.063 A 
ENDROOT
BRANCH   1   7
ATOM      7  S   UNL     1       1.222   2.034  -0.251  0.00  0.00    +0.072 S 
ATOM      8  O   UNL     1       2.241   1.044  -0.229  0.00  0.00    -0.150 OA
ATOM      9  O   UNL     1       1.081   2.959  -1.320  0.00  0.00    -0.150 OA
BRANCH   7  10
ATOM     10  N   UNL     1      -0.221   1.231  -0.127  0.00  0.00    -0.216 N 
ATOM     11  H   UNL     1      -0.241   0.131  -0.143  0.00  0.00    +0.174 HD
BRANCH  10  16
ATOM     12  C   UNL     1      -5.058   4.148   0.375  0.00  0.00    +0.044 C 
ATOM     13  C   UNL     1      -3.772   3.373   0.242  0.00  0.00    -0.050 A 
ATOM     14  C   UNL     1      -2.748   3.866  -0.546  0.00  0.00    +0.005 A 
ATOM     15  C   UNL     1      -1.569   3.158  -0.671  0.00  0.00    +0.025 A 
ATOM     16  C   UNL     1      -1.412   1.950  -0.003  0.00  0.00    +0.051 A 
ATOM     17  C   UNL     1      -2.444   1.456   0.784  0.00  0.00    -0.028 A 
ATOM     18  C   UNL     1      -3.619   2.171   0.908  0.00  0.00    +0.008 A 
ATOM     19  C   UNL     1      -2.281   0.143   1.506  0.00  0.00    +0.046 C 
ENDBRANCH  10  16
ENDBRANCH   7  10
ENDBRANCH   1   7
BRANCH   5  20
ATOM     20  N   UNL     1       2.880   2.594   4.649  0.00  0.00    +0.058 N 
ATOM     21  O   UNL     1       3.396   1.494   4.567  0.00  0.00    -0.126 OA
ATOM     22  O   UNL     1       2.922   3.210   5.699  0.00  0.00    -0.126 OA
ENDBRANCH   5  20
BRANCH   4  23
ATOM     23  N   UNL     1       1.871   5.239   4.689  0.00  0.00    -0.236 N 
ATOM     24  H   UNL     1       2.292   4.776   5.594  0.00  0.00    +0.174 HD
BRANCH  23  25
ATOM     25  N   UNL     1       1.487   6.587   4.706  0.00  0.00    -0.190 NA
ATOM     26  C   UNL     1       1.629   7.289   5.788  0.00  0.00    +0.138 C 
BRANCH  26  27
ATOM     27  C   UNL     1       1.226   8.707   5.805  0.00  0.00    -0.005 A 
ATOM     28  C   UNL     1       0.696   9.298   4.656  0.00  0.00    +0.011 A 
ATOM     29  C   UNL     1       0.315  10.622   4.678  0.00  0.00    +0.027 A 
ATOM     30  C   UNL     1       0.468  11.372   5.837  0.00  0.00    +0.047 A 
ATOM     31  C   UNL     1       1.000  10.790   6.981  0.00  0.00    +0.027 A 
ATOM     32  C   UNL     1       1.378   9.465   6.970  0.00  0.00    +0.011 A 
BRANCH  30  33
ATOM     33  N   UNL     1       0.085  12.720   5.853  0.00  0.00    -0.306 N 
ATOM     34  C   UNL     1      -0.446  13.429   4.807  0.00  0.00    +0.112 A 
ATOM     35  C   UNL     1      -0.669  14.679   5.255  0.00  0.00    +0.130 A 
ATOM     36  N   UNL     1      -0.278  14.740   6.537  0.00  0.00    -0.244 NA
ATOM     37  C   UNL     1       0.175  13.573   6.907  0.00  0.00    +0.204 A 
ENDBRANCH  30  33
ENDBRANCH  26  27
ENDBRANCH  23  25
ENDBRANCH   4  23
TORSDOF 8
