REMARK  Name = ZINC51587287
REMARK  3 active torsions:
REMARK  status: ('A' for Active; 'I' for Inactive)
REMARK    1  A    between atoms: C_6  and  N_7
REMARK    2  A    between atoms: C_14  and  C_17
REMARK    3  A    between atoms: N_19  and  C_20
REMARK                            x       y       z     vdW  Elec       q    Type
REMARK                         _______ _______ _______ _____ _____    ______ ____
ROOT
ATOM      1  N   UNL     1      -1.207  -0.720  -0.035  0.00  0.00    -0.269 N 
ATOM      2  C   UNL     1      -2.375  -0.068   0.126  0.00  0.00    +0.306 C 
ATOM      3  O   UNL     1      -2.391   1.147   0.173  0.00  0.00    -0.252 OA
ATOM      4  N   UNL     1      -3.525  -0.762   0.235  0.00  0.00    -0.285 N 
ATOM      5  C   UNL     1      -3.508  -2.227   0.344  0.00  0.00    +0.109 C 
ATOM      6  C   UNL     1      -4.419  -2.813  -0.739  0.00  0.00    +0.020 C 
ATOM      7  C   UNL     1      -5.812  -2.190  -0.620  0.00  0.00    +0.016 C 
ATOM      8  C   UNL     1      -5.716  -0.678  -0.835  0.00  0.00    +0.092 C 
ATOM      9  C   UNL     1      -4.820  -0.067   0.252  0.00  0.00    +0.122 C 
ATOM     10  H   UNL     1      -1.204  -1.675  -0.209  0.00  0.00    +0.156 HD
ENDROOT
BRANCH   1  16
ATOM     11  C   UNL     1       0.031   1.349  -0.174  0.00  0.00    +0.027 A 
ATOM     12  C   UNL     1       1.225   2.041  -0.091  0.00  0.00    +0.051 A 
ATOM     13  C   UNL     1       2.397   1.371   0.215  0.00  0.00    +0.167 A 
ATOM     14  C   UNL     1       2.374  -0.004   0.439  0.00  0.00    +0.169 A 
ATOM     15  C   UNL     1       1.178  -0.697   0.355  0.00  0.00    +0.073 A 
ATOM     16  C   UNL     1       0.004  -0.020   0.049  0.00  0.00    +0.038 A 
ATOM     17  O   UNL     1       3.643  -0.424   0.719  0.00  0.00    -0.447 OA
ATOM     18  C   UNL     1       4.502   0.639   0.281  0.00  0.00    +0.254 C 
ATOM     19  O   UNL     1       3.683   1.814   0.356  0.00  0.00    -0.448 OA
ATOM     20  C   UNL     1       5.702   0.768   1.213  0.00  0.00    +0.093 C 
ATOM     21  C   UNL     1       6.589   1.927   0.748  0.00  0.00    +0.008 C 
ATOM     22  C   UNL     1       7.060   1.664  -0.683  0.00  0.00    +0.000 C 
ATOM     23  C   UNL     1       5.847   1.558  -1.610  0.00  0.00    +0.008 C 
ATOM     24  C   UNL     1       4.957   0.398  -1.154  0.00  0.00    +0.093 C 
ENDBRANCH   1  16
BRANCH   8  25
ATOM     25  C   UNL     1      -7.093  -0.070  -0.751  0.00  0.00    +0.218 C 
ATOM     26  O   UNL     1      -8.056  -0.776  -0.539  0.00  0.00    -0.275 OA
ATOM     27  N   UNL     1      -7.254   1.259  -0.910  0.00  0.00    -0.312 N 
ATOM     28  H   UNL     1      -6.483   1.823  -1.080  0.00  0.00    +0.149 HD
BRANCH  27  29
ATOM     29  C   UNL     1      -8.592   1.850  -0.828  0.00  0.00    +0.073 C 
ATOM     30  C   UNL     1      -8.966   2.900  -1.876  0.00  0.00    +0.024 C 
ATOM     31  C   UNL     1      -8.690   3.324  -0.432  0.00  0.00    +0.024 C 
ENDBRANCH  27  29
ENDBRANCH   8  25
TORSDOF 3
