REMARK  Name = ZINC44509566
REMARK  4 active torsions:
REMARK  status: ('A' for Active; 'I' for Inactive)
REMARK    1  A    between atoms: C_1  and  C_2
REMARK    2  A    between atoms: N_11  and  S_12
REMARK    3  A    between atoms: S_12  and  C_15
REMARK    4  A    between atoms: C_15  and  C_16
REMARK                            x       y       z     vdW  Elec       q    Type
REMARK                         _______ _______ _______ _____ _____    ______ ____
ROOT
ATOM      1  C   UNL     1       0.201   1.501  -0.042  0.00  0.00    +0.044 C 
ATOM      2  C   UNL     1       0.163  -0.005  -0.036  0.00  0.00    -0.050 A 
ATOM      3  C   UNL     1       0.167  -0.700  -1.232  0.00  0.00    +0.005 A 
ATOM      4  C   UNL     1       0.131  -2.079  -1.227  0.00  0.00    +0.025 A 
ATOM      5  C   UNL     1       0.091  -2.770  -0.020  0.00  0.00    +0.054 A 
ATOM      6  C   UNL     1       0.091  -2.073   1.178  0.00  0.00    -0.024 A 
ATOM      7  C   UNL     1       0.130  -0.689   1.164  0.00  0.00    +0.008 A 
ATOM      8  C   UNL     1       0.059  -2.788   2.503  0.00  0.00    +0.038 C 
ATOM      9  C   UNL     1      -0.474  -4.210   2.332  0.00  0.00    +0.025 C 
ATOM     10  C   UNL     1       0.309  -4.902   1.210  0.00  0.00    +0.131 C 
ATOM     11  N   UNL     1       0.050  -4.169  -0.037  0.00  0.00    -0.206 N 
ENDROOT
BRANCH  11  12
ATOM     12  S   UNL     1      -0.286  -4.984  -1.438  0.00  0.00    +0.059 S 
ATOM     13  O   UNL     1      -0.671  -6.285  -1.018  0.00  0.00    -0.154 OA
ATOM     14  O   UNL     1      -1.200  -4.147  -2.134  0.00  0.00    -0.154 OA
BRANCH  12  15
ATOM     15  C   UNL     1       1.294  -5.057  -2.326  0.00  0.00    +0.306 C 
BRANCH  15  16
ATOM     16  C   UNL     1       1.108  -5.769  -3.601  0.00  0.00    +0.087 C 
ATOM     17  N   UNL     1       0.965  -6.318  -4.585  0.00  0.00    -0.195 NA
ENDBRANCH  15  16
ENDBRANCH  12  15
ENDBRANCH  11  12
TORSDOF 3
