REMARK  Name = ZINC36154323
REMARK  8 active torsions:
REMARK  status: ('A' for Active; 'I' for Inactive)
REMARK    1  A    between atoms: C_1  and  C_2
REMARK    2  A    between atoms: C_2  and  C_3
REMARK    3  A    between atoms: C_2  and  C_4
REMARK    4  A    between atoms: C_4  and  C_5
REMARK    5  A    between atoms: C_5  and  N_6
REMARK    6  A    between atoms: N_6  and  C_7
REMARK    7  A    between atoms: C_7  and  C_8
REMARK    8  A    between atoms: C_14  and  C_19
REMARK                            x       y       z     vdW  Elec       q    Type
REMARK                         _______ _______ _______ _____ _____    ______ ____
ROOT
ATOM      1  C   UNL     1      -4.191  -4.551  -0.229  0.00  0.00    +0.094 A 
ATOM      2  N   UNL     1      -4.410  -5.887  -0.331  0.00  0.00    -0.312 N 
ATOM      3  H   UNL     1      -3.653  -6.488  -0.410  0.00  0.00    +0.170 HD
ATOM      4  C   UNL     1      -5.657  -6.394  -0.325  0.00  0.00    +0.260 A 
ATOM      5  O   UNL     1      -5.837  -7.596  -0.418  0.00  0.00    -0.267 OA
ATOM      6  C   UNL     1      -6.768  -5.499  -0.208  0.00  0.00    +0.080 A 
ATOM      7  C   UNL     1      -8.195  -5.800  -0.178  0.00  0.00    +0.004 A 
ATOM      8  C   UNL     1      -9.074  -4.775  -0.058  0.00  0.00    +0.056 A 
ATOM      9  S   UNL     1      -8.023  -3.337   0.020  0.00  0.00    -0.076 S 
ATOM     10  C   UNL     1      -6.444  -4.136  -0.107  0.00  0.00    +0.116 A 
ATOM     11  N   UNL     1      -5.184  -3.711  -0.116  0.00  0.00    -0.229 NA
ENDROOT
BRANCH   7  12
ATOM     12  C   UNL     1      -8.674  -7.199  -0.276  0.00  0.00    -0.016 A 
ATOM     13  C   UNL     1      -8.199  -8.032  -1.288  0.00  0.00    +0.010 A 
ATOM     14  C   UNL     1      -8.648  -9.333  -1.374  0.00  0.00    +0.020 A 
ATOM     15  C   UNL     1      -9.569  -9.813  -0.459  0.00  0.00    +0.041 A 
ATOM     16  C   UNL     1     -10.045  -8.990   0.548  0.00  0.00    +0.020 A 
ATOM     17  C   UNL     1      -9.598  -7.688   0.647  0.00  0.00    +0.010 A 
ATOM     18 CL   UNL     1     -10.130 -11.452  -0.573  0.00  0.00    -0.084 Cl
ENDBRANCH   7  12
BRANCH   1  19
ATOM     19  C   UNL     1      -2.777  -4.029  -0.239  0.00  0.00    -0.007 C 
BRANCH  19  20
ATOM     20  N   UNL     1      -2.794  -2.566  -0.111  0.00  0.00    +0.384 N 
ATOM     21  H   UNL     1      -3.240  -2.310   0.757  0.00  0.00    -0.085 HD
ATOM     22  H   UNL     1      -3.306  -2.167  -0.883  0.00  0.00    -0.085 HD
BRANCH  20  23
ATOM     23  C   UNL     1      -1.416  -2.058  -0.121  0.00  0.00    -0.082 C 
BRANCH  23  24
ATOM     24  C   UNL     1      -1.433  -0.534   0.013  0.00  0.00    -0.016 C 
BRANCH  24  26
ATOM     25  C   UNL     1      -0.019   1.526   0.010  0.00  0.00    +0.007 C 
ATOM     26  C   UNL     1       0.002  -0.004   0.002  0.00  0.00    -0.019 C 
ATOM     27  C   UNL     1       0.742  -0.511   1.242  0.00  0.00    +0.007 C 
ENDBRANCH  24  26
ENDBRANCH  23  24
ENDBRANCH  20  23
ENDBRANCH  19  20
ENDBRANCH   1  19
TORSDOF 6
