REMARK  Name = ZINC04968042
REMARK  6 active torsions:
REMARK  status: ('A' for Active; 'I' for Inactive)
REMARK    1  A    between atoms: C_1  and  C_2
REMARK    2  A    between atoms: N_8  and  C_11
REMARK    3  A    between atoms: C_11  and  C_12
REMARK    4  A    between atoms: N_18  and  C_19
REMARK    5  A    between atoms: C_19  and  C_20
REMARK    6  A    between atoms: C_19  and  C_21
REMARK                            x       y       z     vdW  Elec       q    Type
REMARK                         _______ _______ _______ _____ _____    ______ ____
ROOT
ATOM      1  C   UNL     1       0.820   8.493  -2.631  0.00  0.00    +0.088 C 
ATOM      2  C   UNL     1       1.653   7.268  -2.902  0.00  0.00    +0.131 A 
ATOM      3  N   UNL     1       2.214   7.131  -4.091  0.00  0.00    -0.215 NA
ATOM      4  C   UNL     1       2.959   6.071  -4.383  0.00  0.00    +0.152 A 
ATOM      5  C   UNL     1       3.142   5.084  -3.393  0.00  0.00    +0.171 A 
ATOM      6  C   UNL     1       2.523   5.279  -2.146  0.00  0.00    +0.184 A 
ATOM      7  N   UNL     1       1.795   6.374  -1.947  0.00  0.00    -0.211 NA
ATOM      8  N   UNL     1       2.858   4.194  -1.384  0.00  0.00    -0.222 N 
ATOM      9  N   UNL     1       3.671   3.377  -2.185  0.00  0.00    -0.063 NA
ATOM     10  N   UNL     1       3.811   3.920  -3.344  0.00  0.00    -0.124 NA
ATOM     11  N   UNL     1       3.541   5.938  -5.629  0.00  0.00    -0.325 N 
ATOM     12  H   UNL     1       4.083   5.159  -5.831  0.00  0.00    +0.148 HD
ENDROOT
BRANCH  11  13
ATOM     13  C   UNL     1       3.339   6.973  -6.646  0.00  0.00    +0.066 C 
ATOM     14  C   UNL     1       4.366   8.090  -6.448  0.00  0.00    +0.027 C 
ATOM     15  C   UNL     1       3.512   6.362  -8.038  0.00  0.00    +0.027 C 
ENDBRANCH  11  13
BRANCH   8  16
ATOM     16  C   UNL     1       2.451   3.937  -0.001  0.00  0.00    +0.182 C 
BRANCH  16  17
ATOM     17  C   UNL     1       1.156   3.165   0.008  0.00  0.00    -0.026 A 
ATOM     18  C   UNL     1       1.175   1.783   0.000  0.00  0.00    +0.005 A 
ATOM     19  C   UNL     1      -0.013   1.076   0.008  0.00  0.00    +0.000 A 
ATOM     20  C   UNL     1      -1.219   1.751   0.017  0.00  0.00    +0.000 A 
ATOM     21  C   UNL     1      -1.238   3.133   0.030  0.00  0.00    +0.000 A 
ATOM     22  C   UNL     1      -0.050   3.840   0.023  0.00  0.00    +0.005 A 
ENDBRANCH  16  17
ENDBRANCH   8  16
TORSDOF 3
