REMARK  Name = ZINC38680274
REMARK  9 active torsions:
REMARK  status: ('A' for Active; 'I' for Inactive)
REMARK    1  A    between atoms: C_1  and  C_2
REMARK    2  A    between atoms: C_2  and  O_3
REMARK    3  A    between atoms: O_3  and  C_4
REMARK    4  A    between atoms: C_7  and  C_10
REMARK    5  A    between atoms: C_10  and  O_12
REMARK    6  A    between atoms: O_12  and  C_13
REMARK    7  A    between atoms: C_20  and  N_34
REMARK    8  A    between atoms: C_21  and  C_32
REMARK    9  A    between atoms: C_22  and  C_24
REMARK                            x       y       z     vdW  Elec       q    Type
REMARK                         _______ _______ _______ _____ _____    ______ ____
ROOT
ATOM      1  C   UNL     1      -3.249  -7.953   0.018  0.00  0.00    +0.135 A 
ATOM      2  C   UNL     1      -2.055  -8.659   0.086  0.00  0.00    +0.047 A 
ATOM      3  C   UNL     1      -2.071 -10.039   0.114  0.00  0.00    +0.012 A 
ATOM      4  C   UNL     1      -3.272 -10.724   0.074  0.00  0.00    +0.008 A 
ATOM      5  C   UNL     1      -4.467 -10.024   0.006  0.00  0.00    +0.138 A 
ATOM      6  C   UNL     1      -4.454  -8.636  -0.016  0.00  0.00    +0.093 A 
ATOM      7  O   UNL     1      -5.654 -10.678  -0.034  0.00  0.00    -0.441 OA
ATOM      8  C   UNL     1      -5.696 -11.972  -0.392  0.00  0.00    +0.199 C 
ATOM      9  C   UNL     1      -4.597 -12.762  -0.350  0.00  0.00    +0.098 C 
ATOM     10  C   UNL     1      -3.268 -12.229   0.105  0.00  0.00    +0.102 C 
ENDROOT
BRANCH  10  11
ATOM     11  C   UNL     1      -2.996 -12.699   1.511  0.00  0.00    +0.019 A 
ATOM     12  C   UNL     1      -3.857 -12.349   2.537  0.00  0.00    +0.129 A 
ATOM     13  C   UNL     1      -3.606 -12.780   3.828  0.00  0.00    +0.039 A 
ATOM     14  C   UNL     1      -2.496 -13.560   4.093  0.00  0.00    +0.004 A 
ATOM     15  C   UNL     1      -1.637 -13.910   3.069  0.00  0.00    +0.020 A 
ATOM     16  C   UNL     1      -1.889 -13.484   1.776  0.00  0.00    +0.048 A 
ATOM     17 CL   UNL     1      -0.812 -13.930   0.490  0.00  0.00    -0.083 Cl
ATOM     18  F   UNL     1      -4.942 -11.586   2.278  0.00  0.00    -0.205 F 
ENDBRANCH  10  11
BRANCH   8  19
ATOM     19  N   UNL     1      -6.887 -12.508  -0.814  0.00  0.00    -0.328 N 
ATOM     20  H   UNL     1      -7.682 -11.955  -0.850  0.00  0.00    +0.145 HD
ATOM     21  H   UNL     1      -6.933 -13.441  -1.076  0.00  0.00    +0.145 HD
ENDBRANCH   8  19
BRANCH   9  22
ATOM     22  C   UNL     1      -4.705 -14.134  -0.746  0.00  0.00    +0.101 C 
ATOM     23  N   UNL     1      -4.790 -15.223  -1.060  0.00  0.00    -0.191 NA
ENDBRANCH   9  22
BRANCH   1  24
ATOM     24  O   UNL     1      -3.235  -6.594  -0.009  0.00  0.00    -0.422 OA
BRANCH  24  25
ATOM     25  C   UNL     1      -3.544  -5.936   1.126  0.00  0.00    +0.344 C 
ATOM     26  O   UNL     1      -3.910  -6.554   2.107  0.00  0.00    -0.245 OA
BRANCH  25  30
ATOM     27  C   UNL     1      -3.239  -1.704   1.275  0.00  0.00    +0.121 A 
ATOM     28  C   UNL     1      -3.658  -2.409   2.398  0.00  0.00    +0.046 A 
ATOM     29  C   UNL     1      -3.759  -3.781   2.354  0.00  0.00    +0.018 A 
ATOM     30  C   UNL     1      -3.439  -4.466   1.178  0.00  0.00    +0.060 A 
ATOM     31  C   UNL     1      -3.018  -3.753   0.051  0.00  0.00    +0.018 A 
ATOM     32  C   UNL     1      -2.925  -2.381   0.102  0.00  0.00    +0.046 A 
BRANCH  27  33
ATOM     33  O   UNL     1      -3.141  -0.351   1.323  0.00  0.00    -0.492 OA
BRANCH  33  35
ATOM     34  C   UNL     1      -3.309   1.794   2.422  0.00  0.00    +0.048 C 
ATOM     35  C   UNL     1      -3.479   0.280   2.560  0.00  0.00    +0.225 C 
ENDBRANCH  33  35
ENDBRANCH  27  33
ENDBRANCH  25  30
ENDBRANCH  24  25
ENDBRANCH   1  24
TORSDOF 8
