REMARK  Name = ZINC39467292
REMARK  7 active torsions:
REMARK  status: ('A' for Active; 'I' for Inactive)
REMARK    1  A    between atoms: C_1  and  S_2
REMARK    2  A    between atoms: S_2  and  C_3
REMARK    3  A    between atoms: P_12  and  C_31
REMARK    4  A    between atoms: C_20  and  S_21
REMARK    5  A    between atoms: S_21  and  O_24
REMARK    6  A    between atoms: O_24  and  C_25
REMARK    7  A    between atoms: C_36  and  O_37
REMARK                            x       y       z     vdW  Elec       q    Type
REMARK                         _______ _______ _______ _____ _____    ______ ____
ROOT
ATOM      1  C   UNL     1       0.526  -0.246   1.185  0.00  0.00    +0.032 C 
ATOM      2  C   UNL     1       0.868   0.859   1.859  0.00  0.00    -0.006 C 
ATOM      3  C   UNL     1       1.658   0.733   3.140  0.00  0.00    +0.017 C 
ATOM      4  C   UNL     1       3.135   0.551   2.791  0.00  0.00    -0.003 C 
ATOM      5  C   UNL     1       3.959   0.289   4.058  0.00  0.00    -0.020 C 
ATOM      6  C   UNL     1       5.419   0.116   3.618  0.00  0.00    +0.157 C 
ATOM      7  O   UNL     1       6.250  -0.082   4.775  0.00  0.00    -0.316 OA
ATOM      8  P   UNL     1       5.794  -1.218   5.847  0.00  0.00    +0.291 P 
ATOM      9  O   UNL     1       6.391  -0.942   7.173  0.00  0.00    -0.269 OA
ATOM     10  N   UNL     1       4.149  -1.103   5.925  0.00  0.00    -0.288 NA
ATOM     11  N   UNL     1       3.465  -0.907   4.744  0.00  0.00    +0.398 N 
ATOM     12  C   UNL     1       2.053  -0.736   5.120  0.00  0.00    -0.046 C 
ATOM     13  C   UNL     1       1.165  -0.500   3.904  0.00  0.00    +0.006 C 
ATOM     14  C   UNL     1       1.213  -1.703   3.001  0.00  0.00    +0.007 C 
ATOM     15  C   UNL     1       0.927  -1.570   1.702  0.00  0.00    +0.137 C 
ATOM     16  H   UNL     1       3.682  -1.173   6.772  0.00  0.00    +0.111 HD
ATOM     17  H   UNL     1       3.575  -1.712   4.145  0.00  0.00    -0.055 HD
ENDROOT
BRANCH   8  18
ATOM     18  C   UNL     1       6.286  -2.865   5.267  0.00  0.00    +0.091 A 
ATOM     19  C   UNL     1       5.429  -3.603   4.474  0.00  0.00    +0.018 A 
ATOM     20  C   UNL     1       5.803  -4.859   4.032  0.00  0.00    +0.001 A 
ATOM     21  C   UNL     1       7.037  -5.378   4.381  0.00  0.00    +0.004 A 
ATOM     22  C   UNL     1       7.898  -4.643   5.172  0.00  0.00    +0.046 A 
ATOM     23  C   UNL     1       7.526  -3.381   5.613  0.00  0.00    +0.131 A 
BRANCH  23  24
ATOM     24  O   UNL     1       8.374  -2.653   6.387  0.00  0.00    -0.506 OA
ATOM     25  H   UNL     1       8.266  -2.804   7.337  0.00  0.00    +0.292 HD
ENDBRANCH  23  24
ENDBRANCH   8  18
BRANCH  15  26
ATOM     26  S   UNL     1       1.000  -2.960   0.621  0.00  0.00    +0.152 S 
ATOM     27  O   UNL     1       1.649  -2.520  -0.564  0.00  0.00    -0.131 OA
ATOM     28  O   UNL     1       1.482  -4.051   1.394  0.00  0.00    -0.131 OA
BRANCH  26  29
ATOM     29  O   UNL     1      -0.431  -3.303   0.232  0.00  0.00    -0.342 OA
BRANCH  29  30
ATOM     30  C   UNL     1      -1.142  -3.911   1.218  0.00  0.00    +0.157 A 
ATOM     31  C   UNL     1      -1.149  -5.295   1.317  0.00  0.00    +0.048 A 
ATOM     32  C   UNL     1      -1.872  -5.910   2.321  0.00  0.00    +0.004 A 
ATOM     33  C   UNL     1      -2.588  -5.149   3.225  0.00  0.00    +0.000 A 
ATOM     34  C   UNL     1      -2.584  -3.769   3.128  0.00  0.00    +0.004 A 
ATOM     35  C   UNL     1      -1.857  -3.149   2.130  0.00  0.00    +0.048 A 
ENDBRANCH  29  30
ENDBRANCH  26  29
ENDBRANCH  15  26
BRANCH   1  37
ATOM     36  C   UNL     1      -0.650   1.663  -0.523  0.00  0.00    +0.090 C 
ATOM     37  S   UNL     1      -0.405  -0.122  -0.305  0.00  0.00    -0.127 S 
ENDBRANCH   1  37
TORSDOF 6
