REMARK  Name = ZINC36207294
REMARK  18 active torsions:
REMARK  status: ('A' for Active; 'I' for Inactive)
REMARK    1  A    between atoms: C_1  and  C_2
REMARK    2  A    between atoms: C_2  and  C_3
REMARK    3  A    between atoms: C_9  and  C_18
REMARK    4  A    between atoms: C_13  and  C_14
REMARK    5  A    between atoms: C_14  and  O_16
REMARK    6  A    between atoms: O_16  and  C_17
REMARK    7  A    between atoms: C_18  and  N_19
REMARK    8  A    between atoms: N_19  and  C_20
REMARK    9  A    between atoms: N_19  and  C_24
REMARK   10  A    between atoms: C_20  and  C_21
REMARK   11  A    between atoms: C_21  and  O_22
REMARK   12  A    between atoms: O_22  and  C_23
REMARK   13  A    between atoms: C_24  and  C_25
REMARK   14  A    between atoms: C_25  and  C_27
REMARK   15  A    between atoms: C_25  and  O_35
REMARK   16  A    between atoms: C_27  and  O_28
REMARK   17  A    between atoms: O_28  and  C_29
REMARK   18  A    between atoms: C_29  and  C_30
REMARK                            x       y       z     vdW  Elec       q    Type
REMARK                         _______ _______ _______ _____ _____    ______ ____
ROOT
ATOM      1  C   UNL     1      -4.476  -2.744   4.220  0.00  0.00    -0.003 C 
ENDROOT
BRANCH   1   8
ATOM      2  C   UNL     1      -3.349  -7.318   7.341  0.00  0.00    -0.012 A 
ATOM      3  C   UNL     1      -3.486  -6.146   6.596  0.00  0.00    +0.076 A 
ATOM      4  C   UNL     1      -2.488  -5.086   6.325  0.00  0.00    +0.260 A 
ATOM      5  O   UNL     1      -1.359  -5.162   6.775  0.00  0.00    -0.267 OA
ATOM      6  N   UNL     1      -2.861  -4.036   5.567  0.00  0.00    -0.312 N 
ATOM      7  H   UNL     1      -2.219  -3.334   5.380  0.00  0.00    +0.170 HD
ATOM      8  C   UNL     1      -4.115  -3.942   5.061  0.00  0.00    +0.094 A 
ATOM      9  N   UNL     1      -5.019  -4.858   5.280  0.00  0.00    -0.229 NA
ATOM     10  C   UNL     1      -4.757  -5.933   6.012  0.00  0.00    +0.116 A 
ATOM     11  S   UNL     1      -5.685  -7.357   6.524  0.00  0.00    -0.062 S 
ATOM     12  C   UNL     1      -4.405  -8.174   7.462  0.00  0.00    +0.102 A 
BRANCH   2  14
ATOM     13  C   UNL     1      -1.162  -8.448   7.043  0.00  0.00    +0.009 C 
ATOM     14  C   UNL     1      -2.035  -7.641   8.005  0.00  0.00    +0.034 C 
ENDBRANCH   2  14
BRANCH  12  15
ATOM     15  C   UNL     1      -4.473  -9.446   8.185  0.00  0.00    +0.346 C 
ATOM     16  O   UNL     1      -3.496  -9.860   8.780  0.00  0.00    -0.244 OA
BRANCH  15  17
ATOM     17  O   UNL     1      -5.618 -10.159   8.190  0.00  0.00    -0.464 OA
ATOM     18  C   UNL     1      -5.613 -11.390   8.915  0.00  0.00    +0.280 C 
ENDBRANCH  15  17
ENDBRANCH  12  15
ENDBRANCH   1   8
BRANCH   1  19
ATOM     19  N   UNL     1      -5.911  -2.781   3.906  0.00  0.00    +0.388 N 
ATOM     20  H   UNL     1      -6.143  -3.674   3.497  0.00  0.00    -0.081 HD
BRANCH  19  21
ATOM     21  C   UNL     1      -6.231  -1.709   2.955  0.00  0.00    -0.050 C 
BRANCH  21  22
ATOM     22  C   UNL     1      -5.457  -1.932   1.654  0.00  0.00    +0.141 C 
BRANCH  22  23
ATOM     23  O   UNL     1      -5.873  -3.162   1.057  0.00  0.00    -0.385 OA
ATOM     24  C   UNL     1      -5.130  -3.522  -0.109  0.00  0.00    +0.193 C 
ENDBRANCH  22  23
ENDBRANCH  21  22
ENDBRANCH  19  21
BRANCH  19  25
ATOM     25  C   UNL     1      -6.687  -2.590   5.139  0.00  0.00    -0.044 C 
BRANCH  25  26
ATOM     26  C   UNL     1      -8.169  -2.834   4.851  0.00  0.00    +0.124 C 
BRANCH  26  27
ATOM     27  O   UNL     1      -8.664  -1.805   3.992  0.00  0.00    -0.391 OA
ATOM     28  H   UNL     1      -8.588  -0.914   4.362  0.00  0.00    +0.210 HD
ENDBRANCH  26  27
BRANCH  26  29
ATOM     29  C   UNL     1      -8.953  -2.822   6.165  0.00  0.00    +0.189 C 
BRANCH  29  30
ATOM     30  O   UNL     1     -10.316  -3.166   5.910  0.00  0.00    -0.370 OA
BRANCH  30  31
ATOM     31  C   UNL     1     -11.139  -3.183   7.078  0.00  0.00    +0.234 C 
BRANCH  31  32
ATOM     32  C   UNL     1     -12.548  -3.555   6.694  0.00  0.00    +0.130 A 
ATOM     33  C   UNL     1     -13.048  -4.803   6.649  0.00  0.00    +0.047 A 
ATOM     34  C   UNL     1     -14.398  -4.689   6.243  0.00  0.00    +0.041 A 
ATOM     35  C   UNL     1     -14.642  -3.379   6.063  0.00  0.00    +0.195 A 
ATOM     36  O   UNL     1     -13.520  -2.696   6.344  0.00  0.00    -0.465 OA
ENDBRANCH  31  32
ENDBRANCH  30  31
ENDBRANCH  29  30
ENDBRANCH  26  29
ENDBRANCH  25  26
ENDBRANCH  19  25
ENDBRANCH   1  19
TORSDOF 15
