REMARK  Name = ZINC36499684
REMARK  12 active torsions:
REMARK  status: ('A' for Active; 'I' for Inactive)
REMARK    1  A    between atoms: C_1  and  C_2
REMARK    2  A    between atoms: C_2  and  C_3
REMARK    3  A    between atoms: C_2  and  C_4
REMARK    4  A    between atoms: C_2  and  N_5
REMARK    5  A    between atoms: C_6  and  C_8
REMARK    6  A    between atoms: C_8  and  C_10
REMARK    7  A    between atoms: C_8  and  N_17
REMARK    8  A    between atoms: C_15  and  O_16
REMARK    9  A    between atoms: N_17  and  C_18
REMARK   10  A    between atoms: C_18  and  C_19
REMARK   11  A    between atoms: C_24  and  C_26
REMARK   12  A    between atoms: C_28  and  N_33
REMARK                            x       y       z     vdW  Elec       q    Type
REMARK                         _______ _______ _______ _____ _____    ______ ____
ROOT
ATOM      1  N   UNL     1       3.355  -0.618  -1.885  0.00  0.00    -0.274 N 
ATOM      2  C   UNL     1       4.395  -1.218  -1.274  0.00  0.00    +0.252 C 
ATOM      3  O   UNL     1       4.814  -2.280  -1.691  0.00  0.00    -0.270 OA
ENDROOT
BRANCH   2   4
ATOM      4  C   UNL     1       5.025  -0.586  -0.099  0.00  0.00    +0.086 A 
ATOM      5  C   UNL     1       5.434   0.748  -0.154  0.00  0.00    +0.049 A 
ATOM      6  C   UNL     1       6.022   1.332   0.947  0.00  0.00    +0.127 A 
ATOM      7  C   UNL     1       6.210   0.602   2.109  0.00  0.00    +0.036 A 
ATOM      8  C   UNL     1       5.811  -0.718   2.177  0.00  0.00    +0.054 A 
ATOM      9  C   UNL     1       5.212  -1.320   1.080  0.00  0.00    +0.191 A 
ATOM     10  O   UNL     1       4.813  -2.615   1.147  0.00  0.00    -0.287 OA
BRANCH   6  11
ATOM     11  N   UNL     1       6.456   2.747   0.887  0.00  0.00    +0.056 N 
ATOM     12  O   UNL     1       6.293   3.386  -0.126  0.00  0.00    -0.126 OA
ATOM     13  O   UNL     1       6.972   3.262   1.851  0.00  0.00    -0.126 OA
ENDBRANCH   6  11
ENDBRANCH   2   4
BRANCH   1  14
ATOM     14  C   UNL     1       2.636  -1.310  -2.958  0.00  0.00    +0.196 C 
BRANCH  14  15
ATOM     15  C   UNL     1       2.652  -0.461  -4.202  0.00  0.00    +0.023 A 
ATOM     16  C   UNL     1       1.499   0.177  -4.618  0.00  0.00    +0.009 A 
ATOM     17  C   UNL     1       1.513   0.956  -5.761  0.00  0.00    +0.001 A 
ATOM     18  C   UNL     1       2.679   1.098  -6.490  0.00  0.00    +0.004 A 
ATOM     19  C   UNL     1       3.834   0.462  -6.078  0.00  0.00    +0.046 A 
ATOM     20  C   UNL     1       3.824  -0.316  -4.929  0.00  0.00    +0.122 A 
BRANCH  20  21
ATOM     21  O   UNL     1       4.961  -0.938  -4.518  0.00  0.00    -0.506 OA
ATOM     22  H   UNL     1       5.116  -1.793  -4.943  0.00  0.00    +0.292 HD
ENDBRANCH  20  21
ENDBRANCH  14  15
BRANCH  14  24
ATOM     23  N   UNL     1       0.396  -2.301  -3.301  0.00  0.00    -0.309 N 
ATOM     24  C   UNL     1       1.211  -1.552  -2.532  0.00  0.00    +0.239 C 
ATOM     25  O   UNL     1       0.797  -1.072  -1.498  0.00  0.00    -0.273 OA
ATOM     26  H   UNL     1       0.704  -2.625  -4.162  0.00  0.00    +0.149 HD
BRANCH  23  28
ATOM     27  C   UNL     1      -1.743  -1.335  -2.613  0.00  0.00    +0.031 C 
ATOM     28  C   UNL     1      -0.955  -2.627  -2.837  0.00  0.00    +0.026 C 
ATOM     29  C   UNL     1      -0.868  -3.405  -1.522  0.00  0.00    +0.031 C 
ATOM     30  C   UNL     1      -1.664  -3.481  -3.889  0.00  0.00    +0.031 C 
ENDBRANCH  23  28
ENDBRANCH  14  24
ENDBRANCH   1  14
BRANCH   1  31
ATOM     31  C   UNL     1       2.942   0.728  -1.477  0.00  0.00    +0.183 C 
BRANCH  31  32
ATOM     32  C   UNL     1       3.441   1.733  -2.483  0.00  0.00    +0.122 A 
ATOM     33  C   UNL     1       2.716   2.276  -3.477  0.00  0.00    +0.046 A 
ATOM     34  C   UNL     1       3.573   3.160  -4.173  0.00  0.00    +0.041 A 
ATOM     35  C   UNL     1       4.770   3.104  -3.562  0.00  0.00    +0.195 A 
ATOM     36  O   UNL     1       4.683   2.242  -2.535  0.00  0.00    -0.466 OA
ENDBRANCH  31  32
ENDBRANCH   1  31
TORSDOF 9
