REMARK  Name = ZINC32855884
REMARK  11 active torsions:
REMARK  status: ('A' for Active; 'I' for Inactive)
REMARK    1  A    between atoms: C_1  and  C_2
REMARK    2  A    between atoms: C_5  and  C_33
REMARK    3  A    between atoms: C_6  and  O_9
REMARK    4  A    between atoms: C_7  and  C_8
REMARK    5  A    between atoms: O_9  and  C_10
REMARK    6  A    between atoms: C_10  and  C_11
REMARK    7  A    between atoms: C_11  and  C_13
REMARK    8  A    between atoms: C_11  and  O_32
REMARK    9  A    between atoms: C_13  and  N_14
REMARK   10  A    between atoms: C_25  and  O_27
REMARK   11  A    between atoms: O_27  and  C_28
REMARK                            x       y       z     vdW  Elec       q    Type
REMARK                         _______ _______ _______ _____ _____    ______ ____
ROOT
ATOM      1  N   UNL     1      -4.891   4.254   2.287  0.00  0.00    -0.221 N 
ATOM      2  C   UNL     1      -6.101   3.658   2.287  0.00  0.00    +0.251 C 
ATOM      3  O   UNL     1      -6.338   2.478   2.431  0.00  0.00    -0.272 OA
ATOM      4  C   UNL     1      -7.101   4.771   2.068  0.00  0.00    +0.138 C 
ATOM      5  C   UNL     1      -7.874   4.542   0.775  0.00  0.00    +0.040 C 
ATOM      6  C   UNL     1      -8.989   5.591   0.686  0.00  0.00    +0.008 C 
ATOM      7  C   UNL     1     -10.029   5.285   1.761  0.00  0.00    +0.036 C 
ATOM      8  C   UNL     1      -9.373   5.126   3.108  0.00  0.00    -0.038 A 
ATOM      9  C   UNL     1      -8.024   4.880   3.249  0.00  0.00    -0.012 A 
ATOM     10  C   UNL     1      -7.481   4.724   4.517  0.00  0.00    +0.010 A 
ATOM     11  C   UNL     1      -8.277   4.819   5.639  0.00  0.00    +0.046 A 
ATOM     12  C   UNL     1      -9.634   5.073   5.500  0.00  0.00    +0.120 A 
ATOM     13  C   UNL     1     -10.176   5.225   4.235  0.00  0.00    +0.049 A 
ATOM     14  N   UNL     1      -6.269   5.978   1.960  0.00  0.00    -0.281 N 
ATOM     15  C   UNL     1      -4.992   5.576   2.106  0.00  0.00    +0.310 C 
ATOM     16  O   UNL     1      -4.039   6.329   2.074  0.00  0.00    -0.252 OA
ATOM     17  H   UNL     1      -6.740   6.957   1.791  0.00  0.00    +0.152 HD
ENDROOT
BRANCH  12  18
ATOM     18  O   UNL     1     -10.427   5.173   6.599  0.00  0.00    -0.495 OA
ATOM     19  C   UNL     1      -9.797   5.005   7.871  0.00  0.00    +0.277 C 
ENDBRANCH  12  18
BRANCH   1  20
ATOM     20  C   UNL     1      -3.623   3.542   2.469  0.00  0.00    +0.152 C 
BRANCH  20  21
ATOM     21  C   UNL     1      -3.086   3.101   1.106  0.00  0.00    +0.170 C 
BRANCH  21  22
ATOM     22  O   UNL     1      -4.033   2.233   0.479  0.00  0.00    -0.387 OA
ATOM     23  H   UNL     1      -5.048   2.595   0.260  0.00  0.00    +0.210 HD
ENDBRANCH  21  22
BRANCH  21  24
ATOM     24  C   UNL     1      -1.762   2.358   1.296  0.00  0.00    +0.262 C 
BRANCH  24  25
ATOM     25  O   UNL     1      -1.202   2.047   0.019  0.00  0.00    -0.489 OA
BRANCH  25  31
ATOM     26  C   UNL     1       3.677   2.181  -0.023  0.00  0.00    +0.044 C 
ATOM     27  C   UNL     1       2.380   1.413  -0.013  0.00  0.00    -0.044 A 
ATOM     28  C   UNL     1       2.396   0.030  -0.021  0.00  0.00    +0.004 A 
ATOM     29  C   UNL     1       1.208  -0.677  -0.013  0.00  0.00    +0.007 A 
ATOM     30  C   UNL     1       0.002  -0.004   0.002  0.00  0.00    -0.009 A 
ATOM     31  C   UNL     1      -0.017   1.383   0.010  0.00  0.00    +0.127 A 
ATOM     32  C   UNL     1       1.177   2.091   0.002  0.00  0.00    -0.006 A 
ATOM     33  C   UNL     1       1.160   3.598   0.010  0.00  0.00    +0.048 C 
ATOM     34  C   UNL     1      -1.292  -0.776   0.010  0.00  0.00    +0.047 C 
ENDBRANCH  25  31
ENDBRANCH  24  25
ENDBRANCH  21  24
ENDBRANCH  20  21
ENDBRANCH   1  20
TORSDOF 7
