REMARK  Name = ZINC20610619
REMARK  3 active torsions:
REMARK  status: ('A' for Active; 'I' for Inactive)
REMARK    1  A    between atoms: C_1  and  C_2
REMARK    2  A    between atoms: C_7  and  N_8
REMARK    3  A    between atoms: C_11  and  C_18
REMARK                            x       y       z     vdW  Elec       q    Type
REMARK                         _______ _______ _______ _____ _____    ______ ____
ROOT
ATOM      1  N   UNL     1       0.025  -0.013   2.418  0.00  0.00    -0.229 N 
ATOM      2  C   UNL     1      -1.144   0.296   3.014  0.00  0.00    +0.267 A 
ATOM      3  O   UNL     1      -2.200  -0.024   2.496  0.00  0.00    -0.267 OA
ATOM      4  C   UNL     1      -1.136   0.991   4.237  0.00  0.00    +0.073 A 
ATOM      5  C   UNL     1       0.058   1.337   4.795  0.00  0.00    +0.260 A 
ATOM      6  N   UNL     1       1.225   1.002   4.155  0.00  0.00    -0.274 N 
ATOM      7  H   UNL     1       2.077   1.246   4.548  0.00  0.00    +0.173 HD
ATOM      8  C   UNL     1       1.194   0.332   2.988  0.00  0.00    +0.337 A 
ATOM      9  O   UNL     1       2.238   0.040   2.438  0.00  0.00    -0.246 OA
ATOM     10  O   UNL     1       0.093   2.004   5.968  0.00  0.00    -0.267 OA
ENDROOT
BRANCH   4  11
ATOM     11  C   UNL     1      -2.431   1.347   4.920  0.00  0.00    +0.018 C 
ATOM     12  C   UNL     1      -3.205   2.321   4.063  0.00  0.00    +0.011 A 
ATOM     13  C   UNL     1      -4.540   2.226   3.865  0.00  0.00    -0.022 A 
ATOM     14  C   UNL     1      -4.922   3.317   2.998  0.00  0.00    +0.003 A 
ATOM     15  C   UNL     1      -6.148   3.720   2.459  0.00  0.00    +0.010 A 
ATOM     16  C   UNL     1      -6.138   4.832   1.654  0.00  0.00    +0.001 A 
ATOM     17  C   UNL     1      -4.975   5.532   1.381  0.00  0.00    +0.002 A 
ATOM     18  C   UNL     1      -3.748   5.158   1.901  0.00  0.00    +0.026 A 
ATOM     19  C   UNL     1      -3.728   4.032   2.721  0.00  0.00    +0.047 A 
ATOM     20  N   UNL     1      -2.712   3.401   3.383  0.00  0.00    -0.359 N 
ATOM     21  H   UNL     1      -1.783   3.677   3.372  0.00  0.00    +0.166 HD
ATOM     22  C   UNL     1      -5.392   1.146   4.483  0.00  0.00    +0.018 C 
ATOM     23  C   UNL     1      -4.577   0.490   5.606  0.00  0.00    -0.076 C 
ATOM     24  N   UNL     1      -3.242   0.134   5.107  0.00  0.00    +0.388 N 
ATOM     25  H   UNL     1      -3.334  -0.346   4.224  0.00  0.00    -0.084 HD
ATOM     26  H   UNL     1      -2.785  -0.474   5.770  0.00  0.00    -0.084 HD
ENDBRANCH   4  11
BRANCH   1  33
ATOM     27  C   UNL     1      -0.018   1.503   0.010  0.00  0.00    +0.046 C 
ATOM     28  C   UNL     1       0.002  -0.004   0.002  0.00  0.00    -0.026 A 
ATOM     29  C   UNL     1       0.006  -0.689  -1.198  0.00  0.00    +0.005 A 
ATOM     30  C   UNL     1       0.024  -2.071  -1.206  0.00  0.00    +0.000 A 
ATOM     31  C   UNL     1       0.039  -2.773  -0.014  0.00  0.00    +0.002 A 
ATOM     32  C   UNL     1       0.035  -2.094   1.188  0.00  0.00    +0.026 A 
ATOM     33  C   UNL     1       0.023  -0.705   1.200  0.00  0.00    +0.057 A 
ENDBRANCH   1  33
TORSDOF 2
