REMARK  Name = ZINC56442646
REMARK  10 active torsions:
REMARK  status: ('A' for Active; 'I' for Inactive)
REMARK    1  A    between atoms: C_1  and  C_2
REMARK    2  A    between atoms: C_2  and  C_3
REMARK    3  A    between atoms: C_2  and  C_4
REMARK    4  A    between atoms: C_2  and  C_5
REMARK    5  A    between atoms: C_5  and  C_6
REMARK    6  A    between atoms: C_6  and  C_7
REMARK    7  A    between atoms: C_6  and  C_8
REMARK    8  A    between atoms: C_6  and  N_9
REMARK    9  A    between atoms: C_10  and  C_12
REMARK   10  A    between atoms: N_21  and  C_22
REMARK                            x       y       z     vdW  Elec       q    Type
REMARK                         _______ _______ _______ _____ _____    ______ ____
ROOT
ATOM      1  C   UNL     1       5.282  -0.836  -4.050  0.00  0.00    +0.092 C 
ATOM      2  C   UNL     1       6.717  -0.318  -3.926  0.00  0.00    +0.016 C 
ATOM      3  C   UNL     1       7.432  -0.465  -5.271  0.00  0.00    +0.020 C 
ATOM      4  C   UNL     1       7.485  -1.946  -5.658  0.00  0.00    +0.109 C 
ATOM      5  N   UNL     1       6.119  -2.489  -5.637  0.00  0.00    -0.285 N 
ATOM      6  C   UNL     1       5.310  -2.321  -4.423  0.00  0.00    +0.122 C 
ATOM      7  C   UNL     1       5.618  -3.128  -6.713  0.00  0.00    +0.307 C 
ATOM      8  O   UNL     1       4.457  -3.488  -6.720  0.00  0.00    -0.252 OA
ATOM      9  N   UNL     1       6.405  -3.369  -7.781  0.00  0.00    -0.267 N 
ATOM     10  H   UNL     1       7.341  -3.115  -7.760  0.00  0.00    +0.156 HD
ENDROOT
BRANCH   9  11
ATOM     11  C   UNL     1       5.870  -3.984  -8.920  0.00  0.00    +0.070 A 
ATOM     12  C   UNL     1       4.496  -4.121  -9.057  0.00  0.00    +0.026 A 
ATOM     13  C   UNL     1       3.971  -4.728 -10.181  0.00  0.00    +0.002 A 
ATOM     14  C   UNL     1       4.814  -5.200 -11.171  0.00  0.00    +0.003 A 
ATOM     15  C   UNL     1       6.184  -5.066 -11.040  0.00  0.00    +0.040 A 
ATOM     16  C   UNL     1       6.715  -4.454  -9.919  0.00  0.00    +0.145 A 
ATOM     17  F   UNL     1       8.053  -4.318  -9.793  0.00  0.00    -0.204 F 
ENDBRANCH   9  11
BRANCH   1  19
ATOM     18  N   UNL     1       3.285  -1.050  -2.606  0.00  0.00    -0.310 N 
ATOM     19  C   UNL     1       4.569  -0.660  -2.734  0.00  0.00    +0.218 C 
ATOM     20  O   UNL     1       5.150  -0.168  -1.790  0.00  0.00    -0.275 OA
ATOM     21  H   UNL     1       2.821  -1.443  -3.361  0.00  0.00    +0.149 HD
BRANCH  18  22
ATOM     22  C   UNL     1       2.592  -0.880  -1.327  0.00  0.00    +0.029 C 
ATOM     23  C   UNL     1       2.724   0.573  -0.865  0.00  0.00    +0.031 C 
ATOM     24  C   UNL     1       3.216  -1.806  -0.281  0.00  0.00    +0.031 C 
BRANCH  22  25
ATOM     25  C   UNL     1       1.112  -1.228  -1.499  0.00  0.00    +0.031 C 
BRANCH  25  27
ATOM     26  C   UNL     1       0.970  -1.500  -3.978  0.00  0.00    +0.010 C 
ATOM     27  C   UNL     1       0.590  -0.607  -2.796  0.00  0.00    -0.036 C 
ATOM     28  C   UNL     1       1.209   0.779  -2.984  0.00  0.00    +0.010 C 
ATOM     29  C   UNL     1      -0.933  -0.479  -2.723  0.00  0.00    +0.010 C 
ENDBRANCH  25  27
ENDBRANCH  22  25
ENDBRANCH  18  22
ENDBRANCH   1  19
TORSDOF 5
