REMARK  Name = ZINC19129232
REMARK  8 active torsions:
REMARK  status: ('A' for Active; 'I' for Inactive)
REMARK    1  A    between atoms: C_1  and  C_2
REMARK    2  A    between atoms: C_6  and  C_12
REMARK    3  A    between atoms: C_8  and  N_11
REMARK    4  A    between atoms: C_18  and  C_19
REMARK    5  A    between atoms: C_18  and  N_52
REMARK    6  A    between atoms: C_22  and  O_26
REMARK    7  A    between atoms: C_23  and  O_25
REMARK    8  A    between atoms: O_26  and  C_27
REMARK                            x       y       z     vdW  Elec       q    Type
REMARK                         _______ _______ _______ _____ _____    ______ ____
ROOT
ATOM      1  C   UNL     1       1.605  -4.553  -2.925  0.00  0.00    +0.021 C 
ATOM      2  C   UNL     1       0.312  -4.215  -3.672  0.00  0.00    +0.006 C 
ATOM      3  C   UNL     1       0.043  -2.712  -3.557  0.00  0.00    -0.018 C 
ATOM      4  C   UNL     1      -0.041  -2.325  -2.079  0.00  0.00    -0.078 C 
ATOM      5  C   UNL     1       1.475  -4.113  -1.465  0.00  0.00    -0.069 C 
ATOM      6  N   UNL     1       1.242  -2.654  -1.423  0.00  0.00    +0.383 N 
ATOM      7  H   UNL     1       2.003  -2.180  -1.924  0.00  0.00    -0.081 HD
ENDROOT
BRANCH   1  13
ATOM      8  C   UNL     1       5.113 -11.049  -3.310  0.00  0.00    +0.067 C 
ATOM      9  C   UNL     1       4.146  -9.896  -3.224  0.00  0.00    +0.063 A 
ATOM     10  C   UNL     1       4.492  -8.552  -3.201  0.00  0.00    +0.073 A 
ATOM     11  C   UNL     1       3.318  -7.817  -3.116  0.00  0.00    +0.158 A 
ATOM     12  N   UNL     1       3.076  -6.499  -3.063  0.00  0.00    -0.232 NA
ATOM     13  C   UNL     1       1.847  -6.039  -2.983  0.00  0.00    +0.048 A 
ATOM     14  C   UNL     1       0.765  -6.919  -2.947  0.00  0.00    +0.067 A 
ATOM     15  C   UNL     1       0.994  -8.268  -3.006  0.00  0.00    +0.122 A 
ATOM     16  N   UNL     1       2.285  -8.717  -3.088  0.00  0.00    -0.201 N 
ATOM     17  N   UNL     1       2.838 -10.001  -3.157  0.00  0.00    -0.169 NA
BRANCH  15  18
ATOM     18  N   UNL     1      -0.057  -9.158  -2.977  0.00  0.00    -0.343 N 
ATOM     19  H   UNL     1       0.114 -10.112  -3.015  0.00  0.00    +0.144 HD
ATOM     20  H   UNL     1      -0.969  -8.831  -2.919  0.00  0.00    +0.144 HD
ENDBRANCH  15  18
ENDBRANCH   1  13
BRANCH   6  21
ATOM     21  C   UNL     1       1.227  -2.186  -0.021  0.00  0.00    -0.043 C 
BRANCH  21  22
ATOM     22  C   UNL     1       1.208  -0.679  -0.013  0.00  0.00    -0.060 A 
ATOM     23  C   UNL     1       2.398   0.026  -0.021  0.00  0.00    +0.005 A 
ATOM     24  C   UNL     1       2.386   1.408  -0.013  0.00  0.00    +0.049 A 
ATOM     25  C   UNL     1       1.181   2.091   0.002  0.00  0.00    +0.161 A 
ATOM     26  C   UNL     1      -0.017   1.381   0.010  0.00  0.00    +0.159 A 
ATOM     27  C   UNL     1       0.002  -0.004   0.002  0.00  0.00    +0.051 A 
BRANCH  26  28
ATOM     28  O   UNL     1      -1.203   2.047   0.019  0.00  0.00    -0.503 OA
ATOM     29  H   UNL     1      -1.542   2.235   0.905  0.00  0.00    +0.292 HD
ENDBRANCH  26  28
BRANCH  25  30
ATOM     30  O   UNL     1       1.167   3.450   0.009  0.00  0.00    -0.491 OA
ATOM     31  C   UNL     1       2.434   4.112   0.001  0.00  0.00    +0.277 C 
ENDBRANCH  25  30
ENDBRANCH  21  22
ENDBRANCH   6  21
TORSDOF 6
