REMARK  Name = ZINC08868372
REMARK  6 active torsions:
REMARK  status: ('A' for Active; 'I' for Inactive)
REMARK    1  A    between atoms: C_4  and  C_7
REMARK    2  A    between atoms: C_7  and  C_8
REMARK    3  A    between atoms: C_8  and  N_9
REMARK    4  A    between atoms: C_10  and  C_12
REMARK    5  A    between atoms: C_16  and  N_17
REMARK    6  A    between atoms: C_18  and  C_20
REMARK                            x       y       z     vdW  Elec       q    Type
REMARK                         _______ _______ _______ _____ _____    ______ ____
ROOT
ATOM      1  C   UNL     1       0.236   0.921   4.872  0.00  0.00    +0.069 A 
ATOM      2  C   UNL     1      -0.103  -0.352   5.483  0.00  0.00    -0.023 A 
ATOM      3  C   UNL     1       0.627  -0.680   6.572  0.00  0.00    -0.004 A 
ATOM      4  S   UNL     1       1.749   0.672   6.788  0.00  0.00    -0.077 S 
ATOM      5  C   UNL     1       1.260   1.658   5.450  0.00  0.00    +0.085 A 
ATOM      6  C   UNL     1       0.502  -1.920   7.403  0.00  0.00    +0.043 C 
ATOM      7  C   UNL     1      -0.832  -2.598   7.062  0.00  0.00    +0.005 C 
ATOM      8  C   UNL     1      -0.971  -2.677   5.539  0.00  0.00    +0.005 C 
ATOM      9  C   UNL     1      -1.196  -1.278   4.963  0.00  0.00    +0.037 C 
ENDROOT
BRANCH   1  11
ATOM     10  N   UNL     1      -0.020   1.094   2.454  0.00  0.00    -0.311 N 
ATOM     11  C   UNL     1      -0.473   1.407   3.684  0.00  0.00    +0.247 C 
ATOM     12  O   UNL     1      -1.471   2.092   3.809  0.00  0.00    -0.270 OA
ATOM     13  H   UNL     1       0.775   0.547   2.354  0.00  0.00    +0.149 HD
BRANCH  10  14
ATOM     14  C   UNL     1      -0.729   1.579   1.267  0.00  0.00    +0.109 C 
BRANCH  14  15
ATOM     15  C   UNL     1      -0.013   1.086   0.008  0.00  0.00    +0.054 C 
BRANCH  15  19
ATOM     16  C   UNL     1      -2.079   2.501  -3.453  0.00  0.00    +0.000 A 
ATOM     17  C   UNL     1      -1.066   3.259  -2.894  0.00  0.00    +0.000 A 
ATOM     18  C   UNL     1      -0.398   2.801  -1.774  0.00  0.00    +0.004 A 
ATOM     19  C   UNL     1      -0.742   1.585  -1.213  0.00  0.00    -0.046 A 
ATOM     20  C   UNL     1      -1.750   0.825  -1.775  0.00  0.00    +0.004 A 
ATOM     21  C   UNL     1      -2.422   1.285  -2.892  0.00  0.00    +0.000 A 
ENDBRANCH  15  19
ENDBRANCH  14  15
ENDBRANCH  10  14
ENDBRANCH   1  11
BRANCH   5  22
ATOM     22  N   UNL     1       1.767   2.885   5.056  0.00  0.00    -0.273 N 
ATOM     23  C   UNL     1       2.773   3.453   5.748  0.00  0.00    +0.284 C 
ATOM     24  O   UNL     1       3.237   2.888   6.720  0.00  0.00    -0.266 OA
ATOM     25  H   UNL     1       1.397   3.335   4.280  0.00  0.00    +0.156 HD
BRANCH  23  26
ATOM     26  C   UNL     1       3.315   4.764   5.326  0.00  0.00    +0.194 A 
ATOM     27  C   UNL     1       4.328   5.312   6.041  0.00  0.00    +0.103 A 
ATOM     28  C   UNL     1       4.867   6.614   5.622  0.00  0.00    +0.193 A 
ATOM     29  O   UNL     1       5.777   7.153   6.228  0.00  0.00    -0.287 OA
ATOM     30  C   UNL     1       4.253   7.238   4.434  0.00  0.00    +0.064 A 
ATOM     31  C   UNL     1       4.691   8.472   3.955  0.00  0.00    +0.015 A 
ATOM     32  C   UNL     1       4.098   9.019   2.851  0.00  0.00    +0.001 A 
ATOM     33  C   UNL     1       3.065   8.352   2.206  0.00  0.00    +0.004 A 
ATOM     34  C   UNL     1       2.619   7.132   2.665  0.00  0.00    +0.047 A 
ATOM     35  C   UNL     1       3.208   6.557   3.787  0.00  0.00    +0.139 A 
ATOM     36  O   UNL     1       2.789   5.362   4.247  0.00  0.00    -0.450 OA
ENDBRANCH  23  26
ENDBRANCH   5  22
TORSDOF 6
