REMARK  Name = ZINC11449980
REMARK  7 active torsions:
REMARK  status: ('A' for Active; 'I' for Inactive)
REMARK    1  A    between atoms: C_4  and  O_7
REMARK    2  A    between atoms: O_7  and  C_8
REMARK    3  A    between atoms: C_8  and  C_9
REMARK    4  A    between atoms: C_17  and  C_18
REMARK    5  A    between atoms: C_23  and  N_26
REMARK    6  A    between atoms: N_26  and  S_27
REMARK    7  A    between atoms: S_27  and  C_30
REMARK                            x       y       z     vdW  Elec       q    Type
REMARK                         _______ _______ _______ _____ _____    ______ ____
ROOT
ATOM      1  C   UNL     1       6.304  -0.957   2.421  0.00  0.00    +0.282 C 
ATOM      2  O   UNL     1       5.429  -0.155   2.690  0.00  0.00    -0.267 OA
ATOM      3  N   UNL     1       6.977  -1.576   3.411  0.00  0.00    -0.295 N 
ATOM      4  C   UNL     1       6.577  -1.397   4.814  0.00  0.00    +0.110 C 
ATOM      5  C   UNL     1       6.365  -2.784   5.441  0.00  0.00    +0.039 C 
ATOM      6  C   UNL     1       7.631  -3.623   5.251  0.00  0.00    +0.080 C 
ATOM      7  C   UNL     1       7.902  -3.808   3.756  0.00  0.00    +0.039 C 
ATOM      8  C   UNL     1       8.128  -2.438   3.109  0.00  0.00    +0.110 C 
ENDROOT
BRANCH   1  17
ATOM      9  C   UNL     1       6.130  -0.581  -0.055  0.00  0.00    +0.048 A 
ATOM     10  C   UNL     1       6.726  -1.207  -1.234  0.00  0.00    +0.027 A 
ATOM     11  C   UNL     1       6.627  -0.984  -2.610  0.00  0.00    +0.012 A 
ATOM     12  C   UNL     1       7.337  -1.767  -3.475  0.00  0.00    +0.001 A 
ATOM     13  C   UNL     1       8.154  -2.783  -2.997  0.00  0.00    +0.004 A 
ATOM     14  C   UNL     1       8.265  -3.018  -1.644  0.00  0.00    +0.047 A 
ATOM     15  C   UNL     1       7.553  -2.234  -0.744  0.00  0.00    +0.136 A 
ATOM     16  O   UNL     1       7.461  -2.225   0.600  0.00  0.00    -0.450 OA
ATOM     17  C   UNL     1       6.628  -1.249   1.018  0.00  0.00    +0.197 A 
BRANCH   9  18
ATOM     18  C   UNL     1       5.164   0.575  -0.033  0.00  0.00    +0.269 C 
BRANCH  18  19
ATOM     19  O   UNL     1       3.825   0.079  -0.091  0.00  0.00    -0.487 OA
BRANCH  19  23
ATOM     20  C   UNL     1       0.788   2.871  -0.058  0.00  0.00    +0.000 A 
ATOM     21  C   UNL     1       2.107   3.284  -0.004  0.00  0.00    +0.004 A 
ATOM     22  C   UNL     1       3.126   2.351  -0.015  0.00  0.00    +0.045 A 
ATOM     23  C   UNL     1       2.825   0.999  -0.081  0.00  0.00    +0.121 A 
ATOM     24  C   UNL     1       1.501   0.586  -0.135  0.00  0.00    +0.045 A 
ATOM     25  C   UNL     1       0.486   1.523  -0.124  0.00  0.00    +0.004 A 
ENDBRANCH  19  23
ENDBRANCH  18  19
ENDBRANCH   9  18
ENDBRANCH   1  17
BRANCH   6  26
ATOM     26  N   UNL     1       7.447  -4.933   5.879  0.00  0.00    -0.186 NA
ATOM     27  H   UNL     1       7.012  -5.649   5.390  0.00  0.00    +0.148 HD
BRANCH  26  28
ATOM     28  S   UNL     1       7.982  -5.193   7.425  0.00  0.00    +0.065 S 
ATOM     29  O   UNL     1       7.638  -6.532   7.754  0.00  0.00    -0.153 OA
ATOM     30  O   UNL     1       9.319  -4.715   7.478  0.00  0.00    -0.153 OA
BRANCH  28  31
ATOM     31  C   UNL     1       7.034  -4.153   8.486  0.00  0.00    +0.142 A 
ATOM     32  C   UNL     1       5.863  -4.418   9.117  0.00  0.00    +0.036 A 
ATOM     33  C   UNL     1       5.294  -3.440   9.910  0.00  0.00    +0.010 A 
ATOM     34  C   UNL     1       5.922  -2.245  10.034  0.00  0.00    +0.047 A 
ATOM     35  S   UNL     1       7.369  -2.482   9.015  0.00  0.00    -0.077 S 
ENDBRANCH  28  31
ENDBRANCH  26  28
ENDBRANCH   6  26
TORSDOF 7
