REMARK  Name = ZINC63257607
REMARK  14 active torsions:
REMARK  status: ('A' for Active; 'I' for Inactive)
REMARK    1  A    between atoms: C_1  and  C_2
REMARK    2  A    between atoms: C_2  and  C_3
REMARK    3  A    between atoms: C_2  and  C_4
REMARK    4  A    between atoms: C_4  and  C_5
REMARK    5  A    between atoms: C_5  and  C_6
REMARK    6  A    between atoms: C_5  and  N_24
REMARK    7  A    between atoms: N_8  and  C_9
REMARK    8  A    between atoms: C_9  and  C_10
REMARK    9  A    between atoms: C_10  and  C_11
REMARK   10  A    between atoms: C_10  and  N_19
REMARK   11  A    between atoms: C_14  and  O_17
REMARK   12  A    between atoms: O_17  and  C_18
REMARK   13  A    between atoms: C_25  and  O_27
REMARK   14  A    between atoms: O_27  and  C_28
REMARK                            x       y       z     vdW  Elec       q    Type
REMARK                         _______ _______ _______ _____ _____    ______ ____
ROOT
ATOM      1  C   UNL     1      -7.062  -2.704  -2.700  0.00  0.00    +0.093 C 
ENDROOT
BRANCH   1   4
ATOM      2  C   UNL     1      -6.396  -2.522  -0.363  0.00  0.00    +0.233 C 
ATOM      3  O   UNL     1      -5.302  -2.947  -0.672  0.00  0.00    -0.274 OA
ATOM      4  N   UNL     1      -7.347  -2.364  -1.304  0.00  0.00    -0.315 N 
ATOM      5  H   UNL     1      -8.222  -2.024  -1.057  0.00  0.00    +0.149 HD
BRANCH   2   6
ATOM      6  C   UNL     1      -6.690  -2.172   1.073  0.00  0.00    +0.162 C 
BRANCH   6   7
ATOM      7  N   UNL     1      -5.489  -2.389   1.884  0.00  0.00    -0.270 N 
ATOM      8  C   UNL     1      -5.326  -1.715   3.039  0.00  0.00    +0.401 C 
ATOM      9  O   UNL     1      -6.211  -0.993   3.452  0.00  0.00    -0.226 OA
ATOM     10  H   UNL     1      -4.813  -3.019   1.590  0.00  0.00    +0.153 HD
BRANCH   8  11
ATOM     11  O   UNL     1      -4.180  -1.841   3.736  0.00  0.00    -0.454 OA
ATOM     12  C   UNL     1      -4.075  -1.097   4.951  0.00  0.00    +0.282 C 
ENDBRANCH   8  11
ENDBRANCH   6   7
BRANCH   6  13
ATOM     13  C   UNL     1      -7.824  -3.057   1.592  0.00  0.00    +0.035 C 
BRANCH  13  15
ATOM     14  C   UNL     1      -8.403  -5.368   2.347  0.00  0.00    +0.007 C 
ATOM     15  C   UNL     1      -7.361  -4.515   1.620  0.00  0.00    -0.015 C 
ATOM     16  C   UNL     1      -7.194  -5.025   0.187  0.00  0.00    +0.007 C 
ENDBRANCH  13  15
ENDBRANCH   6  13
ENDBRANCH   2   6
ENDBRANCH   1   4
BRANCH   1  17
ATOM     17  C   UNL     1      -8.262  -2.330  -3.572  0.00  0.00    -0.020 C 
BRANCH  17  18
ATOM     18  C   UNL     1      -9.445  -3.182  -3.191  0.00  0.00    -0.059 A 
ATOM     19  C   UNL     1      -9.543  -4.478  -3.662  0.00  0.00    +0.005 A 
ATOM     20  C   UNL     1     -10.627  -5.261  -3.315  0.00  0.00    +0.046 A 
ATOM     21  C   UNL     1     -11.617  -4.745  -2.491  0.00  0.00    +0.120 A 
ATOM     22  C   UNL     1     -11.517  -3.445  -2.019  0.00  0.00    +0.046 A 
ATOM     23  C   UNL     1     -10.428  -2.668  -2.366  0.00  0.00    +0.005 A 
BRANCH  21  24
ATOM     24  O   UNL     1     -12.685  -5.513  -2.148  0.00  0.00    -0.495 OA
ATOM     25  C   UNL     1     -13.666  -4.917  -1.297  0.00  0.00    +0.277 C 
ENDBRANCH  21  24
ENDBRANCH  17  18
BRANCH  17  26
ATOM     26  N   UNL     1      -7.930  -2.558  -4.985  0.00  0.00    +0.385 N 
ATOM     27  C   UNL     1      -9.060  -2.136  -5.851  0.00  0.00    -0.078 C 
ATOM     28  C   UNL     1      -8.385  -1.899  -7.225  0.00  0.00    -0.020 C 
ATOM     29  C   UNL     1      -7.023  -1.278  -6.839  0.00  0.00    -0.020 C 
ATOM     30  C   UNL     1      -6.782  -1.714  -5.382  0.00  0.00    -0.078 C 
ATOM     31  H   UNL     1      -7.716  -3.531  -5.141  0.00  0.00    -0.081 HD
ENDBRANCH  17  26
ENDBRANCH   1  17
TORSDOF 10
