REMARK  Name = ZINC09666569
REMARK  7 active torsions:
REMARK  status: ('A' for Active; 'I' for Inactive)
REMARK    1  A    between atoms: C_1  and  C_2
REMARK    2  A    between atoms: C_2  and  C_25
REMARK    3  A    between atoms: N_5  and  C_9
REMARK    4  A    between atoms: C_9  and  C_10
REMARK    5  A    between atoms: N_12  and  C_13
REMARK    6  A    between atoms: C_13  and  C_14
REMARK    7  A    between atoms: C_14  and  N_69
REMARK                            x       y       z     vdW  Elec       q    Type
REMARK                         _______ _______ _______ _____ _____    ______ ____
ROOT
ATOM      1  C   UNL     1       3.498  -1.442  -1.615  0.00  0.00    +0.047 C 
ATOM      2  C   UNL     1       2.888  -0.959  -0.297  0.00  0.00    +0.135 C 
ATOM      3  C   UNL     1       3.731   0.143   0.312  0.00  0.00    +0.251 C 
ATOM      4  O   UNL     1       3.980   1.227  -0.172  0.00  0.00    -0.272 OA
ATOM      5  N   UNL     1       4.146  -0.331   1.503  0.00  0.00    -0.215 N 
ATOM      6  C   UNL     1       3.688  -1.568   1.728  0.00  0.00    +0.310 C 
ATOM      7  O   UNL     1       3.929  -2.204   2.735  0.00  0.00    -0.252 OA
ATOM      8  N   UNL     1       2.930  -2.028   0.716  0.00  0.00    -0.281 N 
ATOM      9  H   UNL     1       2.496  -2.893   0.664  0.00  0.00    +0.152 HD
ENDROOT
BRANCH   2  10
ATOM     10  C   UNL     1       1.473  -0.488  -0.512  0.00  0.00    -0.015 A 
ATOM     11  C   UNL     1       1.237   0.841  -0.861  0.00  0.00    +0.007 A 
ATOM     12  C   UNL     1      -0.029   1.298  -1.063  0.00  0.00    +0.009 A 
ATOM     13  C   UNL     1      -1.117   0.421  -0.918  0.00  0.00    -0.018 A 
ATOM     14  C   UNL     1      -2.438   0.857  -1.117  0.00  0.00    +0.008 A 
ATOM     15  C   UNL     1      -3.467  -0.021  -0.967  0.00  0.00    +0.001 A 
ATOM     16  C   UNL     1      -3.231  -1.350  -0.618  0.00  0.00    +0.001 A 
ATOM     17  C   UNL     1      -1.965  -1.808  -0.417  0.00  0.00    +0.008 A 
ATOM     18  C   UNL     1      -0.877  -0.932  -0.569  0.00  0.00    -0.018 A 
ATOM     19  C   UNL     1       0.444  -1.366  -0.363  0.00  0.00    +0.014 A 
ENDBRANCH   2  10
BRANCH   5  20
ATOM     20  C   UNL     1       4.994   0.415   2.436  0.00  0.00    +0.213 C 
BRANCH  20  21
ATOM     21  C   UNL     1       6.443   0.129   2.136  0.00  0.00    +0.231 C 
ATOM     22  O   UNL     1       6.738  -0.624   1.232  0.00  0.00    -0.274 OA
ATOM     23  N   UNL     1       7.411   0.710   2.873  0.00  0.00    -0.315 N 
ATOM     24  H   UNL     1       7.175   1.312   3.595  0.00  0.00    +0.149 HD
BRANCH  23  25
ATOM     25  C   UNL     1       8.819   0.432   2.581  0.00  0.00    +0.092 C 
BRANCH  25  26
ATOM     26  C   UNL     1       9.698   1.071   3.659  0.00  0.00    -0.049 C 
ATOM     27  C   UNL     1       9.328   2.547   3.810  0.00  0.00    -0.010 C 
ATOM     28  C   UNL     1       9.548   3.268   2.479  0.00  0.00    -0.001 C 
ATOM     29  C   UNL     1      11.018   3.151   2.073  0.00  0.00    -0.000 C 
ATOM     30  C   UNL     1      11.389   1.674   1.921  0.00  0.00    -0.001 C 
ATOM     31  C   UNL     1      11.169   0.953   3.252  0.00  0.00    -0.010 C 
BRANCH  26  37
ATOM     32  C   UNL     1       9.788  -1.055   4.816  0.00  0.00    -0.049 C 
ATOM     33  C   UNL     1       9.612  -1.724   6.182  0.00  0.00    +0.141 C 
ATOM     34  O   UNL     1       8.283  -1.488   6.655  0.00  0.00    -0.383 OA
ATOM     35  C   UNL     1       7.957  -0.102   6.786  0.00  0.00    +0.141 C 
ATOM     36  C   UNL     1       8.116   0.584   5.426  0.00  0.00    -0.049 C 
ATOM     37  N   UNL     1       9.503   0.389   4.956  0.00  0.00    +0.387 N 
ATOM     38  H   UNL     1      10.149   0.792   5.645  0.00  0.00    -0.081 HD
ENDBRANCH  26  37
ENDBRANCH  25  26
ENDBRANCH  23  25
ENDBRANCH  20  21
ENDBRANCH   5  20
TORSDOF 6
