REMARK  Name = ZINC27558067
REMARK  10 active torsions:
REMARK  status: ('A' for Active; 'I' for Inactive)
REMARK    1  A    between atoms: C_1  and  C_2
REMARK    2  A    between atoms: C_2  and  N_3
REMARK    3  A    between atoms: C_7  and  S_25
REMARK    4  A    between atoms: C_11  and  C_12
REMARK    5  A    between atoms: C_12  and  N_13
REMARK    6  A    between atoms: N_13  and  C_14
REMARK    7  A    between atoms: N_13  and  C_15
REMARK    8  A    between atoms: C_15  and  C_17
REMARK    9  A    between atoms: C_15  and  C_18
REMARK   10  A    between atoms: S_25  and  N_28
REMARK                            x       y       z     vdW  Elec       q    Type
REMARK                         _______ _______ _______ _____ _____    ______ ____
ROOT
ATOM      1  N   UNL     1      -2.482   1.145   1.496  0.00  0.00    -0.329 N 
ATOM      2  C   UNL     1      -3.647   1.769   1.095  0.00  0.00    +0.069 A 
ATOM      3  C   UNL     1      -3.936   3.002   0.526  0.00  0.00    +0.030 A 
ATOM      4  C   UNL     1      -5.243   3.332   0.238  0.00  0.00    +0.030 A 
ATOM      5  C   UNL     1      -6.270   2.439   0.513  0.00  0.00    +0.108 A 
ATOM      6  C   UNL     1      -6.003   1.219   1.066  0.00  0.00    +0.058 A 
ATOM      7  C   UNL     1      -4.686   0.865   1.370  0.00  0.00    +0.091 A 
ATOM      8  N   UNL     1      -4.116  -0.237   1.922  0.00  0.00    -0.234 NA
ATOM      9  C   UNL     1      -2.828  -0.073   1.995  0.00  0.00    +0.094 A 
ENDROOT
BRANCH   5  10
ATOM     10  S   UNL     1      -7.934   2.882   0.137  0.00  0.00    +0.061 S 
ATOM     11  O   UNL     1      -8.763   2.103   0.989  0.00  0.00    -0.153 OA
ATOM     12  O   UNL     1      -7.982   4.302   0.117  0.00  0.00    -0.153 OA
BRANCH  10  13
ATOM     13  N   UNL     1      -8.237   2.376  -1.410  0.00  0.00    -0.172 NA
ATOM     14  C   UNL     1      -7.986   3.260  -2.559  0.00  0.00    +0.137 C 
ATOM     15  C   UNL     1      -7.144   2.485  -3.585  0.00  0.00    +0.177 C 
ATOM     16  O   UNL     1      -7.785   1.240  -3.872  0.00  0.00    -0.377 OA
ATOM     17  C   UNL     1      -7.897   0.366  -2.745  0.00  0.00    +0.177 C 
ATOM     18  C   UNL     1      -8.771   1.031  -1.676  0.00  0.00    +0.137 C 
ENDBRANCH  10  13
ENDBRANCH   5  10
BRANCH   1  20
ATOM     19  C   UNL     1      -0.507   1.305   0.062  0.00  0.00    +0.027 C 
ATOM     20  C   UNL     1      -1.127   1.694   1.406  0.00  0.00    +0.120 C 
ENDBRANCH   1  20
BRANCH   9  21
ATOM     21  C   UNL     1      -1.859  -1.084   2.551  0.00  0.00    -0.003 C 
BRANCH  21  22
ATOM     22  N   UNL     1      -1.686  -0.855   3.992  0.00  0.00    +0.387 N 
ATOM     23  C   UNL     1      -1.030   0.434   4.246  0.00  0.00    -0.095 C 
ATOM     24  H   UNL     1      -2.686  -0.822   4.451  0.00  0.00    -0.081 HD
BRANCH  22  25
ATOM     25  C   UNL     1      -0.940  -1.957   4.615  0.00  0.00    -0.041 C 
ATOM     26  C   UNL     1       0.512  -1.923   4.136  0.00  0.00    -0.008 C 
BRANCH  25  27
ATOM     27  C   UNL     1      -0.979  -1.806   6.114  0.00  0.00    -0.061 A 
ATOM     28  C   UNL     1       0.109  -2.191   6.875  0.00  0.00    +0.005 A 
ATOM     29  C   UNL     1       0.077  -2.049   8.249  0.00  0.00    +0.038 A 
ATOM     30  C   UNL     1      -1.050  -1.530   8.864  0.00  0.00    +0.123 A 
ATOM     31  C   UNL     1      -2.141  -1.150   8.101  0.00  0.00    +0.038 A 
ATOM     32  C   UNL     1      -2.104  -1.288   6.727  0.00  0.00    +0.005 A 
ATOM     33  F   UNL     1      -1.085  -1.395  10.208  0.00  0.00    -0.205 F 
ENDBRANCH  25  27
ENDBRANCH  22  25
ENDBRANCH  21  22
ENDBRANCH   9  21
TORSDOF 7
