REMARK  Name = ZINC36207852
REMARK  12 active torsions:
REMARK  status: ('A' for Active; 'I' for Inactive)
REMARK    1  A    between atoms: C_1  and  O_2
REMARK    2  A    between atoms: O_2  and  C_3
REMARK    3  A    between atoms: C_6  and  C_9
REMARK    4  A    between atoms: C_18  and  C_20
REMARK    5  A    between atoms: C_20  and  N_21
REMARK    6  A    between atoms: N_21  and  C_22
REMARK    7  A    between atoms: N_21  and  C_34
REMARK    8  A    between atoms: C_22  and  C_23
REMARK    9  A    between atoms: C_23  and  C_25
REMARK   10  A    between atoms: C_23  and  O_33
REMARK   11  A    between atoms: C_25  and  O_26
REMARK   12  A    between atoms: O_26  and  C_27
REMARK                            x       y       z     vdW  Elec       q    Type
REMARK                         _______ _______ _______ _____ _____    ______ ____
ROOT
ATOM      1  C   UNL     1       2.685  -2.135   5.053  0.00  0.00    +0.004 A 
ATOM      2  C   UNL     1       3.957  -1.840   5.414  0.00  0.00    +0.056 A 
ATOM      3  S   UNL     1       4.357  -3.115   6.594  0.00  0.00    -0.076 S 
ATOM      4  C   UNL     1       2.822  -4.006   6.574  0.00  0.00    +0.116 A 
ATOM      5  C   UNL     1       2.034  -3.290   5.658  0.00  0.00    +0.080 A 
ATOM      6  C   UNL     1       0.712  -3.798   5.448  0.00  0.00    +0.260 A 
ATOM      7  O   UNL     1      -0.046  -3.248   4.668  0.00  0.00    -0.267 OA
ATOM      8  N   UNL     1       0.320  -4.894   6.125  0.00  0.00    -0.312 N 
ATOM      9  H   UNL     1      -0.575  -5.242   5.986  0.00  0.00    +0.170 HD
ATOM     10  C   UNL     1       1.151  -5.520   6.997  0.00  0.00    +0.094 A 
ATOM     11  N   UNL     1       2.365  -5.085   7.202  0.00  0.00    -0.229 NA
ENDROOT
BRANCH   1  15
ATOM     12  C   UNL     1       0.626   0.275   2.217  0.00  0.00    +0.120 A 
ATOM     13  C   UNL     1       1.270   0.870   3.293  0.00  0.00    +0.046 A 
ATOM     14  C   UNL     1       1.938   0.091   4.215  0.00  0.00    +0.012 A 
ATOM     15  C   UNL     1       1.967  -1.295   4.064  0.00  0.00    -0.016 A 
ATOM     16  C   UNL     1       1.318  -1.889   2.982  0.00  0.00    +0.012 A 
ATOM     17  C   UNL     1       0.647  -1.105   2.067  0.00  0.00    +0.046 A 
BRANCH  12  19
ATOM     18  C   UNL     1      -0.015   2.458   1.525  0.00  0.00    +0.277 C 
ATOM     19  O   UNL     1      -0.032   1.045   1.311  0.00  0.00    -0.495 OA
ENDBRANCH  12  19
ENDBRANCH   1  15
BRANCH  10  20
ATOM     20  C   UNL     1       0.667  -6.743   7.732  0.00  0.00    -0.003 C 
BRANCH  20  21
ATOM     21  N   UNL     1       1.734  -7.240   8.611  0.00  0.00    +0.388 N 
ATOM     22  H   UNL     1       2.570  -7.400   8.069  0.00  0.00    -0.081 HD
BRANCH  21  23
ATOM     23  C   UNL     1       2.012  -6.244   9.655  0.00  0.00    -0.068 C 
ATOM     24  C   UNL     1       3.409  -5.621   9.682  0.00  0.00    -0.017 C 
ATOM     25  C   UNL     1       3.001  -6.632  10.756  0.00  0.00    -0.017 C 
ENDBRANCH  21  23
BRANCH  21  26
ATOM     26  C   UNL     1       1.307  -8.498   9.237  0.00  0.00    -0.043 C 
BRANCH  26  27
ATOM     27  C   UNL     1       1.134  -9.570   8.159  0.00  0.00    +0.135 C 
BRANCH  27  28
ATOM     28  O   UNL     1       2.376  -9.771   7.482  0.00  0.00    -0.390 OA
ATOM     29  H   UNL     1       3.096 -10.060   8.059  0.00  0.00    +0.210 HD
ENDBRANCH  27  28
BRANCH  27  30
ATOM     30  C   UNL     1       0.691 -10.882   8.811  0.00  0.00    +0.258 C 
BRANCH  30  31
ATOM     31  O   UNL     1       0.416 -11.850   7.796  0.00  0.00    -0.489 OA
BRANCH  31  32
ATOM     32  C   UNL     1       0.009 -13.078   8.209  0.00  0.00    +0.121 A 
ATOM     33  C   UNL     1      -0.131 -13.345   9.563  0.00  0.00    +0.045 A 
ATOM     34  C   UNL     1      -0.546 -14.595   9.981  0.00  0.00    +0.004 A 
ATOM     35  C   UNL     1      -0.823 -15.579   9.050  0.00  0.00    +0.000 A 
ATOM     36  C   UNL     1      -0.684 -15.316   7.700  0.00  0.00    +0.004 A 
ATOM     37  C   UNL     1      -0.275 -14.066   7.277  0.00  0.00    +0.045 A 
ENDBRANCH  31  32
ENDBRANCH  30  31
ENDBRANCH  27  30
ENDBRANCH  26  27
ENDBRANCH  21  26
ENDBRANCH  20  21
ENDBRANCH  10  20
TORSDOF 11
