REMARK  Name = ZINC06757792
REMARK  7 active torsions:
REMARK  status: ('A' for Active; 'I' for Inactive)
REMARK    1  A    between atoms: C_1  and  C_2
REMARK    2  A    between atoms: C_2  and  C_3
REMARK    3  A    between atoms: C_3  and  C_4
REMARK    4  A    between atoms: C_18  and  C_19
REMARK    5  A    between atoms: C_18  and  N_53
REMARK    6  A    between atoms: C_19  and  C_20
REMARK    7  A    between atoms: C_20  and  N_21
REMARK                            x       y       z     vdW  Elec       q    Type
REMARK                         _______ _______ _______ _____ _____    ______ ____
ROOT
ATOM      1  C   UNL     1       5.239   1.362  -5.532  0.00  0.00    -0.030 A 
ATOM      2  C   UNL     1       5.716   2.449  -4.870  0.00  0.00    +0.096 A 
ATOM      3  C   UNL     1       4.975   2.996  -3.805  0.00  0.00    +0.337 A 
ATOM      4  O   UNL     1       5.421   3.970  -3.225  0.00  0.00    -0.245 OA
ATOM      5  O   UNL     1       3.804   2.493  -3.403  0.00  0.00    -0.422 OA
ATOM      6  C   UNL     1       3.280   1.416  -4.021  0.00  0.00    +0.144 A 
ATOM      7  C   UNL     1       3.955   0.808  -5.094  0.00  0.00    +0.023 A 
ATOM      8  C   UNL     1       3.403  -0.311  -5.728  0.00  0.00    +0.035 A 
ATOM      9  C   UNL     1       2.206  -0.808  -5.303  0.00  0.00    +0.083 A 
ATOM     10  C   UNL     1       1.526  -0.210  -4.239  0.00  0.00    +0.141 A 
ATOM     11  C   UNL     1       2.061   0.894  -3.601  0.00  0.00    +0.022 A 
ATOM     12  C   UNL     1       1.341   1.545  -2.447  0.00  0.00    -0.031 C 
ATOM     13  C   UNL     1      -0.151  -0.346  -2.556  0.00  0.00    +0.157 C 
ATOM     14  O   UNL     1       0.335  -0.731  -3.844  0.00  0.00    -0.508 OA
ATOM     15 CL   UNL     1       1.521  -2.196  -6.090  0.00  0.00    -0.080 Cl
ATOM     16  N   UNL     1      -0.073   1.125  -2.461  0.00  0.00    +0.405 N 
ATOM     17  H   UNL     1      -0.538   1.539  -3.278  0.00  0.00    -0.076 HD
ENDROOT
BRANCH   1  18
ATOM     18  C   UNL     1       6.003   0.748  -6.676  0.00  0.00    +0.036 C 
BRANCH  18  20
ATOM     19  C   UNL     1       6.261   0.693  -9.161  0.00  0.00    +0.004 C 
ATOM     20  C   UNL     1       5.485   1.316  -7.999  0.00  0.00    +0.001 C 
ENDBRANCH  18  20
ENDBRANCH   1  18
BRANCH  16  21
ATOM     21  C   UNL     1      -0.753   1.593  -1.232  0.00  0.00    -0.072 C 
BRANCH  21  22
ATOM     22  C   UNL     1      -0.013   1.086   0.008  0.00  0.00    +0.001 C 
BRANCH  22  23
ATOM     23  C   UNL     1      -0.729   1.579   1.267  0.00  0.00    +0.106 C 
BRANCH  23  24
ATOM     24  N   UNL     1      -0.020   1.094   2.454  0.00  0.00    -0.302 N 
ATOM     25  C   UNL     1      -0.310  -0.176   3.129  0.00  0.00    +0.108 C 
ATOM     26  C   UNL     1       0.928  -0.464   4.010  0.00  0.00    +0.028 C 
ATOM     27  C   UNL     1       1.480   0.961   4.250  0.00  0.00    +0.097 C 
ATOM     28  C   UNL     1       0.975   1.758   3.067  0.00  0.00    +0.216 C 
ATOM     29  O   UNL     1       1.404   2.838   2.723  0.00  0.00    -0.276 OA
ENDBRANCH  23  24
ENDBRANCH  22  23
ENDBRANCH  21  22
ENDBRANCH  16  21
TORSDOF 6
