REMARK  Name = ZINC10219010
REMARK  5 active torsions:
REMARK  status: ('A' for Active; 'I' for Inactive)
REMARK    1  A    between atoms: C_3  and  S_8
REMARK    2  A    between atoms: S_8  and  C_11
REMARK    3  A    between atoms: C_11  and  C_12
REMARK    4  A    between atoms: C_12  and  C_13
REMARK    5  A    between atoms: C_13  and  C_14
REMARK                            x       y       z     vdW  Elec       q    Type
REMARK                         _______ _______ _______ _____ _____    ______ ____
ROOT
ATOM      1  C   UNL     1      -0.919   1.915  -5.101  0.00  0.00    +0.219 C 
ATOM      2  O   UNL     1       0.140   1.331  -5.189  0.00  0.00    -0.275 OA
ATOM      3  N   UNL     1      -1.582   2.281  -6.215  0.00  0.00    -0.265 N 
ATOM      4  C   UNL     1      -1.053   1.989  -7.463  0.00  0.00    +0.165 A 
ATOM      5  N   UNL     1      -1.545   2.261  -8.649  0.00  0.00    -0.224 NA
ATOM      6  C   UNL     1      -0.915   1.913  -9.794  0.00  0.00    +0.084 A 
ATOM      7  C   UNL     1      -1.335   2.144 -11.124  0.00  0.00    +0.078 A 
ATOM      8  C   UNL     1      -0.574   1.723 -12.192  0.00  0.00    +0.164 A 
ATOM      9  C   UNL     1       0.636   1.060 -11.990  0.00  0.00    +0.163 A 
ATOM     10  C   UNL     1       1.074   0.818 -10.698  0.00  0.00    +0.066 A 
ATOM     11  C   UNL     1       0.315   1.236  -9.634  0.00  0.00    +0.044 A 
ATOM     12  S   UNL     1       0.475   1.155  -7.866  0.00  0.00    -0.052 S 
ATOM     13  O   UNL     1       1.395   0.648 -13.042  0.00  0.00    -0.485 OA
ATOM     14  C   UNL     1       0.745   0.577 -14.315  0.00  0.00    +0.270 C 
ATOM     15  C   UNL     1      -0.063   1.867 -14.512  0.00  0.00    +0.270 C 
ATOM     16  O   UNL     1      -1.025   1.962 -13.457  0.00  0.00    -0.485 OA
ATOM     17  H   UNL     1      -2.429   2.748  -6.145  0.00  0.00    +0.157 HD
ENDROOT
BRANCH   1  18
ATOM     18  C   UNL     1      -1.493   2.232  -3.744  0.00  0.00    +0.098 C 
BRANCH  18  19
ATOM     19  C   UNL     1      -0.551   1.712  -2.657  0.00  0.00    +0.032 C 
BRANCH  19  20
ATOM     20  C   UNL     1      -1.135   2.034  -1.279  0.00  0.00    +0.172 C 
BRANCH  20  21
ATOM     21  S   UNL     1      -0.017   1.417   0.010  0.00  0.00    -0.003 S 
ATOM     22  O   UNL     1       0.002  -0.004   0.002  0.00  0.00    -0.169 OA
ATOM     23  O   UNL     1       1.195   2.158   0.002  0.00  0.00    -0.169 OA
BRANCH  21  26
ATOM     24  C   UNL     1      -2.295   1.304   3.317  0.00  0.00    +0.040 A 
ATOM     25  C   UNL     1      -1.683   0.968   2.125  0.00  0.00    +0.030 A 
ATOM     26  C   UNL     1      -0.798   1.847   1.530  0.00  0.00    +0.088 A 
ATOM     27  C   UNL     1      -0.521   3.062   2.128  0.00  0.00    +0.030 A 
ATOM     28  C   UNL     1      -1.136   3.403   3.318  0.00  0.00    +0.040 A 
ATOM     29  C   UNL     1      -2.022   2.523   3.915  0.00  0.00    +0.124 A 
ATOM     30  F   UNL     1      -2.621   2.853   5.081  0.00  0.00    -0.205 F 
ENDBRANCH  21  26
ENDBRANCH  20  21
ENDBRANCH  19  20
ENDBRANCH  18  19
ENDBRANCH   1  18
TORSDOF 5
