REMARK  Name = ZINC39685797
REMARK  11 active torsions:
REMARK  status: ('A' for Active; 'I' for Inactive)
REMARK    1  A    between atoms: C_1  and  C_2
REMARK    2  A    between atoms: C_2  and  C_3
REMARK    3  A    between atoms: C_2  and  C_4
REMARK    4  A    between atoms: C_4  and  C_6
REMARK    5  A    between atoms: C_4  and  N_13
REMARK    6  A    between atoms: N_8  and  C_9
REMARK    7  A    between atoms: C_9  and  C_10
REMARK    8  A    between atoms: C_9  and  C_11
REMARK    9  A    between atoms: C_9  and  C_12
REMARK   10  A    between atoms: C_14  and  C_16
REMARK   11  A    between atoms: C_27  and  C_29
REMARK                            x       y       z     vdW  Elec       q    Type
REMARK                         _______ _______ _______ _____ _____    ______ ____
ROOT
ATOM      1  C   UNL     1      -0.378  -3.499   1.948  0.00  0.00    +0.100 C 
ATOM      2  C   UNL     1       0.880  -3.927   1.158  0.00  0.00    +0.121 C 
ATOM      3  N   UNL     1       1.963  -3.960   2.169  0.00  0.00    -0.296 N 
ATOM      4  C   UNL     1       1.322  -4.529   3.378  0.00  0.00    +0.115 C 
ATOM      5  C   UNL     1      -0.085  -3.900   3.403  0.00  0.00    -0.004 C 
ATOM      6  C   UNL     1      -1.111  -4.920   3.887  0.00  0.00    -0.010 C 
ATOM      7  C   UNL     1      -0.835  -5.259   5.355  0.00  0.00    -0.082 C 
ATOM      8  N   UNL     1      -0.911  -4.036   6.164  0.00  0.00    +0.379 N 
ATOM      9  C   UNL     1       0.140  -3.098   5.753  0.00  0.00    -0.082 C 
ATOM     10  C   UNL     1      -0.095  -2.668   4.303  0.00  0.00    -0.010 C 
ATOM     11  C   UNL     1       3.243  -3.562   2.022  0.00  0.00    +0.248 C 
ATOM     12  O   UNL     1       4.039  -3.730   2.925  0.00  0.00    -0.270 OA
ATOM     13  H   UNL     1      -1.814  -3.605   6.035  0.00  0.00    -0.086 HD
ATOM     14  H   UNL     1      -0.789  -4.271   7.138  0.00  0.00    -0.086 HD
ENDROOT
BRANCH  11  15
ATOM     15  C   UNL     1       3.678  -2.923   0.762  0.00  0.00    +0.057 A 
ATOM     16  C   UNL     1       3.122  -3.322  -0.455  0.00  0.00    +0.014 A 
ATOM     17  C   UNL     1       3.532  -2.722  -1.627  0.00  0.00    +0.002 A 
ATOM     18  C   UNL     1       4.492  -1.726  -1.600  0.00  0.00    +0.021 A 
ATOM     19  C   UNL     1       5.048  -1.325  -0.398  0.00  0.00    +0.060 A 
ATOM     20  C   UNL     1       4.642  -1.913   0.785  0.00  0.00    +0.071 A 
ATOM     21 CL   UNL     1       5.335  -1.404   2.293  0.00  0.00    -0.081 Cl
ATOM     22 CL   UNL     1       6.253  -0.075  -0.376  0.00  0.00    -0.082 Cl
ENDBRANCH  11  15
BRANCH   1  24
ATOM     23  N   UNL     1      -1.811  -1.484   2.012  0.00  0.00    -0.303 N 
ATOM     24  C   UNL     1      -0.581  -2.010   1.844  0.00  0.00    +0.219 C 
ATOM     25  O   UNL     1       0.362  -1.284   1.610  0.00  0.00    -0.275 OA
ATOM     26  H   UNL     1      -2.565  -2.065   2.199  0.00  0.00    +0.149 HD
BRANCH  23  27
ATOM     27  C   UNL     1      -2.008  -0.036   1.911  0.00  0.00    +0.161 C 
BRANCH  27  28
ATOM     28  C   UNL     1      -3.229   0.361   2.701  0.00  0.00    +0.234 C 
ATOM     29  O   UNL     1      -3.998  -0.490   3.096  0.00  0.00    -0.274 OA
ATOM     30  N   UNL     1      -3.465   1.660   2.970  0.00  0.00    -0.309 N 
ATOM     31  H   UNL     1      -2.814   2.334   2.716  0.00  0.00    +0.149 HD
BRANCH  30  32
ATOM     32  C   UNL     1      -4.703   2.055   3.646  0.00  0.00    +0.026 C 
ATOM     33  C   UNL     1      -4.776   1.375   5.015  0.00  0.00    +0.031 C 
ATOM     34  C   UNL     1      -4.722   3.574   3.829  0.00  0.00    +0.031 C 
ATOM     35  C   UNL     1      -5.904   1.629   2.800  0.00  0.00    +0.031 C 
ENDBRANCH  30  32
ENDBRANCH  27  28
BRANCH  27  37
ATOM     36  C   UNL     1      -0.906   0.098  -0.327  0.00  0.00    +0.009 C 
ATOM     37  C   UNL     1      -2.203   0.352   0.444  0.00  0.00    +0.012 C 
ATOM     38  C   UNL     1      -3.328  -0.490  -0.161  0.00  0.00    +0.009 C 
ENDBRANCH  27  37
ENDBRANCH  23  27
ENDBRANCH   1  24
TORSDOF 6
