REMARK  Name = ZINC12279378
REMARK  9 active torsions:
REMARK  status: ('A' for Active; 'I' for Inactive)
REMARK    1  A    between atoms: C_1  and  O_2
REMARK    2  A    between atoms: O_2  and  C_3
REMARK    3  A    between atoms: C_8  and  C_9
REMARK    4  A    between atoms: C_9  and  N_10
REMARK    5  A    between atoms: C_11  and  C_13
REMARK    6  A    between atoms: C_16  and  S_28
REMARK    7  A    between atoms: C_19  and  C_20
REMARK    8  A    between atoms: C_19  and  N_59
REMARK    9  A    between atoms: S_28  and  C_29
REMARK                            x       y       z     vdW  Elec       q    Type
REMARK                         _______ _______ _______ _____ _____    ______ ____
ROOT
ATOM      1  C   UNL     1      -0.010   1.414   0.180  0.00  0.00    +0.021 C 
ATOM      2  C   UNL     1      -0.871   1.931   1.347  0.00  0.00    +0.006 C 
ATOM      3  C   UNL     1      -1.915   2.868   0.688  0.00  0.00    +0.034 C 
ATOM      4  C   UNL     1      -1.237   3.257  -0.650  0.00  0.00    -0.063 C 
ATOM      5  N   UNL     1      -0.570   2.009  -1.039  0.00  0.00    +0.391 N 
ATOM      6  H   UNL     1      -1.253   1.367  -1.457  0.00  0.00    -0.080 HD
ENDROOT
BRANCH   1   8
ATOM      7  N   UNL     1       0.350  -0.835   1.146  0.00  0.00    -0.312 N 
ATOM      8  C   UNL     1      -0.087  -0.090   0.112  0.00  0.00    +0.200 C 
ATOM      9  O   UNL     1      -0.543  -0.629  -0.874  0.00  0.00    -0.278 OA
ATOM     10  H   UNL     1       0.715  -0.403   1.935  0.00  0.00    +0.149 HD
BRANCH   7  11
ATOM     11  C   UNL     1       0.274  -2.296   1.080  0.00  0.00    +0.143 C 
BRANCH  11  17
ATOM     12  C   UNL     1       0.034  -2.932   3.494  0.00  0.00    +0.125 A 
ATOM     13  C   UNL     1       0.542  -3.476   4.664  0.00  0.00    +0.046 A 
ATOM     14  C   UNL     1       1.832  -3.970   4.692  0.00  0.00    +0.004 A 
ATOM     15  C   UNL     1       2.616  -3.923   3.554  0.00  0.00    +0.001 A 
ATOM     16  C   UNL     1       2.111  -3.386   2.385  0.00  0.00    +0.009 A 
ATOM     17  C   UNL     1       0.823  -2.886   2.353  0.00  0.00    +0.011 A 
BRANCH  12  19
ATOM     18  C   UNL     1      -1.989  -2.525   4.674  0.00  0.00    +0.277 C 
ATOM     19  O   UNL     1      -1.234  -2.445   3.463  0.00  0.00    -0.495 OA
ENDBRANCH  12  19
ENDBRANCH  11  17
ENDBRANCH   7  11
ENDBRANCH   1   8
BRANCH   5  20
ATOM     20  C   UNL     1       0.516   2.280  -2.028  0.00  0.00    -0.042 C 
BRANCH  20  21
ATOM     21  C   UNL     1      -0.034   3.097  -3.168  0.00  0.00    -0.061 A 
ATOM     22  C   UNL     1      -0.553   2.465  -4.283  0.00  0.00    +0.005 A 
ATOM     23  C   UNL     1      -1.064   3.212  -5.328  0.00  0.00    +0.041 A 
ATOM     24  C   UNL     1      -1.046   4.594  -5.264  0.00  0.00    +0.158 A 
ATOM     25  C   UNL     1      -0.520   5.228  -4.149  0.00  0.00    +0.159 A 
ATOM     26  C   UNL     1      -0.015   4.477  -3.102  0.00  0.00    +0.043 A 
ATOM     27  F   UNL     1      -0.501   6.577  -4.084  0.00  0.00    -0.202 F 
ATOM     28  F   UNL     1      -1.540   5.325  -6.287  0.00  0.00    -0.202 F 
ENDBRANCH  20  21
ENDBRANCH   5  20
BRANCH   3  29
ATOM     29  S   UNL     1      -2.200   4.337   1.714  0.00  0.00    -0.124 S 
BRANCH  29  30
ATOM     30  C   UNL     1      -3.464   5.217   0.857  0.00  0.00    +0.008 A 
ATOM     31  C   UNL     1      -3.854   6.476   1.295  0.00  0.00    +0.017 A 
ATOM     32  C   UNL     1      -4.841   7.166   0.618  0.00  0.00    +0.039 A 
ATOM     33  C   UNL     1      -5.448   6.600  -0.490  0.00  0.00    +0.123 A 
ATOM     34  C   UNL     1      -5.064   5.342  -0.925  0.00  0.00    +0.039 A 
ATOM     35  C   UNL     1      -4.074   4.651  -0.255  0.00  0.00    +0.017 A 
ATOM     36  F   UNL     1      -6.417   7.274  -1.147  0.00  0.00    -0.205 F 
ENDBRANCH  29  30
ENDBRANCH   3  29
TORSDOF 8
