REMARK  Name = ZINC66732304
REMARK  6 active torsions:
REMARK  status: ('A' for Active; 'I' for Inactive)
REMARK    1  A    between atoms: C_1  and  C_2
REMARK    2  A    between atoms: C_4  and  N_9
REMARK    3  A    between atoms: C_6  and  C_8
REMARK    4  A    between atoms: C_13  and  O_16
REMARK    5  A    between atoms: O_16  and  C_17
REMARK    6  A    between atoms: C_17  and  C_19
REMARK                            x       y       z     vdW  Elec       q    Type
REMARK                         _______ _______ _______ _____ _____    ______ ____
ROOT
ATOM      1  N   UNL     1       0.030  -2.832  -2.322  0.00  0.00    -0.312 N 
ATOM      2  C   UNL     1       0.044  -4.300  -2.279  0.00  0.00    +0.107 C 
ATOM      3  C   UNL     1      -1.120  -4.830  -3.122  0.00  0.00    +0.023 C 
ATOM      4  C   UNL     1      -1.033  -4.241  -4.532  0.00  0.00    +0.048 C 
ATOM      5  C   UNL     1      -1.144  -2.716  -4.458  0.00  0.00    +0.194 C 
ATOM      6  C   UNL     1       0.014  -2.163  -3.630  0.00  0.00    +0.151 C 
ENDROOT
BRANCH   1  10
ATOM      7  C   UNL     1       0.416   1.476   0.029  0.00  0.00    +0.063 C 
ATOM      8  C   UNL     1       0.209  -0.017   0.011  0.00  0.00    +0.017 A 
ATOM      9  C   UNL     1       0.222  -0.710  -1.184  0.00  0.00    +0.064 A 
ATOM     10  C   UNL     1       0.026  -2.092  -1.150  0.00  0.00    +0.125 A 
ATOM     11  N   UNL     1      -0.166  -2.686   0.024  0.00  0.00    -0.220 NA
ATOM     12  C   UNL     1      -0.171  -1.986   1.139  0.00  0.00    +0.106 A 
ATOM     13  N   UNL     1       0.016  -0.681   1.142  0.00  0.00    -0.347 N 
ATOM     14  C   UNL     1      -0.392  -2.696   2.450  0.00  0.00    +0.086 C 
ATOM     15  H   UNL     1       0.010  -0.199   1.984  0.00  0.00    +0.167 HD
ENDBRANCH   1  10
BRANCH   5  16
ATOM     16  O   UNL     1      -1.095  -2.169  -5.777  0.00  0.00    -0.456 OA
BRANCH  16  17
ATOM     17  C   UNL     1      -2.268  -2.018  -6.421  0.00  0.00    +0.340 C 
ATOM     18  O   UNL     1      -3.306  -2.342  -5.878  0.00  0.00    -0.245 OA
BRANCH  17  19
ATOM     19  C   UNL     1      -2.294  -1.460  -7.786  0.00  0.00    +0.061 A 
ATOM     20  C   UNL     1      -1.101  -1.092  -8.415  0.00  0.00    +0.018 A 
ATOM     21  C   UNL     1      -1.123  -0.571  -9.690  0.00  0.00    +0.048 A 
ATOM     22  C   UNL     1      -2.331  -0.409 -10.354  0.00  0.00    +0.142 A 
ATOM     23  C   UNL     1      -3.527  -0.774  -9.731  0.00  0.00    +0.076 A 
ATOM     24  C   UNL     1      -3.511  -1.303  -8.456  0.00  0.00    +0.042 A 
ATOM     25  N   UNL     1      -4.737  -0.601 -10.418  0.00  0.00    -0.280 N 
ATOM     26  C   UNL     1      -4.708  -0.392 -11.752  0.00  0.00    +0.255 C 
ATOM     27  O   UNL     1      -5.740  -0.209 -12.363  0.00  0.00    -0.272 OA
ATOM     28  C   UNL     1      -3.388  -0.387 -12.479  0.00  0.00    +0.325 C 
ATOM     29  O   UNL     1      -2.363   0.103 -11.611  0.00  0.00    -0.481 OA
ATOM     30  H   UNL     1      -5.582  -0.630  -9.943  0.00  0.00    +0.155 HD
ENDBRANCH  17  19
ENDBRANCH  16  17
ENDBRANCH   5  16
TORSDOF 4
