REMARK  Name = ZINC01066413
REMARK  9 active torsions:
REMARK  status: ('A' for Active; 'I' for Inactive)
REMARK    1  A    between atoms: C_1  and  C_2
REMARK    2  A    between atoms: C_2  and  C_3
REMARK    3  A    between atoms: C_3  and  C_5
REMARK    4  A    between atoms: C_3  and  O_6
REMARK    5  A    between atoms: O_6  and  C_7
REMARK    6  A    between atoms: C_7  and  C_9
REMARK    7  A    between atoms: C_10  and  C_28
REMARK    8  A    between atoms: C_14  and  C_18
REMARK    9  A    between atoms: C_15  and  N_17
REMARK                            x       y       z     vdW  Elec       q    Type
REMARK                         _______ _______ _______ _____ _____    ______ ____
ROOT
ATOM      1  C   UNL     1      -0.028   0.477  -4.730  0.00  0.00    +0.100 C 
ATOM      2  C   UNL     1       0.531   0.727  -5.931  0.00  0.00    +0.111 C 
ATOM      3  O   UNL     1      -0.369   1.076  -6.870  0.00  0.00    -0.450 OA
ATOM      4  C   UNL     1      -1.677   0.753  -6.427  0.00  0.00    +0.304 C 
ATOM      5  C   UNL     1      -1.507   0.662  -4.879  0.00  0.00    +0.188 C 
ATOM      6  C   UNL     1      -2.025   1.988  -4.419  0.00  0.00    +0.112 C 
ATOM      7  C   UNL     1      -2.652   2.566  -5.484  0.00  0.00    +0.197 C 
ATOM      8  O   UNL     1      -2.633   1.791  -6.584  0.00  0.00    -0.432 OA
ATOM      9  C   UNL     1      -2.331  -0.521  -4.492  0.00  0.00    +0.188 C 
ATOM     10  O   UNL     1      -2.777  -0.760  -3.390  0.00  0.00    -0.290 OA
ATOM     11  C   UNL     1      -2.502  -1.346  -5.708  0.00  0.00    +0.030 A 
ATOM     12  C   UNL     1      -2.165  -0.600  -6.840  0.00  0.00    +0.048 A 
ATOM     13  C   UNL     1      -2.307  -1.177  -8.088  0.00  0.00    +0.012 A 
ATOM     14  C   UNL     1      -2.756  -2.478  -8.214  0.00  0.00    +0.001 A 
ATOM     15  C   UNL     1      -3.069  -3.222  -7.090  0.00  0.00    +0.001 A 
ATOM     16  C   UNL     1      -2.933  -2.670  -5.850  0.00  0.00    +0.012 A 
ATOM     17  C   UNL     1       2.011   0.625  -6.196  0.00  0.00    +0.086 C 
ENDROOT
BRANCH   7  18
ATOM     18  N   UNL     1      -3.235   3.808  -5.441  0.00  0.00    -0.329 N 
ATOM     19  H   UNL     1      -3.215   4.325  -4.621  0.00  0.00    +0.145 HD
ATOM     20  H   UNL     1      -3.666   4.168  -6.231  0.00  0.00    +0.145 HD
ENDBRANCH   7  18
BRANCH   1  21
ATOM     21  C   UNL     1       0.655   0.103  -3.548  0.00  0.00    +0.340 C 
ATOM     22  O   UNL     1       1.866  -0.015  -3.557  0.00  0.00    -0.245 OA
BRANCH  21  23
ATOM     23  O   UNL     1      -0.036  -0.123  -2.412  0.00  0.00    -0.458 OA
BRANCH  23  24
ATOM     24  C   UNL     1       0.718  -0.497  -1.257  0.00  0.00    +0.173 C 
ATOM     25  C   UNL     1       0.849  -2.021  -1.205  0.00  0.00    +0.052 C 
BRANCH  24  27
ATOM     26  C   UNL     1      -0.019   1.526   0.010  0.00  0.00    +0.007 C 
ATOM     27  C   UNL     1       0.002  -0.004   0.002  0.00  0.00    +0.041 C 
ENDBRANCH  24  27
ENDBRANCH  23  24
ENDBRANCH  21  23
ENDBRANCH   1  21
BRANCH   6  28
ATOM     28  C   UNL     1      -1.889   2.545  -3.107  0.00  0.00    +0.101 C 
ATOM     29  N   UNL     1      -1.781   2.988  -2.066  0.00  0.00    -0.191 NA
ENDBRANCH   6  28
TORSDOF 6
