REMARK  Name = ZINC00668372
REMARK  5 active torsions:
REMARK  status: ('A' for Active; 'I' for Inactive)
REMARK    1  A    between atoms: C_1  and  C_2
REMARK    2  A    between atoms: C_2  and  C_3
REMARK    3  A    between atoms: C_15  and  C_17
REMARK    4  A    between atoms: C_28  and  C_30
REMARK    5  A    between atoms: C_28  and  C_31
REMARK                            x       y       z     vdW  Elec       q    Type
REMARK                         _______ _______ _______ _____ _____    ______ ____
ROOT
ATOM      1  C   UNL     1      -0.803  -1.704   0.789  0.00  0.00    +0.220 C 
ATOM      2  O   UNL     1      -1.036  -0.573   0.418  0.00  0.00    -0.275 OA
ATOM      3  N   UNL     1      -1.730  -2.670   0.631  0.00  0.00    -0.258 N 
ATOM      4  C   UNL     1      -1.449  -3.967   1.062  0.00  0.00    +0.058 A 
ATOM      5  C   UNL     1      -0.450  -4.725   0.472  0.00  0.00    +0.025 A 
ATOM      6  C   UNL     1      -0.238  -6.023   0.902  0.00  0.00    +0.002 A 
ATOM      7  C   UNL     1      -1.017  -6.564   1.909  0.00  0.00    +0.002 A 
ATOM      8  C   UNL     1      -2.005  -5.804   2.511  0.00  0.00    +0.025 A 
ATOM      9  C   UNL     1      -2.204  -4.498   2.097  0.00  0.00    +0.053 A 
ATOM     10  N   UNL     1      -3.103  -3.648   2.729  0.00  0.00    -0.316 N 
ATOM     11  C   UNL     1      -4.191  -3.094   2.136  0.00  0.00    +0.017 C 
ATOM     12  C   UNL     1      -4.191  -2.494   0.935  0.00  0.00    +0.037 C 
ATOM     13  C   UNL     1      -3.003  -2.342   0.024  0.00  0.00    +0.149 C 
ATOM     14  C   UNL     1      -5.380  -1.920   0.425  0.00  0.00    +0.163 C 
ATOM     15  O   UNL     1      -5.354  -1.400  -0.673  0.00  0.00    -0.292 OA
ATOM     16  C   UNL     1      -6.670  -1.930   1.188  0.00  0.00    +0.086 C 
ATOM     17  C   UNL     1      -6.353  -1.979   2.687  0.00  0.00    -0.023 C 
ATOM     18  C   UNL     1      -5.478  -3.206   2.938  0.00  0.00    +0.058 C 
ATOM     19  C   UNL     1      -5.600  -0.712   3.099  0.00  0.00    +0.011 C 
ATOM     20  C   UNL     1      -7.651  -2.095   3.489  0.00  0.00    +0.011 C 
ATOM     21  H   UNL     1      -2.942  -3.436   3.662  0.00  0.00    +0.152 HD
ENDROOT
BRANCH  13  22
ATOM     22  C   UNL     1      -3.205  -3.235  -1.173  0.00  0.00    +0.014 A 
ATOM     23  C   UNL     1      -3.757  -4.493  -1.012  0.00  0.00    +0.048 A 
ATOM     24  C   UNL     1      -3.948  -5.310  -2.112  0.00  0.00    +0.020 A 
ATOM     25  C   UNL     1      -3.577  -4.874  -3.370  0.00  0.00    +0.003 A 
ATOM     26  C   UNL     1      -3.021  -3.619  -3.531  0.00  0.00    +0.020 A 
ATOM     27  C   UNL     1      -2.834  -2.799  -2.432  0.00  0.00    +0.048 A 
ATOM     28 CL   UNL     1      -2.136  -1.222  -2.634  0.00  0.00    -0.083 Cl
ATOM     29 CL   UNL     1      -4.217  -5.044   0.568  0.00  0.00    -0.083 Cl
ENDBRANCH  13  22
BRANCH   1  31
ATOM     30  C   UNL     1       1.385  -0.767   1.483  0.00  0.00    +0.013 C 
ATOM     31  C   UNL     1       0.524  -2.030   1.425  0.00  0.00    +0.093 C 
ENDBRANCH   1  31
TORSDOF 2
