REMARK  Name = ZINC48552363
REMARK  11 active torsions:
REMARK  status: ('A' for Active; 'I' for Inactive)
REMARK    1  A    between atoms: C_1  and  C_2
REMARK    2  A    between atoms: C_5  and  S_8
REMARK    3  A    between atoms: S_8  and  N_11
REMARK    4  A    between atoms: N_11  and  N_12
REMARK    5  A    between atoms: C_13  and  C_15
REMARK    6  A    between atoms: C_15  and  N_26
REMARK    7  A    between atoms: C_16  and  C_17
REMARK    8  A    between atoms: C_20  and  N_23
REMARK    9  A    between atoms: N_23  and  C_24
REMARK   10  A    between atoms: N_23  and  C_25
REMARK   11  A    between atoms: C_27  and  C_29
REMARK                            x       y       z     vdW  Elec       q    Type
REMARK                         _______ _______ _______ _____ _____    ______ ____
ROOT
ATOM      1  C   UNL     1       3.915  -5.180   2.591  0.00  0.00    +0.098 C 
ATOM      2  C   UNL     1       4.803  -5.839   3.373  0.00  0.00    +0.036 C 
ENDROOT
BRANCH   2   3
ATOM      3  C   UNL     1       5.768  -5.085   4.185  0.00  0.00    -0.023 A 
ATOM      4  C   UNL     1       6.357  -5.680   5.307  0.00  0.00    +0.010 A 
ATOM      5  C   UNL     1       7.260  -4.970   6.065  0.00  0.00    +0.023 A 
ATOM      6  C   UNL     1       7.588  -3.663   5.717  0.00  0.00    +0.029 A 
ATOM      7  C   UNL     1       7.006  -3.068   4.602  0.00  0.00    +0.023 A 
ATOM      8  C   UNL     1       6.106  -3.772   3.834  0.00  0.00    +0.010 A 
BRANCH   6   9
ATOM      9  N   UNL     1       8.502  -2.948   6.487  0.00  0.00    -0.336 N 
ATOM     10  C   UNL     1       9.116  -3.572   7.662  0.00  0.00    +0.129 C 
ATOM     11  C   UNL     1       8.849  -1.572   6.123  0.00  0.00    +0.129 C 
ENDBRANCH   6   9
ENDBRANCH   2   3
BRANCH   1  13
ATOM     12  N   UNL     1       2.164  -5.274   0.896  0.00  0.00    -0.227 N 
ATOM     13  C   UNL     1       3.047  -5.929   1.674  0.00  0.00    +0.273 C 
ATOM     14  O   UNL     1       3.126  -7.142   1.616  0.00  0.00    -0.267 OA
ATOM     15  H   UNL     1       2.101  -4.307   0.941  0.00  0.00    +0.171 HD
BRANCH  12  16
ATOM     16  N   UNL     1       1.335  -5.988   0.021  0.00  0.00    -0.108 NA
ATOM     17  H   UNL     1       1.724  -6.594  -0.629  0.00  0.00    +0.172 HD
BRANCH  16  18
ATOM     18  S   UNL     1      -0.308  -5.798   0.096  0.00  0.00    +0.074 S 
ATOM     19  O   UNL     1      -0.684  -6.047   1.443  0.00  0.00    -0.152 OA
ATOM     20  O   UNL     1      -0.852  -6.530  -0.994  0.00  0.00    -0.152 OA
BRANCH  18  25
ATOM     21  C   UNL     1      -1.486   0.021  -0.978  0.00  0.00    +0.044 C 
ATOM     22  C   UNL     1      -1.192  -1.433  -0.710  0.00  0.00    -0.050 A 
ATOM     23  C   UNL     1      -1.136  -2.332  -1.759  0.00  0.00    +0.005 A 
ATOM     24  C   UNL     1      -0.866  -3.665  -1.512  0.00  0.00    +0.029 A 
ATOM     25  C   UNL     1      -0.651  -4.099  -0.218  0.00  0.00    +0.107 A 
ATOM     26  C   UNL     1      -0.706  -3.200   0.831  0.00  0.00    +0.029 A 
ATOM     27  C   UNL     1      -0.972  -1.866   0.584  0.00  0.00    +0.005 A 
ENDBRANCH  18  25
ENDBRANCH  16  18
ENDBRANCH  12  16
ENDBRANCH   1  13
BRANCH   1  28
ATOM     28  N   UNL     1       3.825  -3.785   2.656  0.00  0.00    -0.277 N 
ATOM     29  C   UNL     1       4.006  -3.045   1.545  0.00  0.00    +0.248 C 
ATOM     30  O   UNL     1       4.333  -3.581   0.504  0.00  0.00    -0.270 OA
ATOM     31  H   UNL     1       3.633  -3.351   3.502  0.00  0.00    +0.155 HD
BRANCH  29  32
ATOM     32  C   UNL     1       3.805  -1.581   1.591  0.00  0.00    +0.037 A 
ATOM     33  C   UNL     1       3.541  -0.948   2.806  0.00  0.00    +0.013 A 
ATOM     34  C   UNL     1       3.355   0.419   2.842  0.00  0.00    +0.001 A 
ATOM     35  C   UNL     1       3.430   1.161   1.677  0.00  0.00    +0.000 A 
ATOM     36  C   UNL     1       3.691   0.539   0.469  0.00  0.00    +0.001 A 
ATOM     37  C   UNL     1       3.885  -0.826   0.420  0.00  0.00    +0.013 A 
ENDBRANCH  29  32
ENDBRANCH   1  28
TORSDOF 8
