REMARK  Name = ZINC20886251
REMARK  7 active torsions:
REMARK  status: ('A' for Active; 'I' for Inactive)
REMARK    1  A    between atoms: C_4  and  N_7
REMARK    2  A    between atoms: N_9  and  C_29
REMARK    3  A    between atoms: C_12  and  C_15
REMARK    4  A    between atoms: C_15  and  C_16
REMARK    5  A    between atoms: N_18  and  C_19
REMARK    6  A    between atoms: C_21  and  N_26
REMARK    7  A    between atoms: C_29  and  C_30
REMARK                            x       y       z     vdW  Elec       q    Type
REMARK                         _______ _______ _______ _____ _____    ______ ____
ROOT
ATOM      1  N   UNL     1       3.538   1.888  -0.001  0.00  0.00    -0.226 NA
ATOM      2  C   UNL     1       2.315   1.413   0.006  0.00  0.00    +0.164 C 
ATOM      3  N   UNL     1       1.129   2.116   0.023  0.00  0.00    -0.247 N 
ATOM      4  C   UNL     1      -0.050   1.516   0.028  0.00  0.00    +0.235 C 
ATOM      5  O   UNL     1      -1.090   2.139   0.038  0.00  0.00    -0.274 OA
ATOM      6  C   UNL     1      -0.018  -0.004   0.013  0.00  0.00    +0.149 C 
ATOM      7  S   UNL     1       1.794  -0.296  -0.005  0.00  0.00    -0.077 S 
ENDROOT
BRANCH   1  11
ATOM      8  C   UNL     1       6.764  -0.705  -0.053  0.00  0.00    +0.000 A 
ATOM      9  C   UNL     1       6.751   0.395  -0.892  0.00  0.00    +0.002 A 
ATOM     10  C   UNL     1       5.679   1.263  -0.880  0.00  0.00    +0.028 A 
ATOM     11  C   UNL     1       4.605   1.030  -0.018  0.00  0.00    +0.067 A 
ATOM     12  C   UNL     1       4.627  -0.080   0.830  0.00  0.00    +0.028 A 
ATOM     13  C   UNL     1       5.704  -0.942   0.804  0.00  0.00    +0.002 A 
ENDBRANCH   1  11
BRANCH   6  14
ATOM     14  C   UNL     1      -0.684  -0.560  -1.247  0.00  0.00    +0.120 C 
BRANCH  14  15
ATOM     15  C   UNL     1      -0.741  -2.063  -1.163  0.00  0.00    +0.219 C 
ATOM     16  O   UNL     1      -0.294  -2.634  -0.191  0.00  0.00    -0.275 OA
ATOM     17  N   UNL     1      -1.289  -2.774  -2.168  0.00  0.00    -0.284 N 
ATOM     18  H   UNL     1      -1.761  -2.255  -3.016  0.00  0.00    +0.155 HD
BRANCH  17  19
ATOM     19  C   UNL     1      -1.258  -4.173  -2.135  0.00  0.00    +0.054 A 
ATOM     20  C   UNL     1      -1.365  -4.842  -0.923  0.00  0.00    +0.057 A 
ATOM     21  C   UNL     1      -1.335  -6.223  -0.892  0.00  0.00    +0.128 A 
ATOM     22  C   UNL     1      -1.199  -6.939  -2.067  0.00  0.00    +0.034 A 
ATOM     23  C   UNL     1      -1.092  -6.277  -3.276  0.00  0.00    +0.024 A 
ATOM     24  C   UNL     1      -1.127  -4.896  -3.314  0.00  0.00    +0.062 A 
ATOM     25 CL   UNL     1      -0.999  -4.064  -4.833  0.00  0.00    -0.082 Cl
BRANCH  21  26
ATOM     26  N   UNL     1      -1.449  -6.936   0.399  0.00  0.00    +0.056 N 
ATOM     27  O   UNL     1      -1.569  -6.306   1.435  0.00  0.00    -0.126 OA
ATOM     28  O   UNL     1      -1.422  -8.154   0.427  0.00  0.00    -0.126 OA
ENDBRANCH  21  26
ENDBRANCH  17  19
ENDBRANCH  14  15
ENDBRANCH   6  14
BRANCH   3  29
ATOM     29  C   UNL     1       1.175   3.580   0.035  0.00  0.00    +0.147 C 
BRANCH  29  30
ATOM     30  C   UNL     1       1.204   4.077   1.482  0.00  0.00    +0.136 C 
ATOM     31  C   UNL     1       1.167   5.621   1.521  0.00  0.00    +0.035 C 
ATOM     32  C   UNL     1       2.098   5.990   2.698  0.00  0.00    +0.031 C 
ATOM     33  C   UNL     1       2.588   4.625   3.230  0.00  0.00    +0.160 C 
ATOM     34  O   UNL     1       2.454   3.720   2.111  0.00  0.00    -0.375 OA
ENDBRANCH  29  30
ENDBRANCH   3  29
TORSDOF 7
