REMARK  Name = ZINC58551540
REMARK  4 active torsions:
REMARK  status: ('A' for Active; 'I' for Inactive)
REMARK    1  A    between atoms: C_8  and  C_10
REMARK    2  A    between atoms: N_12  and  C_13
REMARK    3  A    between atoms: N_19  and  S_22
REMARK    4  A    between atoms: S_22  and  N_25
REMARK                            x       y       z     vdW  Elec       q    Type
REMARK                         _______ _______ _______ _____ _____    ______ ____
ROOT
ATOM      1  C   UNL     1       4.893  -5.638   0.014  0.00  0.00    +0.036 A 
ATOM      2  C   UNL     1       3.985  -6.690   0.005  0.00  0.00    +0.024 A 
ATOM      3  C   UNL     1       4.442  -7.991   0.083  0.00  0.00    +0.007 A 
ATOM      4  C   UNL     1       5.797  -8.249   0.170  0.00  0.00    -0.023 A 
ATOM      5  C   UNL     1       6.715  -7.209   0.179  0.00  0.00    +0.057 A 
ATOM      6  C   UNL     1       6.252  -5.895   0.094  0.00  0.00    +0.048 A 
ATOM      7  N   UNL     1       8.026  -7.679   0.271  0.00  0.00    -0.193 N 
ATOM      8  C   UNL     1       8.032  -9.143   0.330  0.00  0.00    +0.137 C 
ATOM      9  C   UNL     1       6.553  -9.556   0.264  0.00  0.00    +0.058 C 
ENDROOT
BRANCH   1  12
ATOM     10  C   UNL     1       3.279  -3.971   0.533  0.00  0.00    +0.255 C 
ATOM     11  O   UNL     1       2.592  -4.819   1.070  0.00  0.00    -0.269 OA
ATOM     12  N   UNL     1       4.436  -4.320  -0.065  0.00  0.00    -0.281 N 
ATOM     13  H   UNL     1       4.950  -3.656  -0.550  0.00  0.00    +0.155 HD
BRANCH  10  21
ATOM     14  C   UNL     1       0.320   1.445   1.291  0.00  0.00    +0.001 A 
ATOM     15  C   UNL     1       1.311   2.140   0.608  0.00  0.00    +0.001 A 
ATOM     16  C   UNL     1       2.399   1.455   0.107  0.00  0.00    +0.015 A 
ATOM     17  C   UNL     1       2.487   0.091   0.290  0.00  0.00    +0.020 A 
ATOM     18  C   UNL     1       1.493  -0.642   0.981  0.00  0.00    -0.010 A 
ATOM     19  C   UNL     1       0.393   0.102   1.479  0.00  0.00    +0.009 A 
ATOM     20  C   UNL     1       1.727  -2.025   1.084  0.00  0.00    +0.029 A 
ATOM     21  C   UNL     1       2.849  -2.566   0.538  0.00  0.00    +0.075 A 
ATOM     22  S   UNL     1       3.670  -1.149  -0.171  0.00  0.00    -0.084 S 
ENDBRANCH  10  21
ENDBRANCH   1  12
BRANCH   7  23
ATOM     23  S   UNL     1       9.377  -6.723   0.307  0.00  0.00    +0.109 S 
ATOM     24  O   UNL     1      10.455  -7.525  -0.152  0.00  0.00    -0.138 OA
ATOM     25  O   UNL     1       9.022  -5.495  -0.315  0.00  0.00    -0.138 OA
BRANCH  23  26
ATOM     26  N   UNL     1       9.688  -6.375   1.896  0.00  0.00    -0.190 NA
ATOM     27  H   UNL     1       9.111  -6.727   2.592  0.00  0.00    +0.146 HD
ATOM     28  H   UNL     1      10.448  -5.820   2.131  0.00  0.00    +0.146 HD
ENDBRANCH  23  26
ENDBRANCH   7  23
TORSDOF 4
