REMARK  Name = ZINC35511587
REMARK  7 active torsions:
REMARK  status: ('A' for Active; 'I' for Inactive)
REMARK    1  A    between atoms: C_1  and  C_2
REMARK    2  A    between atoms: C_2  and  C_3
REMARK    3  A    between atoms: C_7  and  C_27
REMARK    4  A    between atoms: C_8  and  N_9
REMARK    5  A    between atoms: N_9  and  C_10
REMARK    6  A    between atoms: C_11  and  C_20
REMARK    7  A    between atoms: C_24  and  O_26
REMARK                            x       y       z     vdW  Elec       q    Type
REMARK                         _______ _______ _______ _____ _____    ______ ____
ROOT
ATOM      1  C   UNL     1      -1.639  -0.417  -3.461  0.00  0.00    +0.135 A 
ATOM      2  C   UNL     1      -0.980  -0.128  -4.643  0.00  0.00    +0.112 A 
ATOM      3  N   UNL     1      -1.698  -0.639  -5.655  0.00  0.00    -0.224 NA
ATOM      4  C   UNL     1      -2.774  -1.234  -5.170  0.00  0.00    +0.158 A 
ATOM      5  N   UNL     1      -2.759  -1.114  -3.796  0.00  0.00    -0.284 N 
ATOM      6  C   UNL     1      -3.782  -1.664  -3.067  0.00  0.00    +0.129 A 
ATOM      7  C   UNL     1      -4.781  -2.313  -3.701  0.00  0.00    +0.123 A 
ATOM      8  N   UNL     1      -4.795  -2.433  -5.032  0.00  0.00    -0.243 NA
ATOM      9  C   UNL     1      -3.845  -1.920  -5.777  0.00  0.00    +0.158 A 
ATOM     10 BR   UNL     1      -6.187  -3.068  -2.686  0.00  0.00    -0.027 Br
ENDROOT
BRANCH   2  11
ATOM     11  C   UNL     1       0.295   0.616  -4.770  0.00  0.00    +0.007 A 
ATOM     12  C   UNL     1       0.584   1.663  -3.894  0.00  0.00    +0.010 A 
ATOM     13  C   UNL     1       1.773   2.354  -4.014  0.00  0.00    +0.004 A 
ATOM     14  C   UNL     1       2.679   2.012  -5.001  0.00  0.00    +0.045 A 
ATOM     15  C   UNL     1       2.400   0.972  -5.876  0.00  0.00    +0.117 A 
ATOM     16  C   UNL     1       1.212   0.268  -5.760  0.00  0.00    +0.055 A 
BRANCH  15  17
ATOM     17  O   UNL     1       3.294   0.640  -6.845  0.00  0.00    -0.507 OA
ATOM     18  H   UNL     1       3.940  -0.026  -6.572  0.00  0.00    +0.292 HD
ENDBRANCH  15  17
ENDBRANCH   2  11
BRANCH   1  19
ATOM     19  N   UNL     1      -1.232  -0.067  -2.176  0.00  0.00    -0.298 N 
ATOM     20  H   UNL     1      -0.374   0.363  -2.040  0.00  0.00    +0.154 HD
BRANCH  19  26
ATOM     21  C   UNL     1      -1.856  -1.477  -0.319  0.00  0.00    -0.026 A 
ATOM     22  C   UNL     1      -2.673  -1.736   0.763  0.00  0.00    +0.005 A 
ATOM     23  C   UNL     1      -3.698  -0.865   1.083  0.00  0.00    +0.001 A 
ATOM     24  C   UNL     1      -3.908   0.270   0.320  0.00  0.00    +0.005 A 
ATOM     25  C   UNL     1      -3.094   0.536  -0.763  0.00  0.00    -0.029 A 
ATOM     26  C   UNL     1      -2.060  -0.335  -1.084  0.00  0.00    +0.039 A 
ATOM     27  C   UNL     1      -3.324   1.772  -1.594  0.00  0.00    +0.045 C 
BRANCH  21  29
ATOM     28  C   UNL     1       0.562  -1.942  -0.024  0.00  0.00    +0.009 C 
ATOM     29  C   UNL     1      -0.739  -2.428  -0.666  0.00  0.00    +0.033 C 
ENDBRANCH  21  29
ENDBRANCH  19  26
ENDBRANCH   1  19
TORSDOF 5
