REMARK  Name = ZINC16345989
REMARK  4 active torsions:
REMARK  status: ('A' for Active; 'I' for Inactive)
REMARK    1  A    between atoms: C_3  and  C_20
REMARK    2  A    between atoms: C_5  and  C_7
REMARK    3  A    between atoms: C_7  and  N_8
REMARK    4  A    between atoms: C_20  and  N_21
REMARK                            x       y       z     vdW  Elec       q    Type
REMARK                         _______ _______ _______ _____ _____    ______ ____
ROOT
ATOM      1  C   UNL     1      -0.017   1.378   0.010  0.00  0.00    +0.001 A 
ATOM      2  C   UNL     1       1.171   2.086   0.002  0.00  0.00    +0.005 A 
ATOM      3  C   UNL     1       2.377   1.411  -0.013  0.00  0.00    -0.027 A 
ATOM      4  C   UNL     1       2.396   0.029  -0.020  0.00  0.00    +0.010 A 
ATOM      5  C   UNL     1       1.208  -0.679  -0.012  0.00  0.00    -0.027 A 
ATOM      6  C   UNL     1       0.002  -0.004   0.002  0.00  0.00    +0.005 A 
ENDROOT
BRANCH   5   7
ATOM      7  C   UNL     1       1.229  -2.186  -0.020  0.00  0.00    +0.161 C 
BRANCH   7   8
ATOM      8  N   UNL     1       1.250  -2.681   1.359  0.00  0.00    -0.294 N 
ATOM      9  C   UNL     1       2.439  -2.888   1.982  0.00  0.00    +0.203 A 
ATOM     10  N   UNL     1       2.541  -3.325   3.200  0.00  0.00    -0.237 NA
ATOM     11  C   UNL     1       1.444  -3.610   3.946  0.00  0.00    +0.081 A 
ATOM     12  C   UNL     1       1.551  -4.079   5.256  0.00  0.00    +0.067 A 
ATOM     13  C   UNL     1       0.406  -4.355   5.975  0.00  0.00    +0.125 A 
ATOM     14  C   UNL     1      -0.851  -4.170   5.409  0.00  0.00    +0.039 A 
ATOM     15  C   UNL     1      -0.979  -3.711   4.127  0.00  0.00    +0.018 A 
ATOM     16  C   UNL     1       0.163  -3.425   3.381  0.00  0.00    +0.065 A 
ATOM     17  C   UNL     1       0.084  -2.924   2.001  0.00  0.00    +0.262 A 
ATOM     18  O   UNL     1      -0.989  -2.739   1.456  0.00  0.00    -0.267 OA
ATOM     19  F   UNL     1       0.507  -4.809   7.243  0.00  0.00    -0.205 F 
ENDBRANCH   7   8
ENDBRANCH   5   7
BRANCH   3  20
ATOM     20  C   UNL     1       3.672   2.182  -0.022  0.00  0.00    +0.161 C 
BRANCH  20  21
ATOM     21  N   UNL     1       4.105   2.425   1.356  0.00  0.00    -0.294 N 
ATOM     22  C   UNL     1       3.696   3.549   2.002  0.00  0.00    +0.203 A 
ATOM     23  N   UNL     1       4.036   3.835   3.221  0.00  0.00    -0.237 NA
ATOM     24  C   UNL     1       4.839   3.016   3.946  0.00  0.00    +0.081 A 
ATOM     25  C   UNL     1       5.206   3.322   5.257  0.00  0.00    +0.067 A 
ATOM     26  C   UNL     1       6.024   2.457   5.954  0.00  0.00    +0.125 A 
ATOM     27  C   UNL     1       6.487   1.284   5.363  0.00  0.00    +0.039 A 
ATOM     28  C   UNL     1       6.140   0.966   4.080  0.00  0.00    +0.018 A 
ATOM     29  C   UNL     1       5.314   1.823   3.356  0.00  0.00    +0.065 A 
ATOM     30  C   UNL     1       4.905   1.527   1.976  0.00  0.00    +0.262 A 
ATOM     31  O   UNL     1       5.275   0.514   1.411  0.00  0.00    -0.267 OA
ATOM     32  F   UNL     1       6.381   2.751   7.223  0.00  0.00    -0.205 F 
ENDBRANCH  20  21
ENDBRANCH   3  20
TORSDOF 4
