REMARK  Name = ZINC04581124
REMARK  12 active torsions:
REMARK  status: ('A' for Active; 'I' for Inactive)
REMARK    1  A    between atoms: C_1  and  C_2
REMARK    2  A    between atoms: C_2  and  C_3
REMARK    3  A    between atoms: C_2  and  C_4
REMARK    4  A    between atoms: C_4  and  C_5
REMARK    5  A    between atoms: C_5  and  C_29
REMARK    6  A    between atoms: C_10  and  C_12
REMARK    7  A    between atoms: C_16  and  O_19
REMARK    8  A    between atoms: C_17  and  O_18
REMARK    9  A    between atoms: O_19  and  C_20
REMARK   10  A    between atoms: N_23  and  C_26
REMARK   11  A    between atoms: C_26  and  C_27
REMARK   12  A    between atoms: C_26  and  C_28
REMARK                            x       y       z     vdW  Elec       q    Type
REMARK                         _______ _______ _______ _____ _____    ______ ____
ROOT
ATOM      1  C   UNL     1       2.226   0.955   1.118  0.00  0.00    +0.048 C 
ATOM      2  C   UNL     1       3.577   1.605   1.481  0.00  0.00    +0.086 C 
ATOM      3  C   UNL     1       3.238   2.635   2.592  0.00  0.00    +0.077 C 
ATOM      4  C   UNL     1       1.714   2.510   2.795  0.00  0.00    -0.023 C 
ATOM      5  C   UNL     1       3.949   2.085   3.808  0.00  0.00    +0.225 C 
ATOM      6  O   UNL     1       3.946   2.590   4.910  0.00  0.00    -0.275 OA
ATOM      7  N   UNL     1       4.582   0.953   3.478  0.00  0.00    -0.239 N 
ATOM      8  C   UNL     1       4.441   0.591   2.198  0.00  0.00    +0.225 C 
ATOM      9  O   UNL     1       4.928  -0.397   1.691  0.00  0.00    -0.275 OA
ATOM     10  N   UNL     1       1.405   1.165   2.311  0.00  0.00    +0.396 N 
ATOM     11  H   UNL     1       1.636   0.468   3.028  0.00  0.00    -0.083 HD
ATOM     12  H   UNL     1       0.409   1.093   2.072  0.00  0.00    -0.083 HD
ENDROOT
BRANCH   4  13
ATOM     13  C   UNL     1       1.361   2.666   4.252  0.00  0.00    -0.015 A 
ATOM     14  C   UNL     1       1.275   1.551   5.065  0.00  0.00    +0.006 A 
ATOM     15  C   UNL     1       0.957   1.690   6.403  0.00  0.00    +0.004 A 
ATOM     16  C   UNL     1       0.714   2.945   6.932  0.00  0.00    +0.049 A 
ATOM     17  C   UNL     1       0.793   4.065   6.121  0.00  0.00    +0.161 A 
ATOM     18  C   UNL     1       1.118   3.925   4.775  0.00  0.00    +0.160 A 
BRANCH  18  19
ATOM     19  O   UNL     1       1.197   5.022   3.975  0.00  0.00    -0.503 OA
ATOM     20  H   UNL     1       0.363   5.257   3.546  0.00  0.00    +0.292 HD
ENDBRANCH  18  19
BRANCH  17  21
ATOM     21  O   UNL     1       0.553   5.300   6.640  0.00  0.00    -0.491 OA
ATOM     22  C   UNL     1       0.225   5.367   8.029  0.00  0.00    +0.277 C 
ENDBRANCH  17  21
ENDBRANCH   4  13
BRANCH   7  23
ATOM     23  C   UNL     1       5.365   0.174   4.440  0.00  0.00    +0.078 C 
ATOM     24  C   UNL     1       6.500   1.038   4.993  0.00  0.00    +0.028 C 
ATOM     25  C   UNL     1       4.460  -0.276   5.589  0.00  0.00    +0.028 C 
ENDBRANCH   7  23
BRANCH   1  26
ATOM     26  C   UNL     1       2.408  -0.512   0.826  0.00  0.00    +0.346 C 
ATOM     27  O   UNL     1       3.389  -0.893   0.232  0.00  0.00    -0.248 OA
ATOM     28  O   UNL     1       1.480  -1.397   1.226  0.00  0.00    -0.248 OA
ENDBRANCH   1  26
BRANCH   1  29
ATOM     29  C   UNL     1       1.600   1.663  -0.085  0.00  0.00    +0.002 C 
BRANCH  29  31
ATOM     30  C   UNL     1       2.286   2.603  -2.296  0.00  0.00    +0.007 C 
ATOM     31  C   UNL     1       2.475   1.440  -1.320  0.00  0.00    -0.018 C 
ATOM     32  C   UNL     1       2.071   0.131  -2.002  0.00  0.00    +0.007 C 
ENDBRANCH  29  31
ENDBRANCH   1  29
TORSDOF 7
