REMARK  Name = ZINC39709527
REMARK  2 active torsions:
REMARK  status: ('A' for Active; 'I' for Inactive)
REMARK    1  A    between atoms: C_3  and  C_18
REMARK    2  A    between atoms: C_5  and  C_7
REMARK                            x       y       z     vdW  Elec       q    Type
REMARK                         _______ _______ _______ _____ _____    ______ ____
ROOT
ATOM      1  C   UNL     1      -0.017   1.378   0.010  0.00  0.00    +0.001 A 
ATOM      2  C   UNL     1       1.171   2.086   0.002  0.00  0.00    +0.007 A 
ATOM      3  C   UNL     1       2.377   1.411  -0.013  0.00  0.00    -0.005 A 
ATOM      4  C   UNL     1       2.396   0.029  -0.020  0.00  0.00    +0.014 A 
ATOM      5  C   UNL     1       1.208  -0.679  -0.012  0.00  0.00    -0.005 A 
ATOM      6  C   UNL     1       0.002  -0.004   0.002  0.00  0.00    +0.007 A 
ENDROOT
BRANCH   5   7
ATOM      7  C   UNL     1       1.229  -2.186  -0.020  0.00  0.00    +0.218 C 
ATOM      8  N   UNL     1       0.044  -2.702  -0.716  0.00  0.00    -0.360 N 
ATOM      9  C   UNL     1       0.460  -3.395  -1.737  0.00  0.00    +0.060 C 
ATOM     10  C   UNL     1      -0.261  -4.138  -2.783  0.00  0.00    +0.029 C 
ATOM     11  C   UNL     1       0.440  -4.778  -3.739  0.00  0.00    +0.027 C 
ATOM     12  C   UNL     1       1.900  -4.747  -3.755  0.00  0.00    +0.035 C 
ATOM     13  C   UNL     1       2.611  -4.076  -2.814  0.00  0.00    +0.052 C 
ATOM     14  C   UNL     1       1.946  -3.377  -1.775  0.00  0.00    +0.075 C 
ATOM     15  N   UNL     1       2.395  -2.670  -0.769  0.00  0.00    -0.220 NA
ATOM     16  N   UNL     1       2.577  -5.421  -4.759  0.00  0.00    -0.398 N 
ATOM     17  H   UNL     1       2.082  -5.905  -5.438  0.00  0.00    +0.156 HD
ATOM     18  H   UNL     1       3.547  -5.409  -4.783  0.00  0.00    +0.156 HD
ATOM     19  H   UNL     1      -0.880  -2.554  -0.462  0.00  0.00    +0.162 HD
ENDBRANCH   5   7
BRANCH   3  20
ATOM     20  C   UNL     1       3.672   2.182  -0.022  0.00  0.00    +0.218 C 
ATOM     21  N   UNL     1       3.506   3.454   0.691  0.00  0.00    -0.360 N 
ATOM     22  C   UNL     1       4.334   3.452   1.696  0.00  0.00    +0.060 C 
ATOM     23  C   UNL     1       4.611   4.444   2.747  0.00  0.00    +0.029 C 
ATOM     24  C   UNL     1       5.542   4.171   3.681  0.00  0.00    +0.027 C 
ATOM     25  C   UNL     1       6.279   2.911   3.670  0.00  0.00    +0.035 C 
ATOM     26  C   UNL     1       6.061   1.963   2.723  0.00  0.00    +0.052 C 
ATOM     27  C   UNL     1       5.097   2.175   1.705  0.00  0.00    +0.075 C 
ATOM     28  N   UNL     1       4.709   1.434   0.698  0.00  0.00    -0.220 NA
ATOM     29  N   UNL     1       7.228   2.676   4.653  0.00  0.00    -0.398 N 
ATOM     30  H   UNL     1       7.394   3.345   5.336  0.00  0.00    +0.156 HD
ATOM     31  H   UNL     1       7.725   1.843   4.658  0.00  0.00    +0.156 HD
ATOM     32  H   UNL     1       2.891   4.166   0.456  0.00  0.00    +0.162 HD
ENDBRANCH   3  20
TORSDOF 2
