REMARK  Name = ZINC08846190
REMARK  8 active torsions:
REMARK  status: ('A' for Active; 'I' for Inactive)
REMARK    1  A    between atoms: C_1  and  C_2
REMARK    2  A    between atoms: C_2  and  C_3
REMARK    3  A    between atoms: C_3  and  O_4
REMARK    4  A    between atoms: O_4  and  C_5
REMARK    5  A    between atoms: C_8  and  C_11
REMARK    6  A    between atoms: C_16  and  N_25
REMARK    7  A    between atoms: C_20  and  N_24
REMARK    8  A    between atoms: C_21  and  C_22
REMARK                            x       y       z     vdW  Elec       q    Type
REMARK                         _______ _______ _______ _____ _____    ______ ____
ROOT
ATOM      1  C   UNL     1      -1.126   7.561   1.859  0.00  0.00    +0.098 C 
ATOM      2  C   UNL     1       0.251   8.168   1.911  0.00  0.00    +0.008 A 
ATOM      3  C   UNL     1       1.004   8.047   3.066  0.00  0.00    +0.010 A 
ATOM      4  C   UNL     1       2.269   8.596   3.133  0.00  0.00    +0.023 A 
ATOM      5  C   UNL     1       2.791   9.273   2.037  0.00  0.00    +0.028 A 
ATOM      6  C   UNL     1       2.038   9.395   0.879  0.00  0.00    +0.069 A 
ATOM      7  C   UNL     1       0.766   8.841   0.815  0.00  0.00    +0.136 A 
ATOM      8  O   UNL     1       0.043   8.969  -0.325  0.00  0.00    -0.441 OA
ATOM      9  C   UNL     1      -1.289   8.800  -0.296  0.00  0.00    +0.199 C 
ATOM     10  C   UNL     1      -1.906   8.141   0.713  0.00  0.00    +0.098 C 
ENDROOT
BRANCH   1  14
ATOM     11  C   UNL     1      -0.793   3.332   1.349  0.00  0.00    +0.121 A 
ATOM     12  C   UNL     1      -0.259   4.190   0.399  0.00  0.00    +0.046 A 
ATOM     13  C   UNL     1      -0.373   5.557   0.564  0.00  0.00    +0.008 A 
ATOM     14  C   UNL     1      -1.009   6.070   1.679  0.00  0.00    -0.034 A 
ATOM     15  C   UNL     1      -1.537   5.216   2.630  0.00  0.00    +0.008 A 
ATOM     16  C   UNL     1      -1.431   3.849   2.467  0.00  0.00    +0.046 A 
BRANCH  11  17
ATOM     17  O   UNL     1      -0.688   1.987   1.186  0.00  0.00    -0.492 OA
BRANCH  17  18
ATOM     18  C   UNL     1      -0.019   1.526   0.010  0.00  0.00    +0.229 C 
BRANCH  18  20
ATOM     19  C   UNL     1       0.718  -0.497  -1.257  0.00  0.00    +0.007 C 
ATOM     20  C   UNL     1       0.002  -0.004   0.002  0.00  0.00    +0.038 C 
ENDBRANCH  18  20
ENDBRANCH  17  18
ENDBRANCH  11  17
ENDBRANCH   1  14
BRANCH   9  21
ATOM     21  N   UNL     1      -2.048   9.311  -1.320  0.00  0.00    -0.328 N 
ATOM     22  H   UNL     1      -1.621   9.785  -2.050  0.00  0.00    +0.145 HD
ATOM     23  H   UNL     1      -3.011   9.197  -1.313  0.00  0.00    +0.145 HD
ENDBRANCH   9  21
BRANCH   5  24
ATOM     24  N   UNL     1       4.070   9.829   2.102  0.00  0.00    -0.358 N 
ATOM     25  H   UNL     1       4.596   9.743   2.913  0.00  0.00    +0.142 HD
ATOM     26  H   UNL     1       4.433  10.302   1.337  0.00  0.00    +0.142 HD
ENDBRANCH   5  24
BRANCH  10  27
ATOM     27  C   UNL     1      -3.330   7.994   0.688  0.00  0.00    +0.101 C 
ATOM     28  N   UNL     1      -4.460   7.877   0.668  0.00  0.00    -0.191 NA
ENDBRANCH  10  27
TORSDOF 7
