REMARK  Name = ZINC05840975
REMARK  7 active torsions:
REMARK  status: ('A' for Active; 'I' for Inactive)
REMARK    1  A    between atoms: C_2  and  C_21
REMARK    2  A    between atoms: N_9  and  C1*_10
REMARK    3  A    between atoms: C3*_13  and  O3*_20
REMARK    4  A    between atoms: C4*_15  and  C5*_18
REMARK    5  A    between atoms: C5*_18  and  O5*_19
REMARK    6  A    between atoms: C_21  and  C_23
REMARK    7  A    between atoms: C_21  and  N_25
REMARK                            x       y       z     vdW  Elec       q    Type
REMARK                         _______ _______ _______ _____ _____    ______ ____
ROOT
ATOM      1  C   UNL     1       5.074   2.444   2.792  0.00  0.00    +0.104 A 
ATOM      2  C   UNL     1       6.350   2.005   2.835  0.00  0.00    +0.059 A 
ATOM      3  C   UNL     1       6.894   1.358   1.700  0.00  0.00    +0.259 A 
ATOM      4  O   UNL     1       8.044   0.958   1.713  0.00  0.00    -0.267 OA
ATOM      5  N   UNL     1       6.127   1.188   0.604  0.00  0.00    -0.275 N 
ATOM      6  H   UNL     1       6.540   0.686  -0.284  0.00  0.00    +0.173 HD
ATOM      7  C   UNL     1       4.856   1.630   0.590  0.00  0.00    +0.331 A 
ATOM      8  O   UNL     1       4.176   1.469  -0.405  0.00  0.00    -0.246 OA
ATOM      9  N   UNL     1       4.327   2.247   1.662  0.00  0.00    -0.274 N 
ENDROOT
BRANCH   9  10
ATOM     10  C1* UNL     1       2.941   2.718   1.617  0.00  0.00    +0.226 C 
ATOM     11  C2* UNL     1       2.799   3.828   0.554  0.00  0.00    +0.088 C 
ATOM     12  C3* UNL     1       1.420   3.502  -0.084  0.00  0.00    +0.150 C 
ATOM     13  C4* UNL     1       1.418   1.954  -0.001  0.00  0.00    +0.175 C 
ATOM     14  O4* UNL     1       2.074   1.643   1.238  0.00  0.00    -0.348 OA
BRANCH  12  15
ATOM     15  O3* UNL     1       0.352   4.060   0.684  0.00  0.00    -0.389 OA
ATOM     16  H3* UNL     1      -0.690   3.917   0.363  0.00  0.00    +0.210 HD
ENDBRANCH  12  15
BRANCH  13  17
ATOM     17  C5* UNL     1      -0.017   1.425   0.010  0.00  0.00    +0.190 C 
BRANCH  17  18
ATOM     18  O5* UNL     1       0.002  -0.004   0.002  0.00  0.00    -0.392 OA
ATOM     19  H5* UNL     1      -0.943  -0.567   0.008  0.00  0.00    +0.210 HD
ENDBRANCH  17  18
ENDBRANCH  13  17
ENDBRANCH   9  10
BRANCH   2  20
ATOM     20  C   UNL     1       7.186   2.208   4.072  0.00  0.00    +0.158 C 
BRANCH  20  21
ATOM     21  N   UNL     1       8.420   2.914   3.718  0.00  0.00    -0.235 N 
ATOM     22  N   UNL     1       9.136   3.232   4.523  0.00  0.00    -0.192 NA
ATOM     23  N   UNL     1       9.853   3.550   5.329  0.00  0.00    +0.066 NA
ATOM     24  H   UNL     1       8.645   3.132   2.664  0.00  0.00    +0.198 HD
ENDBRANCH  20  21
BRANCH  20  25
ATOM     25  C   UNL     1       7.533   0.848   4.681  0.00  0.00    +0.106 C 
ATOM     26  I   UNL     1       8.732   1.139   6.457  0.00  0.00    -0.083 I 
ENDBRANCH  20  25
ENDBRANCH   2  20
TORSDOF 7
