REMARK  Name = ZINC39672128
REMARK  7 active torsions:
REMARK  status: ('A' for Active; 'I' for Inactive)
REMARK    1  A    between atoms: C_1  and  C_2
REMARK    2  A    between atoms: C_2  and  C_3
REMARK    3  A    between atoms: C_2  and  C_4
REMARK    4  A    between atoms: C_8  and  C_17
REMARK    5  A    between atoms: N_19  and  C_20
REMARK    6  A    between atoms: C_20  and  C_21
REMARK    7  A    between atoms: N_30  and  C_31
REMARK                            x       y       z     vdW  Elec       q    Type
REMARK                         _______ _______ _______ _____ _____    ______ ____
ROOT
ATOM      1  C   UNL     1       0.845  -0.533   1.325  0.00  0.00    +0.218 C 
ATOM      2  O   UNL     1       1.812  -1.259   1.229  0.00  0.00    -0.275 OA
ATOM      3  N   UNL     1       0.347  -0.231   2.541  0.00  0.00    -0.300 N 
ATOM      4  C   UNL     1      -0.820   0.625   2.857  0.00  0.00    +0.121 C 
ATOM      5  C   UNL     1      -1.529  -0.097   4.025  0.00  0.00    +0.100 C 
ATOM      6  C   UNL     1      -0.431  -0.950   4.682  0.00  0.00    -0.004 C 
ATOM      7  C   UNL     1       0.840  -0.685   3.863  0.00  0.00    +0.115 C 
ATOM      8  C   UNL     1      -0.226  -0.521   6.132  0.00  0.00    -0.010 C 
ATOM      9  C   UNL     1       0.828  -1.423   6.782  0.00  0.00    -0.082 C 
ATOM     10  N   UNL     1       0.384  -2.820   6.722  0.00  0.00    +0.379 N 
ATOM     11  C   UNL     1       0.278  -3.253   5.323  0.00  0.00    -0.082 C 
ATOM     12  C   UNL     1      -0.799  -2.429   4.612  0.00  0.00    -0.010 C 
ATOM     13  H   UNL     1       1.051  -3.405   7.204  0.00  0.00    -0.086 HD
ATOM     14  H   UNL     1      -0.517  -2.905   7.168  0.00  0.00    -0.086 HD
ENDROOT
BRANCH   5  15
ATOM     15  C   UNL     1      -2.076   0.907   5.007  0.00  0.00    +0.218 C 
ATOM     16  O   UNL     1      -1.512   1.968   5.167  0.00  0.00    -0.275 OA
ATOM     17  N   UNL     1      -3.192   0.624   5.708  0.00  0.00    -0.311 N 
ATOM     18  H   UNL     1      -3.643  -0.225   5.580  0.00  0.00    +0.149 HD
BRANCH  17  19
ATOM     19  C   UNL     1      -3.724   1.599   6.663  0.00  0.00    +0.139 C 
BRANCH  19  20
ATOM     20  C   UNL     1      -4.967   1.043   7.309  0.00  0.00    -0.030 A 
ATOM     21  C   UNL     1      -6.204   1.270   6.733  0.00  0.00    +0.007 A 
ATOM     22  C   UNL     1      -7.342   0.762   7.326  0.00  0.00    +0.024 A 
ATOM     23  C   UNL     1      -7.245   0.023   8.500  0.00  0.00    +0.033 A 
ATOM     24  C   UNL     1      -6.005  -0.207   9.075  0.00  0.00    -0.026 A 
ATOM     25  C   UNL     1      -4.867   0.304   8.472  0.00  0.00    +0.010 A 
ATOM     26  C   UNL     1      -5.860  -1.011  10.339  0.00  0.00    +0.038 C 
ATOM     27  C   UNL     1      -7.185  -1.054  11.101  0.00  0.00    +0.024 C 
ATOM     28  C   UNL     1      -8.296  -1.497  10.140  0.00  0.00    +0.105 C 
ATOM     29  N   UNL     1      -8.412  -0.479   9.087  0.00  0.00    -0.333 N 
ATOM     30  C   UNL     1      -9.727   0.003   8.660  0.00  0.00    +0.129 C 
ENDBRANCH  19  20
ENDBRANCH  17  19
ENDBRANCH   5  15
BRANCH   1  32
ATOM     31  C   UNL     1       0.250   1.560   0.136  0.00  0.00    +0.017 C 
ATOM     32  C   UNL     1       0.201   0.031   0.086  0.00  0.00    +0.069 C 
ATOM     33  C   UNL     1       0.954  -0.463  -1.151  0.00  0.00    +0.017 C 
ENDBRANCH   1  32
TORSDOF 4
