REMARK  Name = ZINC22925000
REMARK  12 active torsions:
REMARK  status: ('A' for Active; 'I' for Inactive)
REMARK    1  A    between atoms: C_1  and  C_2
REMARK    2  A    between atoms: C_6  and  C_33
REMARK    3  A    between atoms: C_9  and  O_11
REMARK    4  A    between atoms: O_11  and  C_12
REMARK    5  A    between atoms: C_12  and  C_13
REMARK    6  A    between atoms: C_13  and  C_15
REMARK    7  A    between atoms: C_13  and  O_32
REMARK    8  A    between atoms: C_15  and  N_16
REMARK    9  A    between atoms: N_19  and  C_22
REMARK   10  A    between atoms: C_22  and  C_23
REMARK   11  A    between atoms: C_33  and  C_34
REMARK   12  A    between atoms: C_33  and  C_35
REMARK                            x       y       z     vdW  Elec       q    Type
REMARK                         _______ _______ _______ _____ _____    ______ ____
ROOT
ATOM      1  N   UNL     1       5.702  -3.762   2.002  0.00  0.00    -0.303 NA
ATOM      2  C   UNL     1       6.715  -2.769   2.387  0.00  0.00    +0.066 C 
ATOM      3  C   UNL     1       7.337  -3.172   3.726  0.00  0.00    -0.063 C 
ATOM      4  N   UNL     1       7.934  -4.509   3.604  0.00  0.00    +0.384 N 
ATOM      5  C   UNL     1       6.921  -5.502   3.219  0.00  0.00    -0.063 C 
ATOM      6  C   UNL     1       6.299  -5.099   1.880  0.00  0.00    +0.066 C 
ATOM      7  H   UNL     1       8.692  -4.471   2.808  0.00  0.00    -0.081 HD
ENDROOT
BRANCH   1   8
ATOM      8  C   UNL     1       5.028  -3.371   0.756  0.00  0.00    +0.117 C 
BRANCH   8   9
ATOM      9  C   UNL     1       4.213  -2.098   0.996  0.00  0.00    +0.154 C 
BRANCH   9  10
ATOM     10  O   UNL     1       3.236  -2.342   2.010  0.00  0.00    -0.388 OA
ATOM     11  H   UNL     1       3.554  -2.647   3.018  0.00  0.00    +0.210 HD
ENDBRANCH   9  10
BRANCH   9  12
ATOM     12  C   UNL     1       3.511  -1.691  -0.301  0.00  0.00    +0.192 C 
BRANCH  12  13
ATOM     13  O   UNL     1       2.845  -0.441  -0.110  0.00  0.00    -0.374 OA
BRANCH  13  20
ATOM     14  C   UNL     1       3.568   2.091  -1.270  0.00  0.00    +0.010 C 
ATOM     15  C   UNL     1       2.133   1.562  -1.259  0.00  0.00    +0.015 C 
ATOM     16  C   UNL     1       1.417   2.055  -0.000  0.00  0.00    +0.006 C 
ATOM     17  C   UNL     1      -0.019   1.526   0.010  0.00  0.00    +0.004 C 
ATOM     18  C   UNL     1       0.002  -0.004   0.002  0.00  0.00    -0.006 C 
ATOM     19  C   UNL     1       0.718  -0.497  -1.257  0.00  0.00    +0.035 C 
ATOM     20  C   UNL     1       2.154   0.032  -1.268  0.00  0.00    +0.121 C 
BRANCH  18  21
ATOM     21  C   UNL     1      -1.433  -0.534   0.013  0.00  0.00    -0.014 C 
ATOM     22  C   UNL     1      -1.413  -2.063   0.004  0.00  0.00    +0.007 C 
ATOM     23  C   UNL     1      -2.149  -0.040   1.272  0.00  0.00    +0.007 C 
ENDBRANCH  18  21
ENDBRANCH  13  20
ENDBRANCH  12  13
ENDBRANCH   9  12
ENDBRANCH   8   9
ENDBRANCH   1   8
BRANCH   4  24
ATOM     24  C   UNL     1       8.608  -4.900   4.849  0.00  0.00    -0.043 C 
BRANCH  24  25
ATOM     25  C   UNL     1       9.455  -3.756   5.343  0.00  0.00    -0.060 A 
ATOM     26  C   UNL     1      10.773  -3.650   4.940  0.00  0.00    +0.005 A 
ATOM     27  C   UNL     1      11.553  -2.599   5.386  0.00  0.00    +0.050 A 
ATOM     28  C   UNL     1      11.018  -1.655   6.247  0.00  0.00    +0.166 A 
ATOM     29  C   UNL     1       9.691  -1.764   6.657  0.00  0.00    +0.166 A 
ATOM     30  C   UNL     1       8.914  -2.817   6.202  0.00  0.00    +0.051 A 
ATOM     31  O   UNL     1       9.406  -0.725   7.494  0.00  0.00    -0.453 OA
ATOM     32  C   UNL     1      10.682  -0.208   7.915  0.00  0.00    +0.466 C 
ATOM     33  O   UNL     1      11.563  -0.546   6.827  0.00  0.00    -0.453 OA
ENDBRANCH  24  25
ENDBRANCH   4  24
TORSDOF 9
