REMARK  Name = ZINC42819243
REMARK  5 active torsions:
REMARK  status: ('A' for Active; 'I' for Inactive)
REMARK    1  A    between atoms: C_8  and  C_10
REMARK    2  A    between atoms: C_10  and  N_11
REMARK    3  A    between atoms: N_14  and  N_15
REMARK    4  A    between atoms: C_16  and  C_18
REMARK    5  A    between atoms: C_18  and  C_19
REMARK                            x       y       z     vdW  Elec       q    Type
REMARK                         _______ _______ _______ _____ _____    ______ ____
ROOT
ATOM      1  N   UNL     1       3.197  -4.434  -1.435  0.00  0.00    -0.292 N 
ATOM      2  C   UNL     1       3.554  -5.708  -1.691  0.00  0.00    +0.316 C 
ATOM      3  O   UNL     1       3.777  -6.474  -0.773  0.00  0.00    -0.251 OA
ATOM      4  N   UNL     1       3.663  -6.134  -2.965  0.00  0.00    -0.218 N 
ATOM      5  H   UNL     1       3.019  -3.824  -2.167  0.00  0.00    +0.151 HD
ATOM      6  H   UNL     1       3.920  -7.051  -3.150  0.00  0.00    +0.174 HD
ENDROOT
BRANCH   4   7
ATOM      7  N   UNL     1       3.406  -5.252  -4.023  0.00  0.00    -0.233 N 
ATOM      8  C   UNL     1       3.515  -5.678  -5.297  0.00  0.00    +0.230 C 
ATOM      9  O   UNL     1       3.837  -6.824  -5.528  0.00  0.00    -0.274 OA
ATOM     10  H   UNL     1       3.149  -4.335  -3.838  0.00  0.00    +0.173 HD
BRANCH   8  11
ATOM     11  C   UNL     1       3.238  -4.729  -6.435  0.00  0.00    +0.104 C 
BRANCH  11  12
ATOM     12  C   UNL     1       3.433  -5.458  -7.766  0.00  0.00    -0.020 C 
ATOM     13  C   UNL     1       4.873  -5.965  -7.864  0.00  0.00    +0.011 C 
ATOM     14  C   UNL     1       5.067  -6.695  -9.194  0.00  0.00    -0.010 C 
ATOM     15  C   UNL     1       4.786  -5.732 -10.350  0.00  0.00    +0.007 C 
ATOM     16  C   UNL     1       3.346  -5.224 -10.252  0.00  0.00    -0.010 C 
ATOM     17  C   UNL     1       3.151  -4.495  -8.921  0.00  0.00    +0.011 C 
ATOM     18  C   UNL     1       2.381  -6.410 -10.329  0.00  0.00    +0.007 C 
ATOM     19  C   UNL     1       2.663  -7.373  -9.174  0.00  0.00    -0.010 C 
ATOM     20  C   UNL     1       4.103  -7.880  -9.272  0.00  0.00    +0.007 C 
ATOM     21  C   UNL     1       2.468  -6.643  -7.843  0.00  0.00    +0.011 C 
ENDBRANCH  11  12
ENDBRANCH   8  11
ENDBRANCH   4   7
BRANCH   1  22
ATOM     22  C   UNL     1       3.078  -3.972  -0.050  0.00  0.00    +0.168 C 
BRANCH  22  30
ATOM     23  C   UNL     1      -0.016   1.357   0.009  0.00  0.00    +0.002 A 
ATOM     24  C   UNL     1       1.156   2.100   0.002  0.00  0.00    +0.001 A 
ATOM     25  C   UNL     1       2.375   1.449  -0.013  0.00  0.00    +0.017 A 
ATOM     26  C   UNL     1       2.404   0.076  -0.021  0.00  0.00    +0.039 A 
ATOM     27  C   UNL     1       1.226  -0.705  -0.013  0.00  0.00    +0.079 A 
ATOM     28  C   UNL     1       0.002  -0.004   0.002  0.00  0.00    +0.029 A 
ATOM     29  N   UNL     1       1.464  -2.033  -0.023  0.00  0.00    -0.242 NA
ATOM     30  C   UNL     1       2.669  -2.521  -0.038  0.00  0.00    +0.097 A 
ATOM     31  S   UNL     1       3.669  -1.167  -0.040  0.00  0.00    -0.071 S 
ENDBRANCH  22  30
ENDBRANCH   1  22
TORSDOF 5
