REMARK  Name = ZINC13500160
REMARK  11 active torsions:
REMARK  status: ('A' for Active; 'I' for Inactive)
REMARK    1  A    between atoms: C_1  and  C_2
REMARK    2  A    between atoms: C_2  and  C_3
REMARK    3  A    between atoms: C_3  and  C_4
REMARK    4  A    between atoms: C_4  and  C_6
REMARK    5  A    between atoms: C_4  and  N_72
REMARK    6  A    between atoms: N_10  and  C_11
REMARK    7  A    between atoms: C_11  and  C_12
REMARK    8  A    between atoms: C_18  and  C_19
REMARK    9  A    between atoms: C_18  and  N_72
REMARK   10  A    between atoms: C_23  and  C_31
REMARK   11  A    between atoms: C_32  and  N_72
REMARK                            x       y       z     vdW  Elec       q    Type
REMARK                         _______ _______ _______ _____ _____    ______ ____
ROOT
ATOM      1  N   UNL     1      -0.534   3.496   1.215  0.00  0.00    +0.391 N 
ATOM      2  H   UNL     1       0.271   3.982   0.802  0.00  0.00    -0.080 HD
ENDROOT
BRANCH   1   3
ATOM      3  C   UNL     1      -0.881   4.146   2.496  0.00  0.00    -0.067 C 
ATOM      4  C   UNL     1      -2.194   3.584   3.045  0.00  0.00    -0.015 C 
ATOM      5  C   UNL     1      -2.532   4.275   4.367  0.00  0.00    -0.002 C 
ATOM      6  C   UNL     1      -2.680   5.779   4.133  0.00  0.00    -0.000 C 
ATOM      7  C   UNL     1      -1.367   6.342   3.584  0.00  0.00    -0.002 C 
ATOM      8  C   UNL     1      -1.029   5.651   2.262  0.00  0.00    -0.015 C 
ENDBRANCH   1   3
BRANCH   1   9
ATOM      9  C   UNL     1      -0.174   2.082   1.447  0.00  0.00    +0.003 C 
BRANCH   9  10
ATOM     10  C   UNL     1       0.681   1.984   2.685  0.00  0.00    +0.138 A 
ATOM     11  N   UNL     1       1.681   2.766   3.009  0.00  0.00    -0.115 NA
ATOM     12  N   UNL     1       2.154   2.361   4.137  0.00  0.00    -0.023 NA
ATOM     13  N   UNL     1       1.485   1.336   4.538  0.00  0.00    -0.044 NA
ATOM     14  N   UNL     1       0.568   1.072   3.669  0.00  0.00    -0.226 N 
BRANCH  14  15
ATOM     15  C   UNL     1      -0.411  -0.015   3.740  0.00  0.00    +0.182 C 
BRANCH  15  16
ATOM     16  C   UNL     1       0.153  -1.244   3.075  0.00  0.00    -0.026 A 
ATOM     17  C   UNL     1      -0.059  -1.459   1.726  0.00  0.00    +0.005 A 
ATOM     18  C   UNL     1       0.463  -2.583   1.115  0.00  0.00    +0.000 A 
ATOM     19  C   UNL     1       1.188  -3.498   1.855  0.00  0.00    +0.000 A 
ATOM     20  C   UNL     1       1.396  -3.286   3.205  0.00  0.00    +0.000 A 
ATOM     21  C   UNL     1       0.878  -2.159   3.815  0.00  0.00    +0.005 A 
ENDBRANCH  15  16
ENDBRANCH  14  15
ENDBRANCH   9  10
BRANCH   9  22
ATOM     22  C   UNL     1       0.617   1.573   0.240  0.00  0.00    -0.008 C 
BRANCH  22  24
ATOM     23  C   UNL     1       2.662   1.923  -1.151  0.00  0.00    +0.004 C 
ATOM     24  C   UNL     1       1.828   2.477   0.006  0.00  0.00    -0.005 C 
ENDBRANCH  22  24
ENDBRANCH   9  22
ENDBRANCH   1   9
BRANCH   1  25
ATOM     25  C   UNL     1      -1.676   3.579   0.281  0.00  0.00    -0.036 C 
BRANCH  25  26
ATOM     26  C   UNL     1      -1.162   3.411  -1.126  0.00  0.00    +0.001 A 
ATOM     27  C   UNL     1      -1.501   2.311  -1.842  0.00  0.00    +0.017 A 
ATOM     28  C   UNL     1      -0.989   2.181  -3.208  0.00  0.00    -0.001 A 
ATOM     29  C   UNL     1      -1.310   1.071  -3.998  0.00  0.00    +0.013 A 
ATOM     30  C   UNL     1      -0.813   0.978  -5.267  0.00  0.00    -0.050 A 
ATOM     31  C   UNL     1       0.008   1.973  -5.779  0.00  0.00    +0.005 A 
ATOM     32  C   UNL     1       0.337   3.074  -5.019  0.00  0.00    +0.026 A 
ATOM     33  C   UNL     1      -0.158   3.192  -3.724  0.00  0.00    +0.049 A 
ATOM     34  N   UNL     1       0.154   4.283  -2.942  0.00  0.00    -0.322 N 
ATOM     35  H   UNL     1       0.728   4.979  -3.300  0.00  0.00    +0.169 HD
ATOM     36  C   UNL     1      -0.325   4.397  -1.691  0.00  0.00    +0.251 A 
ATOM     37  O   UNL     1      -0.028   5.376  -1.028  0.00  0.00    -0.268 OA
ATOM     38  C   UNL     1      -1.158  -0.217  -6.117  0.00  0.00    +0.044 C 
ENDBRANCH  25  26
ENDBRANCH   1  25
TORSDOF 9
