REMARK  Name = ZINC56593421
REMARK  8 active torsions:
REMARK  status: ('A' for Active; 'I' for Inactive)
REMARK    1  A    between atoms: C_1  and  C_2
REMARK    2  A    between atoms: C_5  and  C_30
REMARK    3  A    between atoms: N_8  and  C_10
REMARK    4  A    between atoms: C_10  and  C_11
REMARK    5  A    between atoms: C_11  and  C_13
REMARK    6  A    between atoms: C_11  and  N_14
REMARK    7  A    between atoms: N_17  and  C_18
REMARK    8  A    between atoms: C_23  and  N_24
REMARK                            x       y       z     vdW  Elec       q    Type
REMARK                         _______ _______ _______ _____ _____    ______ ____
ROOT
ATOM      1  N   UNL     1       3.499  -2.485   0.942  0.00  0.00    -0.298 N 
ATOM      2  C   UNL     1       4.537  -1.849   0.363  0.00  0.00    +0.304 C 
ATOM      3  O   UNL     1       5.041  -0.886   0.908  0.00  0.00    -0.253 OA
ATOM      4  N   UNL     1       5.016  -2.281  -0.821  0.00  0.00    -0.268 N 
ATOM      5  H   UNL     1       3.097  -3.253   0.507  0.00  0.00    +0.150 HD
ATOM      6  H   UNL     1       4.669  -3.096  -1.216  0.00  0.00    +0.156 HD
ENDROOT
BRANCH   4   7
ATOM      7  C   UNL     1       6.015  -1.553  -1.480  0.00  0.00    +0.056 A 
ATOM      8  C   UNL     1       6.160  -0.195  -1.238  0.00  0.00    +0.025 A 
ATOM      9  C   UNL     1       7.146   0.522  -1.890  0.00  0.00    +0.002 A 
ATOM     10  C   UNL     1       7.990  -0.111  -2.783  0.00  0.00    +0.002 A 
ATOM     11  C   UNL     1       7.853  -1.464  -3.030  0.00  0.00    +0.025 A 
ATOM     12  C   UNL     1       6.870  -2.192  -2.376  0.00  0.00    +0.058 A 
BRANCH  12  13
ATOM     13  N   UNL     1       6.733  -3.565  -2.620  0.00  0.00    -0.270 N 
ATOM     14  C   UNL     1       5.886  -4.139  -3.673  0.00  0.00    +0.114 C 
ATOM     15  C   UNL     1       6.377  -5.593  -3.849  0.00  0.00    +0.029 C 
ATOM     16  C   UNL     1       6.990  -5.889  -2.461  0.00  0.00    +0.098 C 
ATOM     17  C   UNL     1       7.365  -4.525  -1.924  0.00  0.00    +0.220 C 
ATOM     18  O   UNL     1       8.124  -4.328  -0.999  0.00  0.00    -0.275 OA
ENDBRANCH  12  13
ENDBRANCH   4   7
BRANCH   1  19
ATOM     19  C   UNL     1       2.978  -2.015   2.228  0.00  0.00    +0.055 C 
ATOM     20  C   UNL     1       3.798  -2.629   3.365  0.00  0.00    +0.026 C 
BRANCH  19  21
ATOM     21  C   UNL     1       1.514  -2.437   2.370  0.00  0.00    -0.057 C 
BRANCH  21  27
ATOM     22  C   UNL     1       0.007   1.565  -0.013  0.00  0.00    +0.005 C 
ATOM     23  C   UNL     1       0.016   0.035  -0.023  0.00  0.00    -0.031 C 
ATOM     24  C   UNL     1      -1.425  -0.485  -0.019  0.00  0.00    +0.003 C 
ATOM     25  C   UNL     1      -1.405  -2.015   0.050  0.00  0.00    -0.031 C 
ATOM     26  C   UNL     1      -0.626  -2.454   1.292  0.00  0.00    -0.076 C 
ATOM     27  N   UNL     1       0.750  -1.948   1.216  0.00  0.00    +0.381 N 
ATOM     28  C   UNL     1       0.743  -0.480   1.221  0.00  0.00    -0.076 C 
ATOM     29  C   UNL     1      -0.728  -2.574  -1.203  0.00  0.00    +0.005 C 
ATOM     30  H   UNL     1       1.181  -2.278   0.365  0.00  0.00    -0.082 HD
ENDBRANCH  21  27
ENDBRANCH  19  21
ENDBRANCH   1  19
TORSDOF 5
