REMARK  Name = ZINC12711076
REMARK  7 active torsions:
REMARK  status: ('A' for Active; 'I' for Inactive)
REMARK    1  A    between atoms: C_1  and  C_2
REMARK    2  A    between atoms: C_2  and  N_61
REMARK    3  A    between atoms: C_6  and  C_8
REMARK    4  A    between atoms: C_8  and  N_9
REMARK    5  A    between atoms: N_9  and  C_10
REMARK    6  A    between atoms: C_10  and  C_11
REMARK    7  A    between atoms: N_28  and  C_29
REMARK                            x       y       z     vdW  Elec       q    Type
REMARK                         _______ _______ _______ _____ _____    ______ ____
ROOT
ATOM      1  N   UNL     1       0.793   1.664  -0.189  0.00  0.00    -0.282 N 
ATOM      2  C   UNL     1      -0.479   1.220  -0.229  0.00  0.00    +0.307 C 
ATOM      3  O   UNL     1      -0.704   0.034  -0.371  0.00  0.00    -0.252 OA
ATOM      4  N   UNL     1      -1.501   2.092  -0.117  0.00  0.00    -0.268 N 
ATOM      5  H   UNL     1      -1.322   3.029   0.057  0.00  0.00    +0.156 HD
ENDROOT
BRANCH   4   6
ATOM      6  C   UNL     1      -2.820   1.644  -0.253  0.00  0.00    +0.053 A 
ATOM      7  C   UNL     1      -3.141   0.325   0.038  0.00  0.00    +0.025 A 
ATOM      8  C   UNL     1      -4.445  -0.112  -0.090  0.00  0.00    +0.002 A 
ATOM      9  C   UNL     1      -5.429   0.759  -0.521  0.00  0.00    +0.002 A 
ATOM     10  C   UNL     1      -5.113   2.072  -0.818  0.00  0.00    +0.022 A 
ATOM     11  C   UNL     1      -3.811   2.518  -0.685  0.00  0.00    +0.062 A 
ATOM     12 CL   UNL     1      -3.414   4.166  -1.057  0.00  0.00    -0.082 Cl
ENDBRANCH   4   6
BRANCH   1  13
ATOM     13  C   UNL     1       1.065   3.094  -0.018  0.00  0.00    +0.094 C 
BRANCH  13  17
ATOM     14  C   UNL     1      -0.356   3.956   3.238  0.00  0.00    -0.078 C 
ATOM     15  C   UNL     1       0.702   5.075   3.148  0.00  0.00    -0.020 C 
ATOM     16  C   UNL     1       1.220   4.950   1.691  0.00  0.00    -0.016 C 
ATOM     17  C   UNL     1       1.175   3.417   1.474  0.00  0.00    -0.051 C 
ATOM     18  N   UNL     1      -0.048   2.983   2.177  0.00  0.00    +0.382 N 
ATOM     19  H   UNL     1      -0.829   2.948   1.511  0.00  0.00    -0.081 HD
BRANCH  18  21
ATOM     20  C   UNL     1      -1.095   1.238   3.560  0.00  0.00    -0.017 C 
ATOM     21  C   UNL     1       0.150   1.632   2.763  0.00  0.00    -0.082 C 
ENDBRANCH  18  21
ENDBRANCH  13  17
ENDBRANCH   1  13
BRANCH   1  22
ATOM     22  C   UNL     1       1.904   0.717  -0.316  0.00  0.00    +0.149 C 
BRANCH  22  23
ATOM     23  C   UNL     1       2.269   0.564  -1.770  0.00  0.00    +0.035 A 
ATOM     24  C   UNL     1       3.268   1.316  -2.299  0.00  0.00    +0.020 A 
ATOM     25  C   UNL     1       3.602   1.141  -3.711  0.00  0.00    +0.003 A 
ATOM     26  C   UNL     1       4.626   1.887  -4.309  0.00  0.00    +0.059 A 
ATOM     27  C   UNL     1       4.916   1.702  -5.643  0.00  0.00    +0.167 A 
ATOM     28  C   UNL     1       4.192   0.773  -6.401  0.00  0.00    +0.168 A 
ATOM     29  C   UNL     1       3.179   0.034  -5.819  0.00  0.00    +0.075 A 
ATOM     30  C   UNL     1       2.874   0.208  -4.475  0.00  0.00    +0.053 A 
ATOM     31  N   UNL     1       1.866  -0.521  -3.877  0.00  0.00    -0.322 N 
ATOM     32  H   UNL     1       1.363  -1.162  -4.404  0.00  0.00    +0.169 HD
ATOM     33  C   UNL     1       1.569  -0.355  -2.576  0.00  0.00    +0.254 A 
ATOM     34  O   UNL     1       0.673  -1.017  -2.082  0.00  0.00    -0.268 OA
ATOM     35  O   UNL     1       4.675   0.785  -7.677  0.00  0.00    -0.453 OA
ATOM     36  C   UNL     1       5.963   1.423  -7.596  0.00  0.00    +0.466 C 
ATOM     37  O   UNL     1       5.848   2.289  -6.451  0.00  0.00    -0.453 OA
ENDBRANCH  22  23
ENDBRANCH   1  22
TORSDOF 6
