REMARK  Name = ZINC11377207
REMARK  10 active torsions:
REMARK  status: ('A' for Active; 'I' for Inactive)
REMARK    1  A    between atoms: C_1  and  C_2
REMARK    2  A    between atoms: C_5  and  C_8
REMARK    3  A    between atoms: C_8  and  C_37
REMARK    4  A    between atoms: N_11  and  C_15
REMARK    5  A    between atoms: C_15  and  C_16
REMARK    6  A    between atoms: N_18  and  C_19
REMARK    7  A    between atoms: C_24  and  C_25
REMARK    8  A    between atoms: N_27  and  C_28
REMARK    9  A    between atoms: C_28  and  C_30
REMARK   10  A    between atoms: C_28  and  C_31
REMARK                            x       y       z     vdW  Elec       q    Type
REMARK                         _______ _______ _______ _____ _____    ______ ____
ROOT
ATOM      1  C   UNL     1       3.915  -5.223  -2.015  0.00  0.00    +0.235 C 
ATOM      2  O   UNL     1       3.916  -4.098  -1.564  0.00  0.00    -0.274 OA
ATOM      3  N   UNL     1       4.924  -5.632  -2.810  0.00  0.00    -0.284 N 
ATOM      4  H   UNL     1       4.966  -6.555  -3.105  0.00  0.00    +0.155 HD
ENDROOT
BRANCH   3   5
ATOM      5  C   UNL     1       5.907  -4.728  -3.207  0.00  0.00    +0.046 A 
ATOM      6  C   UNL     1       5.626  -3.369  -3.259  0.00  0.00    +0.024 A 
ATOM      7  C   UNL     1       6.601  -2.476  -3.653  0.00  0.00    +0.002 A 
ATOM      8  C   UNL     1       7.865  -2.925  -3.999  0.00  0.00    +0.001 A 
ATOM      9  C   UNL     1       8.162  -4.270  -3.953  0.00  0.00    +0.015 A 
ATOM     10  C   UNL     1       7.187  -5.186  -3.552  0.00  0.00    +0.058 A 
BRANCH  10  11
ATOM     11  C   UNL     1       7.500  -6.626  -3.496  0.00  0.00    +0.246 C 
ATOM     12  O   UNL     1       6.624  -7.429  -3.238  0.00  0.00    -0.270 OA
ATOM     13  N   UNL     1       8.757  -7.053  -3.731  0.00  0.00    -0.305 N 
ATOM     14  H   UNL     1       9.456  -6.412  -3.936  0.00  0.00    +0.150 HD
BRANCH  13  15
ATOM     15  C   UNL     1       9.068  -8.483  -3.675  0.00  0.00    +0.100 C 
ATOM     16  C   UNL     1       9.358  -8.886  -2.228  0.00  0.00    +0.033 C 
BRANCH  15  17
ATOM     17  C   UNL     1      10.277  -8.768  -4.528  0.00  0.00    -0.027 A 
ATOM     18  C   UNL     1      11.340  -7.884  -4.537  0.00  0.00    +0.005 A 
ATOM     19  C   UNL     1      12.451  -8.148  -5.316  0.00  0.00    +0.000 A 
ATOM     20  C   UNL     1      12.496  -9.290  -6.093  0.00  0.00    +0.000 A 
ATOM     21  C   UNL     1      11.430 -10.171  -6.088  0.00  0.00    +0.000 A 
ATOM     22  C   UNL     1      10.321  -9.910  -5.306  0.00  0.00    +0.005 A 
ENDBRANCH  15  17
ENDBRANCH  13  15
ENDBRANCH  10  11
ENDBRANCH   3   5
BRANCH   1  23
ATOM     23  C   UNL     1       2.786  -6.166  -1.686  0.00  0.00    +0.214 C 
BRANCH  23  27
ATOM     24  C   UNL     1       0.064  -4.271  -0.014  0.00  0.00    +0.135 C 
ATOM     25  C   UNL     1       0.767  -4.781  -1.256  0.00  0.00    +0.251 C 
ATOM     26  O   UNL     1       0.444  -4.591  -2.410  0.00  0.00    -0.272 OA
ATOM     27  N   UNL     1       1.824  -5.489  -0.813  0.00  0.00    -0.215 N 
ATOM     28  C   UNL     1       1.886  -5.498   0.523  0.00  0.00    +0.310 C 
ATOM     29  O   UNL     1       2.752  -6.071   1.156  0.00  0.00    -0.252 OA
ATOM     30  N   UNL     1       0.884  -4.801   1.089  0.00  0.00    -0.281 N 
ATOM     31  C   UNL     1      -1.363  -4.818   0.061  0.00  0.00    +0.047 C 
ATOM     32  H   UNL     1       0.732  -4.673   2.039  0.00  0.00    +0.152 HD
BRANCH  24  37
ATOM     33  C   UNL     1       0.026   1.507   0.075  0.00  0.00    +0.044 C 
ATOM     34  C   UNL     1       0.036   0.000   0.052  0.00  0.00    -0.050 A 
ATOM     35  C   UNL     1       0.025  -0.673  -1.155  0.00  0.00    +0.004 A 
ATOM     36  C   UNL     1       0.040  -2.055  -1.177  0.00  0.00    +0.006 A 
ATOM     37  C   UNL     1       0.055  -2.764   0.009  0.00  0.00    -0.015 A 
ATOM     38  C   UNL     1       0.061  -2.091   1.217  0.00  0.00    +0.006 A 
ATOM     39  C   UNL     1       0.051  -0.709   1.238  0.00  0.00    +0.004 A 
ENDBRANCH  24  37
ENDBRANCH  23  27
ENDBRANCH   1  23
TORSDOF 7
