REMARK  Name = ZINC09761182
REMARK  11 active torsions:
REMARK  status: ('A' for Active; 'I' for Inactive)
REMARK    1  A    between atoms: C_1  and  C_2
REMARK    2  A    between atoms: C_3  and  C_29
REMARK    3  A    between atoms: C_4  and  C_21
REMARK    4  A    between atoms: C_6  and  C_19
REMARK    5  A    between atoms: C_7  and  S_9
REMARK    6  A    between atoms: S_9  and  C_10
REMARK    7  A    between atoms: C_10  and  C_11
REMARK    8  A    between atoms: N_13  and  C_14
REMARK    9  A    between atoms: C_26  and  O_27
REMARK   10  A    between atoms: O_27  and  C_28
REMARK   11  A    between atoms: N_31  and  C_32
REMARK                            x       y       z     vdW  Elec       q    Type
REMARK                         _______ _______ _______ _____ _____    ______ ____
ROOT
ATOM      1  C   UNL     1       5.631  -2.478  -1.315  0.00  0.00    +0.061 C 
ATOM      2  C   UNL     1       5.963  -1.123  -0.743  0.00  0.00    +0.014 C 
ATOM      3  C   UNL     1       7.249  -0.762  -0.605  0.00  0.00    +0.044 C 
ATOM      4  C   UNL     1       7.637   0.571  -0.033  0.00  0.00    +0.102 C 
ATOM      5  C   UNL     1       6.469   1.516  -0.041  0.00  0.00    +0.069 C 
ATOM      6  C   UNL     1       5.196   1.062  -0.199  0.00  0.00    +0.080 C 
ATOM      7  N   UNL     1       4.950  -0.281  -0.374  0.00  0.00    -0.312 N 
ATOM      8  H   UNL     1       3.936  -0.676  -0.217  0.00  0.00    +0.152 HD
ENDROOT
BRANCH   4   9
ATOM      9  C   UNL     1       8.118   0.383   1.383  0.00  0.00    +0.007 A 
ATOM     10  C   UNL     1       7.273  -0.154   2.334  0.00  0.00    +0.008 A 
ATOM     11  C   UNL     1       7.716  -0.333   3.632  0.00  0.00    +0.001 A 
ATOM     12  C   UNL     1       9.001   0.036   3.983  0.00  0.00    +0.004 A 
ATOM     13  C   UNL     1       9.849   0.578   3.037  0.00  0.00    +0.046 A 
ATOM     14  C   UNL     1       9.409   0.753   1.732  0.00  0.00    +0.124 A 
BRANCH  14  15
ATOM     15  O   UNL     1      10.241   1.285   0.799  0.00  0.00    -0.495 OA
ATOM     16  C   UNL     1      11.555   1.643   1.230  0.00  0.00    +0.277 C 
ENDBRANCH  14  15
ENDBRANCH   4   9
BRANCH   3  17
ATOM     17  C   UNL     1       8.265  -1.661  -1.008  0.00  0.00    +0.247 C 
ATOM     18  O   UNL     1       7.968  -2.747  -1.473  0.00  0.00    -0.270 OA
ATOM     19  N   UNL     1       9.561  -1.316  -0.876  0.00  0.00    -0.282 N 
ATOM     20  H   UNL     1       9.829  -0.304  -0.539  0.00  0.00    +0.155 HD
BRANCH  19  21
ATOM     21  C   UNL     1      10.565  -2.245  -1.169  0.00  0.00    +0.034 A 
ATOM     22  C   UNL     1      11.770  -1.819  -1.713  0.00  0.00    +0.023 A 
ATOM     23  C   UNL     1      12.761  -2.737  -1.996  0.00  0.00    +0.002 A 
ATOM     24  C   UNL     1      12.551  -4.082  -1.749  0.00  0.00    +0.000 A 
ATOM     25  C   UNL     1      11.350  -4.510  -1.214  0.00  0.00    +0.002 A 
ATOM     26  C   UNL     1      10.357  -3.596  -0.923  0.00  0.00    +0.023 A 
ENDBRANCH  19  21
ENDBRANCH   3  17
BRANCH   5  27
ATOM     27  C   UNL     1       6.699   2.919   0.125  0.00  0.00    +0.098 C 
ATOM     28  N   UNL     1       6.881   4.033   0.257  0.00  0.00    -0.191 NA
ENDBRANCH   5  27
BRANCH   6  29
ATOM     29  S   UNL     1       3.853   2.203  -0.186  0.00  0.00    -0.100 S 
BRANCH  29  30
ATOM     30  C   UNL     1       2.470   1.064  -0.438  0.00  0.00    +0.171 C 
BRANCH  30  31
ATOM     31  C   UNL     1       1.178   1.839  -0.463  0.00  0.00    +0.230 C 
ATOM     32  O   UNL     1       1.192   3.044  -0.323  0.00  0.00    -0.274 OA
ATOM     33  N   UNL     1       0.008   1.194  -0.639  0.00  0.00    -0.256 N 
ATOM     34  H   UNL     1      -0.004   0.101  -0.761  0.00  0.00    +0.158 HD
BRANCH  33  35
ATOM     35  C   UNL     1      -1.187   1.913  -0.668  0.00  0.00    +0.192 A 
ATOM     36  C   UNL     1      -2.422   1.389  -0.842  0.00  0.00    +0.066 A 
ATOM     37  C   UNL     1      -3.333   2.470  -0.802  0.00  0.00    +0.043 A 
ATOM     38  C   UNL     1      -2.607   3.586  -0.607  0.00  0.00    +0.197 A 
ATOM     39  O   UNL     1      -1.309   3.243  -0.521  0.00  0.00    -0.449 OA
ENDBRANCH  33  35
ENDBRANCH  30  31
ENDBRANCH  29  30
ENDBRANCH   6  29
TORSDOF 9
