REMARK  Name = ZINC39835887
REMARK  8 active torsions:
REMARK  status: ('A' for Active; 'I' for Inactive)
REMARK    1  A    between atoms: C_1  and  C_2
REMARK    2  A    between atoms: C_7  and  O_8
REMARK    3  A    between atoms: O_8  and  C_9
REMARK    4  A    between atoms: C_10  and  C_20
REMARK    5  A    between atoms: N_24  and  C_28
REMARK    6  A    between atoms: C_28  and  C_29
REMARK    7  A    between atoms: C_32  and  O_35
REMARK    8  A    between atoms: O_35  and  C_36
REMARK                            x       y       z     vdW  Elec       q    Type
REMARK                         _______ _______ _______ _____ _____    ______ ____
ROOT
ATOM      1  C   UNL     1       0.326  -0.522   3.295  0.00  0.00    +0.235 A 
ATOM      2  C   UNL     1      -0.008  -0.068   4.590  0.00  0.00    +0.103 A 
ATOM      3  C   UNL     1      -0.143  -1.026   5.624  0.00  0.00    +0.269 A 
ATOM      4  O   UNL     1      -0.431  -0.679   6.757  0.00  0.00    -0.266 OA
ATOM      5  N   UNL     1       0.051  -2.330   5.334  0.00  0.00    -0.268 N 
ATOM      6  C   UNL     1      -0.078  -3.260   6.322  0.00  0.00    +0.096 A 
ATOM      7  C   UNL     1       0.110  -4.574   6.065  0.00  0.00    +0.018 A 
ATOM      8  C   UNL     1       0.441  -4.997   4.770  0.00  0.00    +0.005 A 
ATOM      9  C   UNL     1       0.571  -4.074   3.774  0.00  0.00    +0.047 A 
ATOM     10  C   UNL     1       0.372  -2.712   4.061  0.00  0.00    +0.144 A 
ATOM     11  N   UNL     1       0.497  -1.816   3.080  0.00  0.00    -0.194 NA
ENDROOT
BRANCH   2  12
ATOM     12  C   UNL     1      -0.202   1.310   4.848  0.00  0.00    +0.039 C 
ATOM     13  C   UNL     1      -1.124   2.015   4.131  0.00  0.00    +0.077 C 
ATOM     14  C   UNL     1      -2.081   1.553   3.183  0.00  0.00    +0.259 C 
ATOM     15  O   UNL     1      -2.166   0.370   2.904  0.00  0.00    -0.269 OA
ATOM     16  N   UNL     1      -2.875   2.443   2.615  0.00  0.00    -0.251 N 
ATOM     17  C   UNL     1      -2.781   3.756   2.924  0.00  0.00    +0.121 C 
ATOM     18  S   UNL     1      -3.695   5.070   2.317  0.00  0.00    -0.027 S 
ATOM     19  S   UNL     1      -1.465   3.770   4.132  0.00  0.00    -0.061 S 
BRANCH  16  20
ATOM     20  C   UNL     1      -3.871   2.002   1.635  0.00  0.00    +0.150 C 
BRANCH  20  21
ATOM     21  C   UNL     1      -5.160   1.673   2.342  0.00  0.00    -0.029 A 
ATOM     22  C   UNL     1      -5.382   0.390   2.810  0.00  0.00    +0.009 A 
ATOM     23  C   UNL     1      -6.563   0.086   3.458  0.00  0.00    +0.046 A 
ATOM     24  C   UNL     1      -7.526   1.067   3.641  0.00  0.00    +0.120 A 
ATOM     25  C   UNL     1      -7.301   2.353   3.171  0.00  0.00    +0.046 A 
ATOM     26  C   UNL     1      -6.116   2.654   2.528  0.00  0.00    +0.009 A 
BRANCH  24  27
ATOM     27  O   UNL     1      -8.689   0.769   4.278  0.00  0.00    -0.495 OA
ATOM     28  C   UNL     1      -9.635   1.830   4.431  0.00  0.00    +0.277 C 
ENDBRANCH  24  27
ENDBRANCH  20  21
ENDBRANCH  16  20
ENDBRANCH   2  12
BRANCH   1  29
ATOM     29  O   UNL     1       0.464   0.360   2.279  0.00  0.00    -0.437 OA
BRANCH  29  36
ATOM     30  C   UNL     1       3.166  -0.117   1.608  0.00  0.00    +0.047 C 
ATOM     31  C   UNL     1       2.032  -0.384   0.652  0.00  0.00    -0.008 A 
ATOM     32  C   UNL     1       2.293  -0.888  -0.607  0.00  0.00    +0.007 A 
ATOM     33  C   UNL     1       1.253  -1.133  -1.484  0.00  0.00    +0.000 A 
ATOM     34  C   UNL     1      -0.051  -0.876  -1.103  0.00  0.00    +0.004 A 
ATOM     35  C   UNL     1      -0.318  -0.373   0.155  0.00  0.00    +0.046 A 
ATOM     36  C   UNL     1       0.724  -0.130   1.039  0.00  0.00    +0.133 A 
ENDBRANCH  29  36
ENDBRANCH   1  29
TORSDOF 6
