REMARK  Name = ZINC63530633
REMARK  7 active torsions:
REMARK  status: ('A' for Active; 'I' for Inactive)
REMARK    1  A    between atoms: C_1  and  C_2
REMARK    2  A    between atoms: C_6  and  C_22
REMARK    3  A    between atoms: C_8  and  S_14
REMARK    4  A    between atoms: S_14  and  C_15
REMARK    5  A    between atoms: N_24  and  C_25
REMARK    6  A    between atoms: C_25  and  C_26
REMARK    7  A    between atoms: C_26  and  C_27
REMARK                            x       y       z     vdW  Elec       q    Type
REMARK                         _______ _______ _______ _____ _____    ______ ____
ROOT
ATOM      1  C   UNL     1      -0.018   1.503   0.010  0.00  0.00    +0.044 C 
ATOM      2  C   UNL     1       0.002  -0.004   0.002  0.00  0.00    -0.049 C 
ATOM      3  C   UNL     1      -1.178  -0.662   0.004  0.00  0.00    +0.027 C 
ATOM      4  C   UNL     1      -1.165  -2.084  -0.024  0.00  0.00    +0.045 C 
ATOM      5  N   UNL     1      -1.984  -3.006   0.352  0.00  0.00    -0.274 NA
ATOM      6  C   UNL     1      -1.412  -4.353   0.206  0.00  0.00    +0.205 C 
ATOM      7  C   UNL     1       0.116  -4.123   0.048  0.00  0.00    +0.097 C 
ATOM      8  C   UNL     1       0.109  -2.716  -0.561  0.00  0.00    +0.076 C 
ATOM      9  C   UNL     1       1.395  -1.992  -0.274  0.00  0.00    -0.016 C 
ATOM     10  C   UNL     1       1.295  -0.680  -0.014  0.00  0.00    -0.000 C 
ENDROOT
BRANCH   6  11
ATOM     11  C   UNL     1      -1.972  -5.031  -1.018  0.00  0.00    +0.239 C 
ATOM     12  O   UNL     1      -2.499  -4.372  -1.889  0.00  0.00    -0.273 OA
ATOM     13  N   UNL     1      -1.887  -6.370  -1.144  0.00  0.00    -0.313 N 
ATOM     14  H   UNL     1      -1.465  -6.897  -0.448  0.00  0.00    +0.149 HD
BRANCH  13  15
ATOM     15  C   UNL     1      -2.431  -7.029  -2.334  0.00  0.00    +0.108 C 
BRANCH  15  16
ATOM     16  C   UNL     1      -2.206  -8.539  -2.228  0.00  0.00    +0.052 C 
BRANCH  16  17
ATOM     17  C   UNL     1      -2.766  -9.217  -3.452  0.00  0.00    -0.040 C 
ATOM     18  C   UNL     1      -2.090  -9.565  -4.570  0.00  0.00    -0.001 A 
ATOM     19  C   UNL     1      -0.684  -9.420  -4.967  0.00  0.00    +0.010 A 
ATOM     20  C   UNL     1      -0.295  -9.875  -6.180  0.00  0.00    +0.001 A 
ATOM     21  C   UNL     1      -1.198 -10.480  -7.065  0.00  0.00    +0.002 A 
ATOM     22  C   UNL     1      -2.505 -10.648  -6.771  0.00  0.00    +0.026 A 
ATOM     23  C   UNL     1      -3.023 -10.207  -5.523  0.00  0.00    +0.043 A 
ATOM     24  N   UNL     1      -4.230 -10.255  -5.013  0.00  0.00    -0.380 N 
ATOM     25  C   UNL     1      -4.197  -9.653  -3.675  0.00  0.00    +0.144 C 
ATOM     26  H   UNL     1      -5.013 -10.630  -5.446  0.00  0.00    +0.160 HD
ENDBRANCH  16  17
ENDBRANCH  15  16
ENDBRANCH  13  15
ENDBRANCH   6  11
BRANCH   7  27
ATOM     27  S   UNL     1       0.850  -5.331  -1.089  0.00  0.00    -0.118 S 
BRANCH  27  28
ATOM     28  C   UNL     1       0.680  -6.869  -0.245  0.00  0.00    +0.008 A 
ATOM     29  C   UNL     1       0.076  -6.913   1.006  0.00  0.00    +0.016 A 
ATOM     30  C   UNL     1      -0.056  -8.119   1.666  0.00  0.00    +0.021 A 
ATOM     31  C   UNL     1       0.412  -9.283   1.081  0.00  0.00    +0.041 A 
ATOM     32  C   UNL     1       1.013  -9.242  -0.165  0.00  0.00    +0.021 A 
ATOM     33  C   UNL     1       1.143  -8.040  -0.831  0.00  0.00    +0.016 A 
ATOM     34 CL   UNL     1       0.245 -10.798   1.913  0.00  0.00    -0.084 Cl
ENDBRANCH  27  28
ENDBRANCH   7  27
TORSDOF 6
