REMARK  Name = ZINC39561086
REMARK  7 active torsions:
REMARK  status: ('A' for Active; 'I' for Inactive)
REMARK    1  A    between atoms: C_1  and  C_2
REMARK    2  A    between atoms: C_2  and  C_3
REMARK    3  A    between atoms: C_7  and  C_14
REMARK    4  A    between atoms: C_14  and  O_15
REMARK    5  A    between atoms: O_15  and  C_16
REMARK    6  A    between atoms: C_16  and  C_18
REMARK    7  A    between atoms: C_20  and  N_26
REMARK                            x       y       z     vdW  Elec       q    Type
REMARK                         _______ _______ _______ _____ _____    ______ ____
ROOT
ATOM      1  O   UNL     1       2.841  -2.560  -7.008  0.00  0.00    -0.455 OA
ENDROOT
BRANCH   1   2
ATOM      2  C   UNL     1       2.326  -2.838  -8.221  0.00  0.00    +0.360 C 
ATOM      3  O   UNL     1       1.135  -2.704  -8.421  0.00  0.00    -0.243 OA
BRANCH   2   4
ATOM      4  C   UNL     1       3.210  -3.307  -9.310  0.00  0.00    +0.169 A 
ATOM      5  C   UNL     1       2.671  -3.587 -10.563  0.00  0.00    +0.095 A 
ATOM      6  C   UNL     1       3.519  -4.029 -11.580  0.00  0.00    +0.067 A 
ATOM      7  C   UNL     1       4.876  -4.170 -11.295  0.00  0.00    +0.100 A 
ATOM      8  C   UNL     1       5.336  -3.872 -10.023  0.00  0.00    +0.150 A 
ATOM      9  N   UNL     1       4.512  -3.452  -9.085  0.00  0.00    -0.226 NA
ATOM     10 CL   UNL     1       7.025  -4.046  -9.661  0.00  0.00    -0.060 Cl
ATOM     11 CL   UNL     1       5.978  -4.716 -12.521  0.00  0.00    -0.078 Cl
ATOM     12 CL   UNL     1       0.972  -3.391 -10.856  0.00  0.00    -0.079 Cl
BRANCH   6  13
ATOM     13  N   UNL     1       3.022  -4.320 -12.849  0.00  0.00    -0.356 N 
ATOM     14  H   UNL     1       2.075  -4.218 -13.034  0.00  0.00    +0.142 HD
ATOM     15  H   UNL     1       3.622  -4.626 -13.547  0.00  0.00    +0.142 HD
ENDBRANCH   6  13
ENDBRANCH   2   4
ENDBRANCH   1   2
BRANCH   1  16
ATOM     16  C   UNL     1       1.929  -2.112  -6.003  0.00  0.00    +0.269 C 
BRANCH  16  21
ATOM     17  C   UNL     1       0.707  -0.490  -1.238  0.00  0.00    -0.044 A 
ATOM     18  C   UNL     1      -0.020  -0.717  -2.397  0.00  0.00    +0.004 A 
ATOM     19  C   UNL     1       0.602  -1.157  -3.532  0.00  0.00    +0.012 A 
ATOM     20  C   UNL     1       1.983  -1.381  -3.523  0.00  0.00    +0.024 A 
ATOM     21  C   UNL     1       2.680  -1.852  -4.723  0.00  0.00    +0.007 A 
ATOM     22  C   UNL     1       4.021  -2.049  -4.649  0.00  0.00    +0.099 A 
ATOM     23  C   UNL     1       4.701  -1.799  -3.438  0.00  0.00    +0.338 A 
ATOM     24  O   UNL     1       5.904  -1.980  -3.384  0.00  0.00    -0.245 OA
ATOM     25  O   UNL     1       4.056  -1.367  -2.343  0.00  0.00    -0.422 OA
ATOM     26  C   UNL     1       2.723  -1.152  -2.350  0.00  0.00    +0.140 A 
ATOM     27  C   UNL     1       2.070  -0.699  -1.210  0.00  0.00    +0.050 A 
BRANCH  17  29
ATOM     28  C   UNL     1      -0.019   1.526   0.010  0.00  0.00    +0.009 C 
ATOM     29  C   UNL     1       0.002  -0.004   0.002  0.00  0.00    +0.032 C 
ENDBRANCH  17  29
ENDBRANCH  16  21
ENDBRANCH   1  16
TORSDOF 6
