REMARK  Name = ZINC32501416
REMARK  9 active torsions:
REMARK  status: ('A' for Active; 'I' for Inactive)
REMARK    1  A    between atoms: C_1  and  C_2
REMARK    2  A    between atoms: C_2  and  C_3
REMARK    3  A    between atoms: C_15  and  C_20
REMARK    4  A    between atoms: C_17  and  C_19
REMARK    5  A    between atoms: C_25  and  C_28
REMARK    6  A    between atoms: C_26  and  O_27
REMARK    7  A    between atoms: C_28  and  N_29
REMARK    8  A    between atoms: N_29  and  C_30
REMARK    9  A    between atoms: N_29  and  C_31
REMARK                            x       y       z     vdW  Elec       q    Type
REMARK                         _______ _______ _______ _____ _____    ______ ____
ROOT
ATOM      1  C   UNL     1       4.863   0.356  -0.044  0.00  0.00    -0.005 A 
ATOM      2  C   UNL     1       3.735  -0.433  -0.037  0.00  0.00    +0.019 A 
ATOM      3  C   UNL     1       2.472   0.160  -0.021  0.00  0.00    +0.027 A 
ATOM      4  C   UNL     1       1.254  -0.665  -0.013  0.00  0.00    +0.017 A 
ATOM      5  C   UNL     1       0.002  -0.004   0.002  0.00  0.00    +0.086 A 
ATOM      6  C   UNL     1      -1.156  -0.781   0.009  0.00  0.00    +0.127 A 
ATOM      7  N   UNL     1      -1.096  -2.088   0.002  0.00  0.00    -0.253 NA
ATOM      8  C   UNL     1       0.064  -2.781  -0.013  0.00  0.00    +0.088 A 
ATOM      9  C   UNL     1       1.261  -2.050  -0.021  0.00  0.00    +0.049 A 
ATOM     10  S   UNL     1       2.540  -3.277  -0.040  0.00  0.00    -0.066 S 
ATOM     11  C   UNL     1       1.532  -4.739  -0.038  0.00  0.00    +0.111 A 
ATOM     12  C   UNL     1       0.214  -4.251  -0.023  0.00  0.00    +0.037 A 
ATOM     13  C   UNL     1      -0.815  -5.220  -0.019  0.00  0.00    -0.037 A 
ATOM     14  C   UNL     1      -0.474  -6.555  -0.029  0.00  0.00    +0.027 A 
ATOM     15  C   UNL     1       0.858  -6.936  -0.044  0.00  0.00    +0.040 A 
ATOM     16  N   UNL     1       1.812  -6.025  -0.048  0.00  0.00    -0.245 NA
ATOM     17  C   UNL     1       1.218  -8.399  -0.056  0.00  0.00    +0.065 C 
ATOM     18  C   UNL     1      -2.261  -4.800  -0.003  0.00  0.00    +0.044 C 
ATOM     19  C   UNL     1      -0.018   1.461   0.010  0.00  0.00    +0.347 A 
ATOM     20  O   UNL     1      -1.080   2.052   0.018  0.00  0.00    -0.244 OA
ATOM     21  O   UNL     1       1.134   2.153   0.003  0.00  0.00    -0.421 OA
ATOM     22  C   UNL     1       2.348   1.558  -0.013  0.00  0.00    +0.144 A 
ATOM     23  C   UNL     1       3.496   2.340  -0.020  0.00  0.00    +0.021 A 
ATOM     24  C   UNL     1       4.745   1.742  -0.036  0.00  0.00    +0.125 A 
ENDROOT
BRANCH   1  26
ATOM     25  C   UNL     1       6.758  -0.392   1.371  0.00  0.00    +0.009 C 
ATOM     26  C   UNL     1       6.228  -0.282  -0.061  0.00  0.00    +0.035 C 
ENDBRANCH   1  26
BRANCH  24  27
ATOM     27  O   UNL     1       5.862   2.515  -0.043  0.00  0.00    -0.506 OA
ATOM     28  H   UNL     1       5.772   3.611  -0.037  0.00  0.00    +0.292 HD
ENDBRANCH  24  27
BRANCH  23  29
ATOM     29  C   UNL     1       3.381   3.842  -0.011  0.00  0.00    -0.036 C 
BRANCH  29  30
ATOM     30  N   UNL     1       3.358   4.323   1.376  0.00  0.00    +0.379 N 
ATOM     31  C   UNL     1       4.640   4.067   2.045  0.00  0.00    -0.096 C 
ATOM     32  C   UNL     1       3.011   5.750   1.433  0.00  0.00    -0.096 C 
ATOM     33  H   UNL     1       2.578   3.764   1.915  0.00  0.00    -0.082 HD
ENDBRANCH  29  30
ENDBRANCH  23  29
TORSDOF 4
