REMARK  Name = ZINC21976374
REMARK  6 active torsions:
REMARK  status: ('A' for Active; 'I' for Inactive)
REMARK    1  A    between atoms: C_1  and  C_2
REMARK    2  A    between atoms: C_4  and  C_7
REMARK    3  A    between atoms: C_7  and  C_8
REMARK    4  A    between atoms: C_11  and  S_13
REMARK    5  A    between atoms: S_13  and  C_14
REMARK    6  A    between atoms: C_14  and  C_15
REMARK                            x       y       z     vdW  Elec       q    Type
REMARK                         _______ _______ _______ _____ _____    ______ ____
ROOT
ATOM      1  C   UNL     1      -1.870   6.140   6.528  0.00  0.00    +0.143 A 
ATOM      2  N   UNL     1      -0.931   5.973   7.443  0.00  0.00    -0.216 NA
ATOM      3  C   UNL     1      -1.044   6.466   8.666  0.00  0.00    +0.128 A 
ATOM      4  C   UNL     1      -2.212   7.200   9.011  0.00  0.00    +0.051 A 
ATOM      5  C   UNL     1      -2.548   7.834  10.291  0.00  0.00    -0.025 A 
ATOM      6  C   UNL     1      -3.735   8.469  10.359  0.00  0.00    -0.004 A 
ATOM      7  S   UNL     1      -4.458   8.281   8.749  0.00  0.00    -0.073 S 
ATOM      8  C   UNL     1      -3.167   7.336   7.985  0.00  0.00    +0.114 A 
ATOM      9  N   UNL     1      -2.973   6.816   6.788  0.00  0.00    -0.224 NA
ATOM     10  C   UNL     1      -4.330   9.180  11.535  0.00  0.00    +0.043 C 
ATOM     11  C   UNL     1      -3.286  10.134  12.132  0.00  0.00    +0.005 C 
ATOM     12  C   UNL     1      -2.487   9.373  13.185  0.00  0.00    +0.001 C 
ATOM     13  C   UNL     1      -2.354   7.906  12.782  0.00  0.00    +0.005 C 
ATOM     14  C   UNL     1      -1.584   7.779  11.473  0.00  0.00    +0.037 C 
ATOM     15  N   UNL     1      -0.038   6.271   9.595  0.00  0.00    -0.343 N 
ATOM     16  H   UNL     1      -0.139   6.684  10.610  0.00  0.00    +0.144 HD
ATOM     17  H   UNL     1       0.863   5.703   9.320  0.00  0.00    +0.144 HD
ENDROOT
BRANCH   1  18
ATOM     18  C   UNL     1      -1.675   5.551   5.155  0.00  0.00    +0.155 C 
BRANCH  18  19
ATOM     19  S   UNL     1      -2.351   3.872   5.118  0.00  0.00    -0.058 S 
BRANCH  19  23
ATOM     20  C   UNL     1      -1.840   2.368   1.582  0.00  0.00    +0.224 A 
ATOM     21  N   UNL     1      -1.311   3.549   1.446  0.00  0.00    -0.111 NA
ATOM     22  N   UNL     1      -1.402   4.192   2.556  0.00  0.00    -0.101 NA
ATOM     23  C   UNL     1      -1.997   3.437   3.448  0.00  0.00    +0.278 A 
ATOM     24  O   UNL     1      -2.291   2.268   2.848  0.00  0.00    -0.415 OA
BRANCH  20  25
ATOM     25  C   UNL     1      -1.935   1.308   0.516  0.00  0.00    +0.153 C 
BRANCH  25  29
ATOM     26  C   UNL     1       3.021   0.632   0.419  0.00  0.00    +0.073 C 
ATOM     27  C   UNL     1       1.576   0.214   0.507  0.00  0.00    +0.076 A 
ATOM     28  N   UNL     1       0.497   0.962   0.473  0.00  0.00    -0.249 NA
ATOM     29  C   UNL     1      -0.706   0.436   0.563  0.00  0.00    +0.058 A 
ATOM     30  C   UNL     1      -0.814  -0.911   0.694  0.00  0.00    +0.070 A 
ATOM     31  S   UNL     1       0.910  -1.381   0.681  0.00  0.00    -0.081 S 
ENDBRANCH  25  29
ENDBRANCH  20  25
ENDBRANCH  19  23
ENDBRANCH  18  19
ENDBRANCH   1  18
TORSDOF 5
