REMARK  Name = ZINC25382512
REMARK  12 active torsions:
REMARK  status: ('A' for Active; 'I' for Inactive)
REMARK    1  A    between atoms: C_1  and  N_2
REMARK    2  A    between atoms: N_2  and  C_3
REMARK    3  A    between atoms: N_2  and  C_4
REMARK    4  A    between atoms: C_4  and  C_6
REMARK    5  A    between atoms: C_4  and  C_13
REMARK    6  A    between atoms: C_6  and  C_7
REMARK    7  A    between atoms: C_13  and  N_14
REMARK    8  A    between atoms: C_15  and  C_17
REMARK    9  A    between atoms: C_17  and  S_18
REMARK   10  A    between atoms: S_18  and  C_19
REMARK   11  A    between atoms: C_22  and  C_30
REMARK   12  A    between atoms: N_23  and  C_24
REMARK                            x       y       z     vdW  Elec       q    Type
REMARK                         _______ _______ _______ _____ _____    ______ ____
ROOT
ATOM      1  S   UNL     1       1.851   4.007   5.662  0.00  0.00    -0.076 S 
ENDROOT
BRANCH   1   2
ATOM      2  C   UNL     1       3.442   4.561   5.145  0.00  0.00    +0.197 A 
ATOM      3  N   UNL     1       3.834   5.810   5.032  0.00  0.00    -0.122 NA
ATOM      4  N   UNL     1       5.054   5.856   4.630  0.00  0.00    -0.128 NA
ATOM      5  C   UNL     1       5.520   4.639   4.467  0.00  0.00    +0.172 A 
ATOM      6  N   UNL     1       4.500   3.770   4.787  0.00  0.00    -0.270 N 
BRANCH   5   7
ATOM      7  C   UNL     1       6.881   4.272   4.022  0.00  0.00    +0.055 A 
ATOM      8  C   UNL     1       7.057   3.305   3.030  0.00  0.00    +0.014 A 
ATOM      9  C   UNL     1       8.329   2.967   2.619  0.00  0.00    +0.001 A 
ATOM     10  C   UNL     1       9.431   3.583   3.187  0.00  0.00    +0.003 A 
ATOM     11  C   UNL     1       9.266   4.541   4.170  0.00  0.00    +0.039 A 
ATOM     12  C   UNL     1       7.997   4.894   4.588  0.00  0.00    +0.134 A 
ATOM     13  F   UNL     1       7.836   5.835   5.545  0.00  0.00    -0.205 F 
ENDBRANCH   5   7
BRANCH   6  14
ATOM     14  C   UNL     1       4.539   2.369   4.756  0.00  0.00    +0.051 A 
ATOM     15  C   UNL     1       3.773   1.671   3.832  0.00  0.00    +0.026 A 
ATOM     16  C   UNL     1       3.815   0.291   3.805  0.00  0.00    +0.002 A 
ATOM     17  C   UNL     1       4.618  -0.396   4.697  0.00  0.00    +0.000 A 
ATOM     18  C   UNL     1       5.381   0.296   5.618  0.00  0.00    +0.002 A 
ATOM     19  C   UNL     1       5.344   1.676   5.651  0.00  0.00    +0.026 A 
ENDBRANCH   6  14
ENDBRANCH   1   2
BRANCH   1  20
ATOM     20  C   UNL     1       1.042   5.601   5.949  0.00  0.00    +0.173 C 
BRANCH  20  22
ATOM     21  N   UNL     1      -1.172   6.419   6.689  0.00  0.00    -0.316 N 
ATOM     22  C   UNL     1      -0.373   5.369   6.412  0.00  0.00    +0.223 C 
ATOM     23  O   UNL     1      -0.793   4.238   6.536  0.00  0.00    -0.275 OA
ATOM     24  H   UNL     1      -0.791   7.444   6.576  0.00  0.00    +0.149 HD
BRANCH  21  25
ATOM     25  C   UNL     1      -2.548   6.194   7.139  0.00  0.00    +0.089 C 
BRANCH  25  26
ATOM     26  C   UNL     1      -3.288   7.531   7.204  0.00  0.00    -0.048 C 
BRANCH  26  28
ATOM     27  C   UNL     1      -2.223   8.648   5.338  0.00  0.00    -0.096 C 
ATOM     28  N   UNL     1      -3.469   8.057   5.844  0.00  0.00    +0.379 N 
ATOM     29  C   UNL     1      -3.962   7.012   4.936  0.00  0.00    -0.096 C 
ATOM     30  H   UNL     1      -4.227   8.853   5.887  0.00  0.00    -0.082 HD
ENDBRANCH  26  28
BRANCH  26  31
ATOM     31  C   UNL     1      -4.657   7.325   7.857  0.00  0.00    +0.021 C 
BRANCH  31  32
ATOM     32  C   UNL     1      -5.333   8.660   8.037  0.00  0.00    -0.049 A 
ATOM     33  C   UNL     1      -5.061   9.427   9.153  0.00  0.00    +0.003 A 
ATOM     34  C   UNL     1      -5.678  10.654   9.316  0.00  0.00    +0.000 A 
ATOM     35  C   UNL     1      -6.575  11.107   8.367  0.00  0.00    +0.000 A 
ATOM     36  C   UNL     1      -6.851  10.337   7.253  0.00  0.00    +0.000 A 
ATOM     37  C   UNL     1      -6.230   9.113   7.088  0.00  0.00    +0.003 A 
ENDBRANCH  31  32
ENDBRANCH  26  31
ENDBRANCH  25  26
ENDBRANCH  21  25
ENDBRANCH  20  22
ENDBRANCH   1  20
TORSDOF 10
