REMARK  Name = ZINC63513939
REMARK  3 active torsions:
REMARK  status: ('A' for Active; 'I' for Inactive)
REMARK    1  A    between atoms: C_14  and  C_29
REMARK    2  A    between atoms: C_16  and  O_28
REMARK    3  A    between atoms: N_31  and  N_32
REMARK                            x       y       z     vdW  Elec       q    Type
REMARK                         _______ _______ _______ _____ _____    ______ ____
ROOT
ATOM      1  C   UNL     1      -0.016   1.355   0.009  0.00  0.00    +0.001 A 
ATOM      2  C   UNL     1       1.141   2.140   0.003  0.00  0.00    +0.002 A 
ATOM      3  C   UNL     1       2.404   1.644  -0.007  0.00  0.00    +0.026 A 
ATOM      4  C   UNL     1       2.553   0.227  -0.010  0.00  0.00    +0.043 A 
ATOM      5  N   UNL     1       3.627  -0.508  -0.041  0.00  0.00    -0.376 N 
ATOM      6  C   UNL     1       3.225  -1.911   0.059  0.00  0.00    +0.123 C 
ATOM      7  C   UNL     1       3.768  -2.752  -1.104  0.00  0.00    +0.083 C 
ATOM      8  C   UNL     1       5.269  -2.945  -0.858  0.00  0.00    +0.025 C 
ATOM      9  C   UNL     1       5.867  -3.864  -1.921  0.00  0.00    -0.004 C 
ATOM     10  C   UNL     1       7.356  -4.081  -1.643  0.00  0.00    +0.019 C 
ATOM     11  C   UNL     1       7.937  -5.024  -2.698  0.00  0.00    +0.105 C 
ATOM     12  C   UNL     1       7.207  -6.367  -2.645  0.00  0.00    +0.127 C 
ATOM     13  C   UNL     1       5.716  -6.150  -2.915  0.00  0.00    +0.037 C 
ATOM     14  C   UNL     1       5.128  -5.207  -1.864  0.00  0.00    +0.009 C 
ATOM     15  C   UNL     1       3.649  -4.953  -2.143  0.00  0.00    +0.088 C 
ATOM     16  N   UNL     1       3.064  -4.042  -1.140  0.00  0.00    -0.297 NA
ATOM     17  C   UNL     1       1.621  -3.913  -1.401  0.00  0.00    +0.089 C 
ATOM     18  C   UNL     1       0.920  -3.161  -0.260  0.00  0.00    +0.049 C 
ATOM     19  C   UNL     1       1.707  -1.907  -0.034  0.00  0.00    -0.036 C 
ATOM     20  C   UNL     1       1.331  -0.636  -0.013  0.00  0.00    -0.001 A 
ATOM     21  C   UNL     1       0.002  -0.004   0.002  0.00  0.00    +0.010 A 
ATOM     22  H   UNL     1       4.537  -0.181  -0.117  0.00  0.00    +0.160 HD
ENDROOT
BRANCH  11  23
ATOM     23  C   UNL     1       7.766  -4.413  -4.065  0.00  0.00    +0.232 C 
ATOM     24  O   UNL     1       7.231  -3.331  -4.183  0.00  0.00    -0.274 OA
ATOM     25  N   UNL     1       8.207  -5.069  -5.157  0.00  0.00    -0.253 N 
ATOM     26  H   UNL     1       8.635  -5.935  -5.062  0.00  0.00    +0.169 HD
BRANCH  25  27
ATOM     27  N   UNL     1       8.051  -4.516  -6.396  0.00  0.00    -0.254 NA
ATOM     28  H   UNL     1       8.428  -5.120  -7.111  0.00  0.00    +0.140 HD
ATOM     29  H   UNL     1       7.082  -4.301  -6.577  0.00  0.00    +0.140 HD
ENDBRANCH  25  27
ENDBRANCH  11  23
BRANCH  12  30
ATOM     30  O   UNL     1       7.747  -7.242  -3.637  0.00  0.00    -0.391 OA
ATOM     31  H   UNL     1       7.330  -8.114  -3.661  0.00  0.00    +0.210 HD
ENDBRANCH  12  30
TORSDOF 3
