REMARK  Name = ZINC65248622
REMARK  8 active torsions:
REMARK  status: ('A' for Active; 'I' for Inactive)
REMARK    1  A    between atoms: C_1  and  C_2
REMARK    2  A    between atoms: C_2  and  C_3
REMARK    3  A    between atoms: C_2  and  C_4
REMARK    4  A    between atoms: C_4  and  O_5
REMARK    5  A    between atoms: O_5  and  C_6
REMARK    6  A    between atoms: C_9  and  C_12
REMARK    7  A    between atoms: C_14  and  C_17
REMARK    8  A    between atoms: C_19  and  O_30
REMARK                            x       y       z     vdW  Elec       q    Type
REMARK                         _______ _______ _______ _____ _____    ______ ____
ROOT
ATOM      1  C   UNL     1      -6.383  -4.569  -0.144  0.00  0.00    +0.202 A 
ATOM      2  N   UNL     1      -6.571  -5.898  -0.242  0.00  0.00    -0.190 NA
ATOM      3  C   UNL     1      -7.844  -6.172  -0.219  0.00  0.00    +0.247 A 
ATOM      4  O   UNL     1      -8.523  -5.024  -0.104  0.00  0.00    -0.336 OA
ATOM      5  N   UNL     1      -7.554  -3.987  -0.051  0.00  0.00    -0.056 NA
ENDROOT
BRANCH   3   6
ATOM      6  C   UNL     1      -8.450  -7.549  -0.307  0.00  0.00    +0.229 C 
ATOM      7  C   UNL     1      -9.174  -7.823   0.997  0.00  0.00    +0.124 C 
ATOM      8  C   UNL     1     -10.537  -8.117   0.916  0.00  0.00    +0.036 A 
ATOM      9  C   UNL     1     -11.286  -8.384   2.081  0.00  0.00    +0.013 A 
ATOM     10  C   UNL     1     -12.613  -8.668   1.975  0.00  0.00    +0.002 A 
ATOM     11  C   UNL     1     -13.249  -8.700   0.739  0.00  0.00    +0.022 A 
ATOM     12  C   UNL     1     -12.578  -8.451  -0.422  0.00  0.00    +0.063 A 
ATOM     13  C   UNL     1     -11.205  -8.151  -0.387  0.00  0.00    +0.062 A 
ATOM     14  N   UNL     1     -10.547  -7.906  -1.528  0.00  0.00    -0.283 N 
ATOM     15  C   UNL     1      -9.263  -7.617  -1.579  0.00  0.00    +0.237 C 
ATOM     16  O   UNL     1      -8.731  -7.405  -2.654  0.00  0.00    -0.274 OA
ATOM     17 CL   UNL     1     -13.418  -8.505  -1.940  0.00  0.00    -0.082 Cl
ATOM     18  H   UNL     1     -11.043  -7.943  -2.361  0.00  0.00    +0.155 HD
BRANCH   7  19
ATOM     19  O   UNL     1      -8.537  -7.784   2.172  0.00  0.00    -0.509 OA
ATOM     20  H   UNL     1      -9.102  -7.975   2.933  0.00  0.00    +0.292 HD
ENDBRANCH   7  19
ENDBRANCH   3   6
BRANCH   1  24
ATOM     21  C   UNL     1      -2.619  -2.589  -0.120  0.00  0.00    +0.121 A 
ATOM     22  C   UNL     1      -3.791  -1.852  -0.014  0.00  0.00    +0.046 A 
ATOM     23  C   UNL     1      -5.012  -2.491  -0.022  0.00  0.00    +0.015 A 
ATOM     24  C   UNL     1      -5.071  -3.879  -0.136  0.00  0.00    +0.023 A 
ATOM     25  C   UNL     1      -3.893  -4.617  -0.241  0.00  0.00    +0.015 A 
ATOM     26  C   UNL     1      -2.674  -3.972  -0.239  0.00  0.00    +0.046 A 
BRANCH  21  27
ATOM     27  O   UNL     1      -1.417  -1.957  -0.112  0.00  0.00    -0.492 OA
BRANCH  27  28
ATOM     28  C   UNL     1      -1.433  -0.534   0.013  0.00  0.00    +0.232 C 
BRANCH  28  30
ATOM     29  C   UNL     1      -0.019   1.526   0.010  0.00  0.00    +0.010 C 
ATOM     30  C   UNL     1       0.002  -0.004   0.002  0.00  0.00    +0.020 C 
ATOM     31  C   UNL     1       0.742  -0.511   1.242  0.00  0.00    +0.010 C 
ENDBRANCH  28  30
ENDBRANCH  27  28
ENDBRANCH  21  27
ENDBRANCH   1  24
TORSDOF 6
