REMARK  Name = ZINC59015113
REMARK  6 active torsions:
REMARK  status: ('A' for Active; 'I' for Inactive)
REMARK    1  A    between atoms: C_5  and  C_7
REMARK    2  A    between atoms: N_8  and  N_9
REMARK    3  A    between atoms: C_12  and  S_15
REMARK    4  A    between atoms: S_15  and  C_16
REMARK    5  A    between atoms: C_16  and  C_17
REMARK    6  A    between atoms: N_19  and  C_20
REMARK                            x       y       z     vdW  Elec       q    Type
REMARK                         _______ _______ _______ _____ _____    ______ ____
ROOT
ATOM      1  N   UNL     1       2.416  -4.183   0.020  0.00  0.00    -0.205 N 
ATOM      2  C   UNL     1       3.626  -4.852  -0.006  0.00  0.00    +0.232 A 
ATOM      3  N   UNL     1       4.819  -4.294  -0.018  0.00  0.00    -0.186 NA
ATOM      4  C   UNL     1       5.759  -5.244  -0.041  0.00  0.00    +0.211 A 
ATOM      5  N   UNL     1       5.178  -6.420  -0.045  0.00  0.00    -0.144 NA
ATOM      6  N   UNL     1       3.792  -6.191  -0.017  0.00  0.00    -0.245 N 
ATOM      7  H   UNL     1       1.585  -4.684   0.031  0.00  0.00    +0.177 HD
ATOM      8  H   UNL     1       3.093  -6.863  -0.009  0.00  0.00    +0.192 HD
ENDROOT
BRANCH   1  10
ATOM      9  C   UNL     1       1.254  -2.154   0.052  0.00  0.00    +0.139 C 
ATOM     10  N   UNL     1       2.390  -2.782   0.029  0.00  0.00    -0.188 NA
BRANCH   9  15
ATOM     11  C   UNL     1      -0.012   1.378   0.095  0.00  0.00    +0.001 A 
ATOM     12  C   UNL     1       1.175   2.090   0.079  0.00  0.00    +0.001 A 
ATOM     13  C   UNL     1       2.387   1.425   0.054  0.00  0.00    +0.020 A 
ATOM     14  C   UNL     1       2.422   0.045   0.045  0.00  0.00    +0.050 A 
ATOM     15  C   UNL     1       1.226  -0.680   0.062  0.00  0.00    +0.013 A 
ATOM     16  C   UNL     1       0.006  -0.001   0.087  0.00  0.00    +0.011 A 
ATOM     17 CL   UNL     1       3.945  -0.788   0.013  0.00  0.00    -0.083 Cl
ENDBRANCH   9  15
ENDBRANCH   1  10
BRANCH   4  18
ATOM     18  S   UNL     1       7.499  -4.962  -0.064  0.00  0.00    -0.075 S 
BRANCH  18  19
ATOM     19  C   UNL     1       8.213  -6.630  -0.092  0.00  0.00    +0.173 C 
BRANCH  19  20
ATOM     20  C   UNL     1       9.716  -6.532  -0.113  0.00  0.00    +0.228 C 
ATOM     21  O   UNL     1      10.254  -5.444  -0.109  0.00  0.00    -0.275 OA
ATOM     22  N   UNL     1      10.465  -7.652  -0.135  0.00  0.00    -0.284 N 
ATOM     23  H   UNL     1      10.038  -8.521  -0.072  0.00  0.00    +0.155 HD
BRANCH  22  24
ATOM     24  C   UNL     1      11.857  -7.562  -0.249  0.00  0.00    +0.053 A 
ATOM     25  C   UNL     1      12.537  -6.510   0.347  0.00  0.00    +0.025 A 
ATOM     26  C   UNL     1      13.911  -6.423   0.234  0.00  0.00    +0.003 A 
ATOM     27  C   UNL     1      14.610  -7.383  -0.474  0.00  0.00    +0.021 A 
ATOM     28  C   UNL     1      13.937  -8.434  -1.071  0.00  0.00    +0.061 A 
ATOM     29  C   UNL     1      12.561  -8.530  -0.956  0.00  0.00    +0.080 A 
ATOM     30 CL   UNL     1      11.716  -9.852  -1.698  0.00  0.00    -0.080 Cl
ATOM     31 CL   UNL     1      14.818  -9.637  -1.959  0.00  0.00    -0.082 Cl
ENDBRANCH  22  24
ENDBRANCH  19  20
ENDBRANCH  18  19
ENDBRANCH   4  18
TORSDOF 6
