REMARK  Name = ZINC09914419
REMARK  12 active torsions:
REMARK  status: ('A' for Active; 'I' for Inactive)
REMARK    1  A    between atoms: C_1  and  N_59
REMARK    2  A    between atoms: C_2  and  N_59
REMARK    3  A    between atoms: C_3  and  C_4
REMARK    4  A    between atoms: C_3  and  N_59
REMARK    5  A    between atoms: C_4  and  C_5
REMARK    6  A    between atoms: C_5  and  N_6
REMARK    7  A    between atoms: C_12  and  N_16
REMARK    8  A    between atoms: C_19  and  C_21
REMARK    9  A    between atoms: C_21  and  C_22
REMARK   10  A    between atoms: C_22  and  C_23
REMARK   11  A    between atoms: C_23  and  S_24
REMARK   12  A    between atoms: S_24  and  C_27
REMARK                            x       y       z     vdW  Elec       q    Type
REMARK                         _______ _______ _______ _____ _____    ______ ____
ROOT
ATOM      1  N   UNL     1      -1.582   2.281  -6.215  0.00  0.00    -0.250 N 
ATOM      2  C   UNL     1      -1.053   1.989  -7.463  0.00  0.00    +0.168 A 
ATOM      3  N   UNL     1      -1.545   2.261  -8.649  0.00  0.00    -0.224 NA
ATOM      4  C   UNL     1      -0.916   1.914  -9.792  0.00  0.00    +0.080 A 
ATOM      5  C   UNL     1      -1.333   2.146 -11.124  0.00  0.00    +0.031 A 
ATOM      6  C   UNL     1      -0.569   1.724 -12.180  0.00  0.00    +0.035 A 
ATOM      7  C   UNL     1       0.633   1.060 -11.986  0.00  0.00    +0.127 A 
ATOM      8  C   UNL     1       1.072   0.817 -10.697  0.00  0.00    +0.050 A 
ATOM      9  C   UNL     1       0.314   1.235  -9.633  0.00  0.00    +0.043 A 
ATOM     10  S   UNL     1       0.475   1.154  -7.865  0.00  0.00    -0.052 S 
ATOM     11  C   UNL     1      -0.919   1.915  -5.101  0.00  0.00    +0.221 C 
ATOM     12  O   UNL     1       0.140   1.331  -5.189  0.00  0.00    -0.275 OA
ENDROOT
BRANCH   7  13
ATOM     13  N   UNL     1       1.438   0.617 -13.146  0.00  0.00    +0.056 N 
ATOM     14  O   UNL     1       2.493   0.034 -12.969  0.00  0.00    -0.126 OA
ATOM     15  O   UNL     1       1.046   0.834 -14.279  0.00  0.00    -0.126 OA
ENDBRANCH   7  13
BRANCH   1  16
ATOM     16  C   UNL     1      -2.861   2.987  -6.109  0.00  0.00    +0.114 C 
BRANCH  16  17
ATOM     17  C   UNL     1      -2.609   4.496  -6.071  0.00  0.00    +0.001 C 
BRANCH  17  18
ATOM     18  C   UNL     1      -3.945   5.233  -5.960  0.00  0.00    -0.078 C 
BRANCH  18  21
ATOM     19  C   UNL     1      -3.149   7.154  -7.199  0.00  0.00    -0.097 C 
ATOM     20  C   UNL     1      -4.931   7.412  -5.581  0.00  0.00    -0.097 C 
ATOM     21  N   UNL     1      -3.684   6.687  -5.903  0.00  0.00    +0.376 N 
ATOM     22  H   UNL     1      -2.990   6.873  -5.169  0.00  0.00    -0.083 HD
ENDBRANCH  18  21
ENDBRANCH  17  18
ENDBRANCH  16  17
ENDBRANCH   1  16
BRANCH  11  23
ATOM     23  C   UNL     1      -1.493   2.232  -3.744  0.00  0.00    +0.098 C 
BRANCH  23  24
ATOM     24  C   UNL     1      -0.551   1.712  -2.657  0.00  0.00    +0.032 C 
BRANCH  24  25
ATOM     25  C   UNL     1      -1.135   2.034  -1.279  0.00  0.00    +0.172 C 
BRANCH  25  26
ATOM     26  S   UNL     1      -0.017   1.417   0.010  0.00  0.00    -0.003 S 
ATOM     27  O   UNL     1       0.002  -0.004   0.002  0.00  0.00    -0.169 OA
ATOM     28  O   UNL     1       1.195   2.158   0.002  0.00  0.00    -0.169 OA
BRANCH  26  29
ATOM     29  C   UNL     1      -0.798   1.847   1.530  0.00  0.00    +0.088 A 
ATOM     30  C   UNL     1      -0.521   3.062   2.128  0.00  0.00    +0.030 A 
ATOM     31  C   UNL     1      -1.136   3.403   3.318  0.00  0.00    +0.040 A 
ATOM     32  C   UNL     1      -2.022   2.523   3.915  0.00  0.00    +0.124 A 
ATOM     33  C   UNL     1      -2.295   1.304   3.317  0.00  0.00    +0.040 A 
ATOM     34  C   UNL     1      -1.683   0.968   2.125  0.00  0.00    +0.030 A 
ATOM     35  F   UNL     1      -2.621   2.853   5.081  0.00  0.00    -0.205 F 
ENDBRANCH  26  29
ENDBRANCH  25  26
ENDBRANCH  24  25
ENDBRANCH  23  24
ENDBRANCH  11  23
TORSDOF 10
