REMARK  Name = ZINC39940653
REMARK  5 active torsions:
REMARK  status: ('A' for Active; 'I' for Inactive)
REMARK    1  A    between atoms: C_4  and  C_7
REMARK    2  A    between atoms: N_10  and  C_15
REMARK    3  A    between atoms: N_13  and  N_14
REMARK    4  A    between atoms: C_15  and  C_16
REMARK    5  A    between atoms: N_22  and  C_23
REMARK                            x       y       z     vdW  Elec       q    Type
REMARK                         _______ _______ _______ _____ _____    ______ ____
ROOT
ATOM      1  C   UNL     1       3.687  -2.078   0.688  0.00  0.00    +0.209 C 
ATOM      2  N   UNL     1       4.661  -1.018   1.013  0.00  0.00    -0.210 NA
ATOM      3  N   UNL     1       5.179  -1.341   2.235  0.00  0.00    -0.210 N 
ATOM      4  C   UNL     1       4.640  -2.475   2.702  0.00  0.00    +0.334 C 
ATOM      5  O   UNL     1       4.930  -2.979   3.770  0.00  0.00    -0.250 OA
ATOM      6  N   UNL     1       3.737  -2.989   1.843  0.00  0.00    -0.199 N 
ATOM      7  H   UNL     1       5.388  -0.968   0.315  0.00  0.00    +0.147 HD
ENDROOT
BRANCH   1  11
ATOM      8  C   UNL     1      -0.228  -0.424   0.255  0.00  0.00    +0.000 A 
ATOM      9  C   UNL     1       0.495  -0.195   1.411  0.00  0.00    +0.000 A 
ATOM     10  C   UNL     1       1.762  -0.731   1.551  0.00  0.00    +0.007 A 
ATOM     11  C   UNL     1       2.305  -1.496   0.535  0.00  0.00    -0.010 A 
ATOM     12  C   UNL     1       1.581  -1.725  -0.620  0.00  0.00    +0.007 A 
ATOM     13  C   UNL     1       0.315  -1.189  -0.760  0.00  0.00    +0.000 A 
ENDBRANCH   1  11
BRANCH   6  14
ATOM     14  N   UNL     1       3.008  -4.132   2.011  0.00  0.00    -0.249 NA
ATOM     15  H   UNL     1       3.208  -4.561   2.902  0.00  0.00    +0.141 HD
ATOM     16  H   UNL     1       2.021  -3.949   1.911  0.00  0.00    +0.141 HD
ENDBRANCH   6  14
BRANCH   3  17
ATOM     17  C   UNL     1       6.191  -0.552   2.941  0.00  0.00    +0.205 C 
BRANCH  17  18
ATOM     18  C   UNL     1       5.514   0.385   3.908  0.00  0.00    +0.155 A 
ATOM     19  H   UNL     1       3.146   1.809   5.347  0.00  0.00    +0.191 HD
ATOM     20  N   UNL     1       4.235   0.537   4.038  0.00  0.00    -0.156 NA
ATOM     21  N   UNL     1       4.009   1.495   5.037  0.00  0.00    -0.254 N 
ATOM     22  C   UNL     1       5.216   1.898   5.487  0.00  0.00    +0.180 A 
ATOM     23  S   UNL     1       5.504   3.059   6.712  0.00  0.00    -0.011 S 
ATOM     24  N   UNL     1       6.152   1.214   4.800  0.00  0.00    -0.274 N 
BRANCH  24  25
ATOM     25  C   UNL     1       7.539   1.331   4.964  0.00  0.00    +0.050 A 
ATOM     26  C   UNL     1       8.137   0.912   6.145  0.00  0.00    +0.026 A 
ATOM     27  C   UNL     1       9.505   1.028   6.303  0.00  0.00    +0.002 A 
ATOM     28  C   UNL     1      10.277   1.560   5.287  0.00  0.00    +0.000 A 
ATOM     29  C   UNL     1       9.684   1.978   4.110  0.00  0.00    +0.002 A 
ATOM     30  C   UNL     1       8.318   1.860   3.943  0.00  0.00    +0.026 A 
ENDBRANCH  24  25
ENDBRANCH  17  18
ENDBRANCH   3  17
TORSDOF 5
