REMARK  Name = ZINC39676103
REMARK  11 active torsions:
REMARK  status: ('A' for Active; 'I' for Inactive)
REMARK    1  A    between atoms: C_1  and  C_2
REMARK    2  A    between atoms: C_2  and  C_3
REMARK    3  A    between atoms: C_3  and  C_4
REMARK    4  A    between atoms: C_4  and  C_5
REMARK    5  A    between atoms: C_5  and  C_7
REMARK    6  A    between atoms: C_5  and  C_8
REMARK    7  A    between atoms: C_12  and  C_21
REMARK    8  A    between atoms: N_23  and  C_24
REMARK    9  A    between atoms: C_24  and  C_25
REMARK   10  A    between atoms: N_28  and  C_30
REMARK   11  A    between atoms: C_30  and  C_31
REMARK                            x       y       z     vdW  Elec       q    Type
REMARK                         _______ _______ _______ _____ _____    ______ ____
ROOT
ATOM      1  C   UNL     1       1.551  -4.182  -2.453  0.00  0.00    +0.218 C 
ATOM      2  O   UNL     1       1.171  -4.816  -1.491  0.00  0.00    -0.275 OA
ATOM      3  N   UNL     1       2.189  -4.806  -3.463  0.00  0.00    -0.300 N 
ATOM      4  C   UNL     1       2.728  -4.205  -4.705  0.00  0.00    +0.121 C 
ATOM      5  C   UNL     1       4.066  -4.938  -4.945  0.00  0.00    +0.100 C 
ATOM      6  C   UNL     1       3.917  -6.279  -4.207  0.00  0.00    -0.004 C 
ATOM      7  C   UNL     1       2.516  -6.247  -3.578  0.00  0.00    +0.115 C 
ATOM      8  C   UNL     1       4.029  -7.440  -5.191  0.00  0.00    -0.010 C 
ATOM      9  C   UNL     1       3.936  -8.762  -4.425  0.00  0.00    -0.082 C 
ATOM     10  N   UNL     1       5.013  -8.832  -3.430  0.00  0.00    +0.379 N 
ATOM     11  C   UNL     1       4.844  -7.767  -2.434  0.00  0.00    -0.082 C 
ATOM     12  C   UNL     1       4.976  -6.402  -3.116  0.00  0.00    -0.010 C 
ATOM     13  H   UNL     1       4.986  -9.729  -2.970  0.00  0.00    -0.086 HD
ATOM     14  H   UNL     1       5.903  -8.720  -3.892  0.00  0.00    -0.086 HD
ENDROOT
BRANCH   5  15
ATOM     15  C   UNL     1       4.281  -5.169  -6.419  0.00  0.00    +0.218 C 
ATOM     16  O   UNL     1       3.329  -5.326  -7.153  0.00  0.00    -0.275 OA
ATOM     17  N   UNL     1       5.532  -5.201  -6.920  0.00  0.00    -0.311 N 
ATOM     18  H   UNL     1       6.293  -5.076  -6.333  0.00  0.00    +0.149 HD
BRANCH  17  19
ATOM     19  C   UNL     1       5.741  -5.426  -8.353  0.00  0.00    +0.142 C 
BRANCH  19  20
ATOM     20  C   UNL     1       7.218  -5.416  -8.653  0.00  0.00    +0.007 A 
ATOM     21  C   UNL     1       7.981  -4.294  -8.992  0.00  0.00    +0.139 A 
ATOM     22  N   UNL     1       9.217  -4.682  -9.177  0.00  0.00    -0.179 NA
ATOM     23  N   UNL     1       9.279  -6.064  -8.961  0.00  0.00    -0.267 N 
ATOM     24  C   UNL     1       8.040  -6.490  -8.636  0.00  0.00    +0.113 A 
BRANCH  23  25
ATOM     25  C   UNL     1      10.478  -6.900  -9.065  0.00  0.00    +0.178 C 
BRANCH  25  26
ATOM     26  C   UNL     1      11.103  -6.715 -10.424  0.00  0.00    -0.026 A 
ATOM     27  C   UNL     1      10.722  -7.527 -11.476  0.00  0.00    +0.005 A 
ATOM     28  C   UNL     1      11.295  -7.357 -12.722  0.00  0.00    +0.000 A 
ATOM     29  C   UNL     1      12.249  -6.376 -12.917  0.00  0.00    +0.000 A 
ATOM     30  C   UNL     1      12.630  -5.564 -11.865  0.00  0.00    +0.000 A 
ATOM     31  C   UNL     1      12.053  -5.731 -10.619  0.00  0.00    +0.005 A 
ENDBRANCH  25  26
ENDBRANCH  23  25
ENDBRANCH  19  20
ENDBRANCH  17  19
ENDBRANCH   5  15
BRANCH   1  32
ATOM     32  C   UNL     1       1.309  -2.696  -2.518  0.00  0.00    +0.072 C 
ATOM     33  C   UNL     1       0.460  -2.371  -3.748  0.00  0.00    +0.017 C 
BRANCH  32  34
ATOM     34  C   UNL     1       0.572  -2.243  -1.256  0.00  0.00    +0.012 C 
BRANCH  34  35
ATOM     35  C   UNL     1       0.436  -0.719  -1.263  0.00  0.00    +0.000 C 
BRANCH  35  37
ATOM     36  C   UNL     1      -0.436   1.258  -0.008  0.00  0.00    +0.004 C 
ATOM     37  C   UNL     1      -0.300  -0.266  -0.001  0.00  0.00    -0.003 C 
ENDBRANCH  35  37
ENDBRANCH  34  35
ENDBRANCH  32  34
ENDBRANCH   1  32
TORSDOF 9
