REMARK  Name = ZINC35744319
REMARK  8 active torsions:
REMARK  status: ('A' for Active; 'I' for Inactive)
REMARK    1  A    between atoms: C_1  and  C_2
REMARK    2  A    between atoms: C_2  and  C_4
REMARK    3  A    between atoms: C_2  and  N_10
REMARK    4  A    between atoms: C_11  and  C_13
REMARK    5  A    between atoms: C_13  and  N_14
REMARK    6  A    between atoms: N_16  and  C_35
REMARK    7  A    between atoms: N_27  and  C_28
REMARK    8  A    between atoms: C_28  and  C_29
REMARK                            x       y       z     vdW  Elec       q    Type
REMARK                         _______ _______ _______ _____ _____    ______ ____
ROOT
ATOM      1  N   UNL     1      -0.164  -1.179  -4.779  0.00  0.00    -0.275 N 
ATOM      2  C   UNL     1      -0.930  -2.362  -5.170  0.00  0.00    +0.217 C 
ATOM      3  N   UNL     1      -1.873  -1.965  -6.224  0.00  0.00    -0.300 N 
ATOM      4  C   UNL     1      -1.648  -0.531  -6.446  0.00  0.00    +0.115 C 
ATOM      5  C   UNL     1      -0.560  -0.111  -5.492  0.00  0.00    +0.241 C 
ATOM      6  O   UNL     1      -0.112   1.011  -5.386  0.00  0.00    -0.273 OA
ATOM      7  C   UNL     1      -2.929   0.248  -6.148  0.00  0.00    +0.054 C 
ATOM      8  C   UNL     1      -4.043  -0.230  -7.085  0.00  0.00    +0.112 C 
ATOM      9  N   UNL     1      -3.572  -0.123  -8.473  0.00  0.00    -0.285 N 
ATOM     10  C   UNL     1      -2.307  -0.773  -8.842  0.00  0.00    +0.112 C 
ATOM     11  C   UNL     1      -1.209  -0.290  -7.890  0.00  0.00    +0.054 C 
ATOM     12  C   UNL     1      -4.287   0.559  -9.390  0.00  0.00    +0.302 C 
ATOM     13  O   UNL     1      -5.284   1.168  -9.053  0.00  0.00    -0.253 OA
ATOM     14  N   UNL     1      -3.897   0.564 -10.680  0.00  0.00    -0.295 N 
ATOM     15  H   UNL     1      -3.146   0.020 -10.962  0.00  0.00    +0.151 HD
ENDROOT
BRANCH   3  16
ATOM     16  C   UNL     1      -2.794  -2.784  -6.881  0.00  0.00    +0.032 A 
ATOM     17  C   UNL     1      -2.945  -4.110  -6.496  0.00  0.00    +0.023 A 
ATOM     18  C   UNL     1      -3.857  -4.917  -7.147  0.00  0.00    +0.002 A 
ATOM     19  C   UNL     1      -4.619  -4.406  -8.182  0.00  0.00    +0.000 A 
ATOM     20  C   UNL     1      -4.471  -3.087  -8.568  0.00  0.00    +0.002 A 
ATOM     21  C   UNL     1      -3.565  -2.273  -7.917  0.00  0.00    +0.023 A 
ENDBRANCH   3  16
BRANCH   1  22
ATOM     22  C   UNL     1       0.881  -1.159  -3.753  0.00  0.00    +0.205 C 
BRANCH  22  24
ATOM     23  N   UNL     1       1.039  -0.785  -1.313  0.00  0.00    -0.307 N 
ATOM     24  C   UNL     1       0.263  -0.855  -2.413  0.00  0.00    +0.231 C 
ATOM     25  O   UNL     1      -0.933  -0.671  -2.324  0.00  0.00    -0.274 OA
ATOM     26  H   UNL     1       1.995  -0.932  -1.384  0.00  0.00    +0.149 HD
BRANCH  23  28
ATOM     27  C   UNL     1       0.314   1.026   0.162  0.00  0.00    +0.033 C 
ATOM     28  C   UNL     1       0.438  -0.489  -0.010  0.00  0.00    +0.100 C 
BRANCH  28  29
ATOM     29  C   UNL     1       1.310  -1.049   1.084  0.00  0.00    -0.027 A 
ATOM     30  C   UNL     1       2.686  -0.954   0.988  0.00  0.00    +0.005 A 
ATOM     31  C   UNL     1       3.486  -1.468   1.992  0.00  0.00    +0.000 A 
ATOM     32  C   UNL     1       2.911  -2.075   3.092  0.00  0.00    +0.000 A 
ATOM     33  C   UNL     1       1.535  -2.168   3.189  0.00  0.00    +0.000 A 
ATOM     34  C   UNL     1       0.735  -1.651   2.187  0.00  0.00    +0.005 A 
ENDBRANCH  28  29
ENDBRANCH  23  28
ENDBRANCH  22  24
ENDBRANCH   1  22
BRANCH  14  35
ATOM     35  C   UNL     1      -4.609   1.392 -11.657  0.00  0.00    +0.141 C 
BRANCH  35  36
ATOM     36  C   UNL     1      -3.980   1.219 -13.015  0.00  0.00    -0.030 A 
ATOM     37  C   UNL     1      -2.943   2.046 -13.407  0.00  0.00    +0.005 A 
ATOM     38  C   UNL     1      -2.366   1.887 -14.653  0.00  0.00    +0.000 A 
ATOM     39  C   UNL     1      -2.825   0.902 -15.507  0.00  0.00    +0.000 A 
ATOM     40  C   UNL     1      -3.861   0.075 -15.115  0.00  0.00    +0.000 A 
ATOM     41  C   UNL     1      -4.436   0.231 -13.867  0.00  0.00    +0.005 A 
ENDBRANCH  35  36
ENDBRANCH  14  35
TORSDOF 7
