REMARK  Name = ZINC20696552
REMARK  5 active torsions:
REMARK  status: ('A' for Active; 'I' for Inactive)
REMARK    1  A    between atoms: C_6  and  C_7
REMARK    2  A    between atoms: N_9  and  C_10
REMARK    3  A    between atoms: C_10  and  C_11
REMARK    4  A    between atoms: C_24  and  C_27
REMARK    5  A    between atoms: C_32  and  O_33
REMARK                            x       y       z     vdW  Elec       q    Type
REMARK                         _______ _______ _______ _____ _____    ______ ____
ROOT
ATOM      1  C   UNL     1      -2.774   2.745  -3.011  0.00  0.00    +0.015 A 
ATOM      2  C   UNL     1      -2.984   1.598  -2.282  0.00  0.00    +0.024 A 
ATOM      3  C   UNL     1      -2.076   1.206  -1.302  0.00  0.00    +0.031 A 
ATOM      4  C   UNL     1      -0.945   1.999  -1.054  0.00  0.00    -0.019 A 
ATOM      5  C   UNL     1      -0.729   3.141  -1.785  0.00  0.00    +0.019 A 
ATOM      6  C   UNL     1      -1.641   3.528  -2.772  0.00  0.00    +0.037 A 
ATOM      7  C   UNL     1      -0.019   1.554   0.011  0.00  0.00    +0.049 C 
ATOM      8  C   UNL     1       1.422   1.913  -0.001  0.00  0.00    -0.023 C 
ATOM      9  C   UNL     1       2.108   0.932   0.573  0.00  0.00    -0.030 C 
ATOM     10  C   UNL     1       1.161  -0.194   0.990  0.00  0.00    +0.033 C 
ATOM     11  C   UNL     1       0.002  -0.004   0.002  0.00  0.00    +0.029 C 
ATOM     12  C   UNL     1      -1.380  -0.429   0.464  0.00  0.00    +0.108 C 
ATOM     13  N   UNL     1      -2.311   0.030  -0.591  0.00  0.00    -0.336 N 
ATOM     14  H   UNL     1      -3.208  -0.560  -0.827  0.00  0.00    +0.147 HD
ENDROOT
BRANCH  12  15
ATOM     15  C   UNL     1      -1.446  -1.928   0.599  0.00  0.00    +0.015 A 
ATOM     16  C   UNL     1      -1.928  -2.696  -0.443  0.00  0.00    +0.024 A 
ATOM     17  C   UNL     1      -1.989  -4.073  -0.319  0.00  0.00    +0.018 A 
ATOM     18  C   UNL     1      -1.567  -4.683   0.849  0.00  0.00    +0.019 A 
ATOM     19  C   UNL     1      -1.085  -3.919   1.894  0.00  0.00    +0.047 A 
ATOM     20  C   UNL     1      -1.018  -2.539   1.769  0.00  0.00    +0.122 A 
ATOM     21 BR   UNL     1      -2.649  -5.121  -1.747  0.00  0.00    -0.050 Br
BRANCH  20  22
ATOM     22  O   UNL     1      -0.538  -1.785   2.793  0.00  0.00    -0.506 OA
ATOM     23  H   UNL     1      -0.199  -2.270   3.720  0.00  0.00    +0.292 HD
ENDBRANCH  20  22
ENDBRANCH  12  15
BRANCH   6  24
ATOM     24  C   UNL     1      -1.409   4.755  -3.556  0.00  0.00    +0.244 C 
ATOM     25  O   UNL     1      -0.422   5.434  -3.345  0.00  0.00    -0.270 OA
ATOM     26  N   UNL     1      -2.291   5.125  -4.506  0.00  0.00    -0.309 N 
ATOM     27  H   UNL     1      -3.183   4.511  -4.697  0.00  0.00    +0.149 HD
BRANCH  26  28
ATOM     28  C   UNL     1      -2.060   6.344  -5.285  0.00  0.00    +0.136 C 
BRANCH  28  29
ATOM     29  C   UNL     1      -3.200   6.532  -6.287  0.00  0.00    +0.135 C 
ATOM     30  C   UNL     1      -2.963   7.809  -7.117  0.00  0.00    +0.035 C 
ATOM     31  C   UNL     1      -2.920   7.307  -8.581  0.00  0.00    +0.031 C 
ATOM     32  C   UNL     1      -3.660   5.948  -8.481  0.00  0.00    +0.160 C 
ATOM     33  O   UNL     1      -3.234   5.424  -7.202  0.00  0.00    -0.375 OA
ENDBRANCH  28  29
ENDBRANCH  26  28
ENDBRANCH   6  24
TORSDOF 5
