REMARK  Name = ZINC36587042
REMARK  19 active torsions:
REMARK  status: ('A' for Active; 'I' for Inactive)
REMARK    1  A    between atoms: C_1  and  C_2
REMARK    2  A    between atoms: C_2  and  C_3
REMARK    3  A    between atoms: C_2  and  C_4
REMARK    4  A    between atoms: C_2  and  C_5
REMARK    5  A    between atoms: C_5  and  C_6
REMARK    6  A    between atoms: C_6  and  C_7
REMARK    7  A    between atoms: C_6  and  C_8
REMARK    8  A    between atoms: C_6  and  N_9
REMARK    9  A    between atoms: C_10  and  C_12
REMARK   10  A    between atoms: C_12  and  C_14
REMARK   11  A    between atoms: C_12  and  N_23
REMARK   12  A    between atoms: C_17  and  N_20
REMARK   13  A    between atoms: N_23  and  C_34
REMARK   14  A    between atoms: C_24  and  C_26
REMARK   15  A    between atoms: C_30  and  O_33
REMARK   16  A    between atoms: C_31  and  O_32
REMARK   17  A    between atoms: C_34  and  C_35
REMARK   18  A    between atoms: C_34  and  C_36
REMARK   19  A    between atoms: C_34  and  C_37
REMARK                            x       y       z     vdW  Elec       q    Type
REMARK                         _______ _______ _______ _____ _____    ______ ____
ROOT
ATOM      1  C   UNL     1       5.440  -1.399  -1.972  0.00  0.00    +0.193 C 
ENDROOT
BRANCH   1   2
ATOM      2  C   UNL     1       6.232  -2.681  -1.970  0.00  0.00    -0.018 A 
ATOM      3  C   UNL     1       7.122  -2.942  -0.945  0.00  0.00    +0.008 A 
ATOM      4  C   UNL     1       7.849  -4.118  -0.943  0.00  0.00    +0.033 A 
ATOM      5  C   UNL     1       7.686  -5.033  -1.966  0.00  0.00    +0.126 A 
ATOM      6  C   UNL     1       6.795  -4.772  -2.991  0.00  0.00    +0.033 A 
ATOM      7  C   UNL     1       6.065  -3.599  -2.991  0.00  0.00    +0.008 A 
BRANCH   5   8
ATOM      8  N   UNL     1       8.465  -6.291  -1.965  0.00  0.00    +0.056 N 
ATOM      9  O   UNL     1       9.244  -6.519  -1.069  0.00  0.00    -0.126 OA
ATOM     10  O   UNL     1       8.322  -7.092  -2.860  0.00  0.00    -0.126 OA
ENDBRANCH   5   8
ENDBRANCH   1   2
BRANCH   1  12
ATOM     11  N   UNL     1       3.318  -2.595  -1.539  0.00  0.00    -0.308 N 
ATOM     12  C   UNL     1       4.160  -1.598  -1.201  0.00  0.00    +0.239 C 
ATOM     13  O   UNL     1       3.889  -0.862  -0.277  0.00  0.00    -0.273 OA
ATOM     14  H   UNL     1       3.535  -3.184  -2.278  0.00  0.00    +0.149 HD
BRANCH  11  15
ATOM     15  C   UNL     1       2.074  -2.788  -0.789  0.00  0.00    +0.030 C 
ATOM     16  C   UNL     1       1.220  -1.522  -0.883  0.00  0.00    +0.031 C 
ATOM     17  C   UNL     1       2.402  -3.075   0.677  0.00  0.00    +0.031 C 
BRANCH  15  18
ATOM     18  C   UNL     1       1.302  -3.970  -1.380  0.00  0.00    +0.031 C 
BRANCH  18  20
ATOM     19  C   UNL     1       2.454  -3.970  -3.596  0.00  0.00    +0.010 C 
ATOM     20  C   UNL     1       1.117  -3.758  -2.884  0.00  0.00    -0.036 C 
ATOM     21  C   UNL     1       0.622  -2.333  -3.141  0.00  0.00    +0.010 C 
ATOM     22  C   UNL     1       0.091  -4.759  -3.417  0.00  0.00    +0.010 C 
ENDBRANCH  18  20
ENDBRANCH  15  18
ENDBRANCH  11  15
ENDBRANCH   1  12
BRANCH   1  23
ATOM     23  N   UNL     1       6.228  -0.337  -1.344  0.00  0.00    -0.277 N 
ATOM     24  C   UNL     1       6.599  -0.446  -0.053  0.00  0.00    +0.252 C 
ATOM     25  O   UNL     1       6.276  -1.425   0.592  0.00  0.00    -0.270 OA
BRANCH  24  26
ATOM     26  C   UNL     1       7.397   0.622   0.579  0.00  0.00    +0.082 A 
ATOM     27  C   UNL     1       7.899   1.674  -0.193  0.00  0.00    +0.017 A 
ATOM     28  C   UNL     1       8.643   2.670   0.400  0.00  0.00    +0.005 A 
ATOM     29  C   UNL     1       8.900   2.635   1.761  0.00  0.00    +0.049 A 
ATOM     30  C   UNL     1       8.411   1.599   2.539  0.00  0.00    +0.159 A 
ATOM     31  C   UNL     1       7.652   0.589   1.955  0.00  0.00    +0.171 A 
BRANCH  31  32
ATOM     32  O   UNL     1       7.166  -0.425   2.715  0.00  0.00    -0.503 OA
ATOM     33  H   UNL     1       7.762  -1.183   2.788  0.00  0.00    +0.292 HD
ENDBRANCH  31  32
BRANCH  30  34
ATOM     34  O   UNL     1       8.668   1.572   3.874  0.00  0.00    -0.503 OA
ATOM     35  H   UNL     1       8.004   2.026   4.412  0.00  0.00    +0.292 HD
ENDBRANCH  30  34
ENDBRANCH  24  26
BRANCH  23  36
ATOM     36  C   UNL     1       6.614   0.846  -2.119  0.00  0.00    +0.030 C 
ATOM     37  C   UNL     1       5.969   0.779  -3.505  0.00  0.00    +0.031 C 
ATOM     38  C   UNL     1       6.139   2.107  -1.395  0.00  0.00    +0.031 C 
ATOM     39  C   UNL     1       8.136   0.884  -2.266  0.00  0.00    +0.031 C 
ENDBRANCH  23  36
ENDBRANCH   1  23
TORSDOF 11
