REMARK  Name = ZINC08227561
REMARK  9 active torsions:
REMARK  status: ('A' for Active; 'I' for Inactive)
REMARK    1  A    between atoms: C_1  and  C_2
REMARK    2  A    between atoms: C_2  and  O_3
REMARK    3  A    between atoms: O_3  and  C_4
REMARK    4  A    between atoms: C_4  and  C_6
REMARK    5  A    between atoms: C_7  and  C_25
REMARK    6  A    between atoms: C_12  and  C_14
REMARK    7  A    between atoms: C_17  and  O_23
REMARK    8  A    between atoms: C_18  and  N_20
REMARK    9  A    between atoms: O_23  and  C_24
REMARK                            x       y       z     vdW  Elec       q    Type
REMARK                         _______ _______ _______ _____ _____    ______ ____
ROOT
ATOM      1  C   UNL     1      -5.637   0.933  -1.351  0.00  0.00    +0.078 C 
ATOM      2  C   UNL     1      -6.746   1.662  -1.605  0.00  0.00    +0.019 C 
ATOM      3  N   UNL     1      -7.373   2.359  -0.614  0.00  0.00    -0.300 N 
ATOM      4  C   UNL     1      -6.956   2.380   0.658  0.00  0.00    +0.135 C 
ATOM      5  S   UNL     1      -7.837   3.298   1.804  0.00  0.00    -0.019 S 
ATOM      6  N   UNL     1      -5.864   1.703   1.066  0.00  0.00    -0.315 N 
ATOM      7  C   UNL     1      -5.114   0.918   0.071  0.00  0.00    +0.141 C 
ATOM      8  C   UNL     1      -7.300   1.704  -3.006  0.00  0.00    +0.061 C 
ATOM      9  H   UNL     1      -8.166   2.868  -0.844  0.00  0.00    +0.154 HD
ATOM     10  H   UNL     1      -5.579   1.732   1.993  0.00  0.00    +0.149 HD
ENDROOT
BRANCH   7  11
ATOM     11  C   UNL     1      -3.696   1.426   0.051  0.00  0.00    -0.020 A 
ATOM     12  C   UNL     1      -3.451   2.786  -0.008  0.00  0.00    +0.009 A 
ATOM     13  C   UNL     1      -2.152   3.255  -0.027  0.00  0.00    +0.048 A 
ATOM     14  C   UNL     1      -1.092   2.360   0.013  0.00  0.00    +0.150 A 
ATOM     15  C   UNL     1      -1.341   0.997   0.071  0.00  0.00    +0.168 A 
ATOM     16  C   UNL     1      -2.642   0.532   0.085  0.00  0.00    +0.042 A 
BRANCH  15  17
ATOM     17  N   UNL     1      -0.212   0.039   0.114  0.00  0.00    +0.060 N 
ATOM     18  O   UNL     1      -0.431  -1.158   0.165  0.00  0.00    -0.126 OA
ATOM     19  O   UNL     1       0.935   0.449   0.091  0.00  0.00    -0.126 OA
ENDBRANCH  15  17
BRANCH  14  20
ATOM     20  O   UNL     1       0.187   2.819  -0.006  0.00  0.00    -0.493 OA
ATOM     21  C   UNL     1       0.367   4.235  -0.068  0.00  0.00    +0.277 C 
ENDBRANCH  14  20
ENDBRANCH   7  11
BRANCH   1  22
ATOM     22  C   UNL     1      -4.986   0.210  -2.377  0.00  0.00    +0.339 C 
ATOM     23  O   UNL     1      -5.485   0.144  -3.485  0.00  0.00    -0.245 OA
BRANCH  22  24
ATOM     24  O   UNL     1      -3.812  -0.407  -2.128  0.00  0.00    -0.462 OA
BRANCH  24  26
ATOM     25  C   UNL     1      -1.897  -1.748  -2.740  0.00  0.00    +0.048 C 
ATOM     26  C   UNL     1      -3.211  -1.120  -3.210  0.00  0.00    +0.229 C 
ENDBRANCH  24  26
ENDBRANCH  22  24
ENDBRANCH   1  22
TORSDOF 6
