REMARK  Name = ZINC01259705
REMARK  7 active torsions:
REMARK  status: ('A' for Active; 'I' for Inactive)
REMARK    1  A    between atoms: C_1  and  C_2
REMARK    2  A    between atoms: C_9  and  N_25
REMARK    3  A    between atoms: C_10  and  C_13
REMARK    4  A    between atoms: N_17  and  C_21
REMARK    5  A    between atoms: C_21  and  C_22
REMARK    6  A    between atoms: C_22  and  C_23
REMARK    7  A    between atoms: C_22  and  C_24
REMARK                            x       y       z     vdW  Elec       q    Type
REMARK                         _______ _______ _______ _____ _____    ______ ____
ROOT
ATOM      1  C   UNL     1       6.539  -0.565   1.372  0.00  0.00    +0.047 C 
ATOM      2  C   UNL     1       6.763   0.923   1.446  0.00  0.00    -0.007 A 
ATOM      3  C   UNL     1       8.027   1.422   1.566  0.00  0.00    +0.008 A 
ATOM      4  C   UNL     1       8.219   2.808   1.634  0.00  0.00    +0.019 A 
ATOM      5  C   UNL     1       7.157   3.644   1.580  0.00  0.00    +0.096 A 
ATOM      6  N   UNL     1       5.890   3.155   1.460  0.00  0.00    -0.267 N 
ATOM      7  C   UNL     1       5.671   1.807   1.392  0.00  0.00    +0.145 A 
ATOM      8  N   UNL     1       4.439   1.310   1.275  0.00  0.00    -0.213 NA
ATOM      9  C   UNL     1       3.374   2.097   1.219  0.00  0.00    +0.136 A 
ATOM     10  C   UNL     1       3.540   3.501   1.279  0.00  0.00    +0.081 A 
ATOM     11  C   UNL     1       4.852   4.017   1.409  0.00  0.00    +0.267 A 
ATOM     12  O   UNL     1       5.041   5.220   1.468  0.00  0.00    -0.267 OA
ENDROOT
BRANCH  10  13
ATOM     13  C   UNL     1       2.423   4.366   1.216  0.00  0.00    +0.037 C 
ATOM     14  C   UNL     1       1.405   4.233   2.115  0.00  0.00    +0.077 C 
ATOM     15  C   UNL     1       0.155   4.913   2.174  0.00  0.00    +0.258 C 
ATOM     16  O   UNL     1      -0.140   5.756   1.345  0.00  0.00    -0.269 OA
ATOM     17  N   UNL     1      -0.677   4.601   3.152  0.00  0.00    -0.255 N 
ATOM     18  C   UNL     1      -0.347   3.671   4.076  0.00  0.00    +0.121 C 
ATOM     19  S   UNL     1      -1.256   3.122   5.419  0.00  0.00    -0.027 S 
ATOM     20  S   UNL     1       1.280   3.164   3.541  0.00  0.00    -0.061 S 
BRANCH  17  21
ATOM     21  C   UNL     1      -1.974   5.277   3.240  0.00  0.00    +0.118 C 
BRANCH  21  22
ATOM     22  C   UNL     1      -1.835   6.540   4.092  0.00  0.00    +0.001 C 
ATOM     23  C   UNL     1      -0.908   7.532   3.385  0.00  0.00    +0.009 C 
ATOM     24  C   UNL     1      -3.211   7.178   4.287  0.00  0.00    +0.009 C 
ENDBRANCH  21  22
ENDBRANCH  17  21
ENDBRANCH  10  13
BRANCH   9  25
ATOM     25  N   UNL     1       2.115   1.552   1.097  0.00  0.00    -0.315 N 
ATOM     26  C   UNL     1       1.504   1.920  -0.186  0.00  0.00    +0.106 C 
ATOM     27  C   UNL     1       0.057   1.422  -0.226  0.00  0.00    +0.019 C 
ATOM     28  C   UNL     1       0.041  -0.099  -0.049  0.00  0.00    +0.003 C 
ATOM     29  C   UNL     1       0.726  -0.459   1.273  0.00  0.00    +0.019 C 
ATOM     30  C   UNL     1       2.154   0.094   1.269  0.00  0.00    +0.106 C 
ENDBRANCH   9  25
TORSDOF 4
