REMARK  Name = ZINC59368496
REMARK  7 active torsions:
REMARK  status: ('A' for Active; 'I' for Inactive)
REMARK    1  A    between atoms: C_1  and  C_2
REMARK    2  A    between atoms: C_2  and  C_3
REMARK    3  A    between atoms: C_2  and  N_4
REMARK    4  A    between atoms: C_10  and  C_16
REMARK    5  A    between atoms: N_18  and  C_19
REMARK    6  A    between atoms: C_19  and  C_21
REMARK    7  A    between atoms: C_19  and  C_27
REMARK                            x       y       z     vdW  Elec       q    Type
REMARK                         _______ _______ _______ _____ _____    ______ ____
ROOT
ATOM      1  C   UNL     1       3.370  -2.830   6.466  0.00  0.00    +0.245 C 
ATOM      2  O   UNL     1       2.515  -3.494   7.017  0.00  0.00    -0.270 OA
ATOM      3  N   UNL     1       4.597  -2.721   7.014  0.00  0.00    -0.298 N 
ATOM      4  H   UNL     1       5.279  -2.191   6.574  0.00  0.00    +0.150 HD
ENDROOT
BRANCH   1  11
ATOM      5  N   UNL     1       0.711  -0.489   1.189  0.00  0.00    -0.165 N 
ATOM      6  C   UNL     1       1.982  -0.236   1.535  0.00  0.00    +0.268 C 
ATOM      7  O   UNL     1       2.691   0.465   0.840  0.00  0.00    -0.268 OA
ATOM      8  C   UNL     1       2.493  -0.831   2.780  0.00  0.00    +0.065 A 
ATOM      9  C   UNL     1       3.766  -0.731   3.369  0.00  0.00    +0.016 A 
ATOM     10  C   UNL     1       4.041  -1.374   4.552  0.00  0.00    +0.014 A 
ATOM     11  C   UNL     1       3.065  -2.140   5.192  0.00  0.00    +0.039 A 
ATOM     12  C   UNL     1       1.794  -2.247   4.616  0.00  0.00    +0.042 A 
ATOM     13  C   UNL     1       1.530  -1.604   3.441  0.00  0.00    +0.122 A 
ATOM     14  S   UNL     1       0.102  -1.470   2.400  0.00  0.00    +0.078 S 
ATOM     15  O   UNL     1      -0.880  -0.725   3.106  0.00  0.00    -0.150 OA
ATOM     16  O   UNL     1      -0.141  -2.751   1.837  0.00  0.00    -0.150 OA
BRANCH   5  18
ATOM     17  C   UNL     1      -0.019   1.526   0.010  0.00  0.00    +0.030 C 
ATOM     18  C   UNL     1       0.002  -0.004   0.002  0.00  0.00    +0.095 C 
ATOM     19  C   UNL     1       0.718  -0.497  -1.257  0.00  0.00    +0.030 C 
ENDBRANCH   5  18
ENDBRANCH   1  11
BRANCH   3  20
ATOM     20  C   UNL     1       4.899  -3.405   8.274  0.00  0.00    +0.170 C 
BRANCH  20  21
ATOM     21  C   UNL     1       6.382  -3.657   8.365  0.00  0.00    -0.020 A 
ATOM     22  C   UNL     1       7.275  -2.691   7.941  0.00  0.00    +0.006 A 
ATOM     23  C   UNL     1       8.635  -2.922   8.025  0.00  0.00    +0.000 A 
ATOM     24  C   UNL     1       9.102  -4.120   8.533  0.00  0.00    +0.000 A 
ATOM     25  C   UNL     1       8.210  -5.086   8.957  0.00  0.00    +0.000 A 
ATOM     26  C   UNL     1       6.849  -4.853   8.878  0.00  0.00    +0.006 A 
ENDBRANCH  20  21
BRANCH  20  27
ATOM     27  C   UNL     1       4.465  -2.541   9.430  0.00  0.00    +0.129 A 
ATOM     28  C   UNL     1       3.878  -2.976  10.560  0.00  0.00    +0.047 A 
ATOM     29  C   UNL     1       3.644  -1.837  11.364  0.00  0.00    +0.041 A 
ATOM     30  C   UNL     1       4.101  -0.775  10.678  0.00  0.00    +0.195 A 
ATOM     31  O   UNL     1       4.602  -1.208   9.510  0.00  0.00    -0.466 OA
ENDBRANCH  20  27
ENDBRANCH   3  20
TORSDOF 5
