REMARK  Name = ZINC05235673
REMARK  6 active torsions:
REMARK  status: ('A' for Active; 'I' for Inactive)
REMARK    1  A    between atoms: C_1  and  C_2
REMARK    2  A    between atoms: C_7  and  C_20
REMARK    3  A    between atoms: C_12  and  C_13
REMARK    4  A    between atoms: C_13  and  C_14
REMARK    5  A    between atoms: C_24  and  C_25
REMARK    6  A    between atoms: C_24  and  N_53
REMARK                            x       y       z     vdW  Elec       q    Type
REMARK                         _______ _______ _______ _____ _____    ______ ____
ROOT
ATOM      1  C   UNL     1      -2.536  -0.479   0.020  0.00  0.00    +0.045 C 
ATOM      2  C   UNL     1      -2.503   1.028   0.030  0.00  0.00    -0.030 A 
ATOM      3  C   UNL     1      -1.234   1.758   0.018  0.00  0.00    +0.021 A 
ATOM      4  C   UNL     1      -0.013   1.076   0.008  0.00  0.00    +0.017 A 
ATOM      5  C   UNL     1       1.162   1.775   0.001  0.00  0.00    -0.021 A 
ATOM      6  C   UNL     1       1.149   3.167   0.008  0.00  0.00    +0.125 A 
ATOM      7  C   UNL     1      -0.054   3.858   0.025  0.00  0.00    +0.034 A 
ATOM      8  C   UNL     1      -1.255   3.165   0.032  0.00  0.00    +0.146 A 
ATOM      9  O   UNL     1      -2.426   3.832   0.048  0.00  0.00    -0.422 OA
ATOM     10  C   UNL     1      -3.583   3.162   0.054  0.00  0.00    +0.341 A 
ATOM     11  O   UNL     1      -4.623   3.796   0.068  0.00  0.00    -0.245 OA
ATOM     12  C   UNL     1      -3.651   1.755   0.046  0.00  0.00    +0.045 A 
ATOM     13  C   UNL     1      -0.055   5.365   0.034  0.00  0.00    +0.051 C 
ATOM     14  O   UNL     1       2.311   3.872  -0.003  0.00  0.00    -0.509 OA
ATOM     15  C   UNL     1       3.505   3.165   0.343  0.00  0.00    +0.158 C 
ATOM     16  C   UNL     1       2.466   1.017  -0.014  0.00  0.00    -0.034 C 
ATOM     17  N   UNL     1       3.545   1.922  -0.454  0.00  0.00    +0.410 N 
ATOM     18  H   UNL     1       3.405   2.153  -1.445  0.00  0.00    -0.076 HD
ENDROOT
BRANCH  12  19
ATOM     19  C   UNL     1      -4.989   1.061   0.053  0.00  0.00    +0.077 C 
BRANCH  19  20
ATOM     20  C   UNL     1      -5.447   0.839  -1.365  0.00  0.00    -0.043 A 
ATOM     21  C   UNL     1      -6.214   1.797  -2.002  0.00  0.00    +0.004 A 
ATOM     22  C   UNL     1      -6.631   1.596  -3.304  0.00  0.00    +0.000 A 
ATOM     23  C   UNL     1      -6.289   0.431  -3.967  0.00  0.00    +0.000 A 
ATOM     24  C   UNL     1      -5.527  -0.529  -3.328  0.00  0.00    +0.000 A 
ATOM     25  C   UNL     1      -5.106  -0.325  -2.027  0.00  0.00    +0.004 A 
ENDBRANCH  19  20
ENDBRANCH  12  19
BRANCH  17  26
ATOM     26  C   UNL     1       4.859   1.258  -0.296  0.00  0.00    +0.002 C 
BRANCH  26  27
ATOM     27  C   UNL     1       5.917   2.103  -0.957  0.00  0.00    +0.089 A 
ATOM     28  C   UNL     1       6.631   3.076  -0.364  0.00  0.00    +0.042 A 
ATOM     29  C   UNL     1       7.504   3.601  -1.345  0.00  0.00    +0.041 A 
ATOM     30  C   UNL     1       7.264   2.922  -2.482  0.00  0.00    +0.195 A 
ATOM     31  O   UNL     1       6.302   2.017  -2.241  0.00  0.00    -0.470 OA
ENDBRANCH  26  27
ENDBRANCH  17  26
TORSDOF 4
