REMARK  Name = ZINC09633302
REMARK  7 active torsions:
REMARK  status: ('A' for Active; 'I' for Inactive)
REMARK    1  A    between atoms: C_1  and  C_2
REMARK    2  A    between atoms: N_10  and  N_14
REMARK    3  A    between atoms: C_15  and  C_17
REMARK    4  A    between atoms: C_17  and  S_18
REMARK    5  A    between atoms: S_18  and  C_19
REMARK    6  A    between atoms: C_22  and  C_25
REMARK    7  A    between atoms: N_23  and  N_24
REMARK                            x       y       z     vdW  Elec       q    Type
REMARK                         _______ _______ _______ _____ _____    ______ ____
ROOT
ATOM      1  N   UNL     1      -5.945   4.123   0.048  0.00  0.00    -0.223 N 
ATOM      2  C   UNL     1      -5.120   3.057   0.039  0.00  0.00    +0.240 C 
ATOM      3  O   UNL     1      -5.579   1.935   0.035  0.00  0.00    -0.273 OA
ATOM      4  H   UNL     1      -5.578   5.020   0.052  0.00  0.00    +0.174 HD
ENDROOT
BRANCH   1  14
ATOM      5  C   UNL     1     -13.806   3.203   0.634  0.00  0.00    +0.007 C 
ATOM      6  C   UNL     1     -12.394   3.526   1.126  0.00  0.00    -0.014 C 
ATOM      7  C   UNL     1     -11.499   2.297   0.948  0.00  0.00    +0.006 C 
ATOM      8  C   UNL     1     -10.090   2.618   1.452  0.00  0.00    +0.035 C 
ATOM      9  C   UNL     1      -9.523   3.798   0.670  0.00  0.00    +0.114 C 
ATOM     10  C   UNL     1     -10.418   5.023   0.818  0.00  0.00    +0.035 C 
ATOM     11  C   UNL     1     -11.826   4.693   0.316  0.00  0.00    +0.006 C 
ATOM     12  C   UNL     1      -8.119   4.112   1.135  0.00  0.00    +0.263 C 
ATOM     13  O   UNL     1      -7.773   4.452   2.246  0.00  0.00    -0.271 OA
ATOM     14  N   UNL     1      -7.333   3.934   0.053  0.00  0.00    -0.137 N 
ATOM     15  C   UNL     1      -8.045   3.560  -1.017  0.00  0.00    +0.326 C 
ATOM     16  O   UNL     1      -7.560   3.344  -2.110  0.00  0.00    -0.251 OA
ATOM     17  N   UNL     1      -9.360   3.446  -0.746  0.00  0.00    -0.284 N 
ATOM     18  H   UNL     1     -10.060   3.188  -1.365  0.00  0.00    +0.151 HD
ENDBRANCH   1  14
BRANCH   2  19
ATOM     19  C   UNL     1      -3.627   3.260   0.034  0.00  0.00    +0.174 C 
BRANCH  19  20
ATOM     20  S   UNL     1      -2.799   1.651   0.022  0.00  0.00    -0.075 S 
BRANCH  20  21
ATOM     21  C   UNL     1      -1.116   2.172   0.018  0.00  0.00    +0.209 A 
ATOM     22  N   UNL     1      -0.684   3.414   0.026  0.00  0.00    -0.121 NA
ATOM     23  N   UNL     1       0.600   3.434   0.014  0.00  0.00    -0.127 NA
ATOM     24  C   UNL     1       1.068   2.208   0.004  0.00  0.00    +0.183 A 
ATOM     25  N   UNL     1      -0.016   1.362   0.009  0.00  0.00    -0.224 N 
BRANCH  24  26
ATOM     26  C   UNL     1       2.492   1.811  -0.011  0.00  0.00    +0.039 A 
ATOM     27  C   UNL     1       2.843   0.460  -0.014  0.00  0.00    +0.014 A 
ATOM     28  C   UNL     1       4.173   0.096  -0.032  0.00  0.00    +0.021 A 
ATOM     29  C   UNL     1       5.161   1.067  -0.037  0.00  0.00    +0.042 A 
ATOM     30  C   UNL     1       4.820   2.409  -0.028  0.00  0.00    +0.040 A 
ATOM     31  C   UNL     1       3.492   2.786  -0.015  0.00  0.00    +0.053 A 
ATOM     32 CL   UNL     1       3.066   4.469  -0.003  0.00  0.00    -0.083 Cl
ATOM     33 CL   UNL     1       6.832   0.599  -0.054  0.00  0.00    -0.083 Cl
ENDBRANCH  24  26
BRANCH  25  34
ATOM     34  N   UNL     1       0.002  -0.004   0.002  0.00  0.00    -0.295 N 
ATOM     35  H   UNL     1       0.016  -0.371   0.942  0.00  0.00    +0.163 HD
ATOM     36  H   UNL     1      -0.779  -0.373  -0.519  0.00  0.00    +0.163 HD
ENDBRANCH  25  34
ENDBRANCH  20  21
ENDBRANCH  19  20
ENDBRANCH   2  19
TORSDOF 6
