REMARK  Name = ZINC21473235
REMARK  4 active torsions:
REMARK  status: ('A' for Active; 'I' for Inactive)
REMARK    1  A    between atoms: C_4  and  N_7
REMARK    2  A    between atoms: C_11  and  C_13
REMARK    3  A    between atoms: C_13  and  N_14
REMARK    4  A    between atoms: N_19  and  C_22
REMARK                            x       y       z     vdW  Elec       q    Type
REMARK                         _______ _______ _______ _____ _____    ______ ____
ROOT
ATOM      1  N   UNL     1       1.085   1.982   0.002  0.00  0.00    -0.209 N 
ATOM      2  C   UNL     1       0.708   3.279   0.012  0.00  0.00    +0.310 C 
ATOM      3  O   UNL     1       1.429   4.254   0.010  0.00  0.00    -0.264 OA
ATOM      4  C   UNL     1      -0.792   3.259   0.026  0.00  0.00    +0.310 C 
ATOM      5  O   UNL     1      -1.540   4.214   0.038  0.00  0.00    -0.264 OA
ATOM      6  N   UNL     1      -1.134   1.952   0.018  0.00  0.00    -0.211 N 
ATOM      7  C   UNL     1      -0.014   1.211   0.009  0.00  0.00    +0.319 C 
ATOM      8  O   UNL     1       0.002  -0.004   0.002  0.00  0.00    -0.252 OA
ENDROOT
BRANCH   6   9
ATOM      9  C   UNL     1      -2.502   1.429   0.020  0.00  0.00    +0.047 C 
ATOM     10  C   UNL     1      -2.716   0.566   1.266  0.00  0.00    +0.030 C 
ATOM     11  C   UNL     1      -4.145   0.020   1.269  0.00  0.00    -0.008 C 
ATOM     12  C   UNL     1      -5.136   1.186   1.279  0.00  0.00    +0.007 C 
ATOM     13  C   UNL     1      -4.923   2.048   0.034  0.00  0.00    -0.008 C 
ATOM     14  C   UNL     1      -3.494   2.595   0.031  0.00  0.00    +0.030 C 
ATOM     15  C   UNL     1      -5.147   1.200  -1.219  0.00  0.00    +0.007 C 
ATOM     16  C   UNL     1      -4.156   0.034  -1.230  0.00  0.00    -0.008 C 
ATOM     17  C   UNL     1      -4.369  -0.829   0.015  0.00  0.00    +0.007 C 
ATOM     18  C   UNL     1      -2.727   0.580  -1.233  0.00  0.00    +0.030 C 
ENDBRANCH   6   9
BRANCH   1  19
ATOM     19  C   UNL     1       2.467   1.497  -0.012  0.00  0.00    +0.214 C 
BRANCH  19  24
ATOM     20  N   UNL     1       5.836   0.318  -3.232  0.00  0.00    -0.296 N 
ATOM     21  C   UNL     1       4.588   0.756  -2.973  0.00  0.00    +0.306 C 
ATOM     22  O   UNL     1       3.835   1.022  -3.888  0.00  0.00    -0.252 OA
ATOM     23  N   UNL     1       4.176   0.899  -1.698  0.00  0.00    -0.239 N 
ATOM     24  C   UNL     1       2.928   1.337  -1.438  0.00  0.00    +0.238 C 
ATOM     25  O   UNL     1       2.176   1.602  -2.352  0.00  0.00    -0.274 OA
ATOM     26  H   UNL     1       6.518   0.077  -2.403  0.00  0.00    +0.151 HD
ATOM     27  H   UNL     1       4.858   0.658  -0.869  0.00  0.00    +0.159 HD
BRANCH  20  31
ATOM     28  C   UNL     1       7.845  -1.260  -6.649  0.00  0.00    +0.000 C 
ATOM     29  C   UNL     1       8.277   0.110  -6.124  0.00  0.00    +0.002 C 
ATOM     30  C   UNL     1       7.809   0.273  -4.676  0.00  0.00    +0.022 C 
ATOM     31  C   UNL     1       6.284   0.162  -4.618  0.00  0.00    +0.074 C 
ATOM     32  C   UNL     1       5.852  -1.208  -5.143  0.00  0.00    +0.022 C 
ATOM     33  C   UNL     1       6.320  -1.371  -6.591  0.00  0.00    +0.002 C 
ENDBRANCH  20  31
ENDBRANCH  19  24
ENDBRANCH   1  19
TORSDOF 4
