REMARK  Name = ZINC44060959
REMARK  6 active torsions:
REMARK  status: ('A' for Active; 'I' for Inactive)
REMARK    1  A    between atoms: C_1  and  C_2
REMARK    2  A    between atoms: C_4  and  C_16
REMARK    3  A    between atoms: C_5  and  C_15
REMARK    4  A    between atoms: N_6  and  C_7
REMARK    5  A    between atoms: N_17  and  N_18
REMARK    6  A    between atoms: C_19  and  C_21
REMARK                            x       y       z     vdW  Elec       q    Type
REMARK                         _______ _______ _______ _____ _____    ______ ____
ROOT
ATOM      1  C   UNL     1      -0.018   1.503   0.010  0.00  0.00    +0.064 C 
ATOM      2  C   UNL     1       0.002  -0.004   0.002  0.00  0.00    +0.022 A 
ATOM      3  C   UNL     1       0.008  -0.780  -1.097  0.00  0.00    +0.032 A 
ATOM      4  C   UNL     1       0.029  -2.170  -0.628  0.00  0.00    +0.016 A 
ATOM      5  C   UNL     1       0.034  -2.112   0.738  0.00  0.00    +0.030 A 
ATOM      6  N   UNL     1       0.024  -0.804   1.109  0.00  0.00    -0.316 N 
ATOM      7  C   UNL     1       0.053  -3.295   1.671  0.00  0.00    +0.064 C 
ENDROOT
BRANCH   6   8
ATOM      8  C   UNL     1       0.030  -0.344   2.433  0.00  0.00    +0.066 A 
ATOM      9  C   UNL     1      -1.168  -0.138   3.104  0.00  0.00    +0.028 A 
ATOM     10  C   UNL     1      -1.159   0.315   4.409  0.00  0.00    +0.004 A 
ATOM     11  C   UNL     1       0.042   0.564   5.048  0.00  0.00    +0.021 A 
ATOM     12  C   UNL     1       1.238   0.360   4.383  0.00  0.00    +0.061 A 
ATOM     13  C   UNL     1       1.235  -0.100   3.079  0.00  0.00    +0.083 A 
ATOM     14 CL   UNL     1       2.736  -0.363   2.247  0.00  0.00    -0.080 Cl
ATOM     15 CL   UNL     1       2.743   0.675   5.190  0.00  0.00    -0.082 Cl
ENDBRANCH   6   8
BRANCH   4  16
ATOM     16  C   UNL     1       0.042  -3.384  -1.462  0.00  0.00    +0.140 C 
ATOM     17  N   UNL     1       0.059  -4.556  -0.901  0.00  0.00    -0.187 NA
BRANCH  17  18
ATOM     18  N   UNL     1       0.071  -5.711  -1.694  0.00  0.00    -0.199 N 
ATOM     19  C   UNL     1       0.090  -6.927  -1.114  0.00  0.00    +0.318 C 
ATOM     20  O   UNL     1       0.096  -7.022   0.097  0.00  0.00    -0.263 OA
ATOM     21  H   UNL     1       0.066  -5.636  -2.661  0.00  0.00    +0.178 HD
BRANCH  19  22
ATOM     22  C   UNL     1       0.102  -8.157  -1.958  0.00  0.00    +0.298 C 
ATOM     23  O   UNL     1       0.096  -8.062  -3.168  0.00  0.00    -0.265 OA
ATOM     24  N   UNL     1       0.121  -9.373  -1.377  0.00  0.00    -0.322 N 
ATOM     25  H   UNL     1       0.126  -9.448  -0.410  0.00  0.00    +0.145 HD
ATOM     26  H   UNL     1       0.129 -10.172  -1.926  0.00  0.00    +0.145 HD
ENDBRANCH  19  22
ENDBRANCH  17  18
ENDBRANCH   4  16
TORSDOF 4
