REMARK  Name = ZINC38612412
REMARK  9 active torsions:
REMARK  status: ('A' for Active; 'I' for Inactive)
REMARK    1  A    between atoms: C_1  and  C_2
REMARK    2  A    between atoms: C_7  and  C_29
REMARK    3  A    between atoms: C_9  and  N_12
REMARK    4  A    between atoms: C_13  and  C_15
REMARK    5  A    between atoms: C_15  and  C_16
REMARK    6  A    between atoms: C_15  and  C_22
REMARK    7  A    between atoms: C_15  and  O_28
REMARK    8  A    between atoms: C_29  and  O_31
REMARK    9  A    between atoms: O_31  and  C_32
REMARK                            x       y       z     vdW  Elec       q    Type
REMARK                         _______ _______ _______ _____ _____    ______ ____
ROOT
ATOM      1  N   UNL     1       0.781  -3.997   3.755  0.00  0.00    -0.283 N 
ATOM      2  C   UNL     1       0.646  -2.688   4.043  0.00  0.00    +0.258 C 
ATOM      3  O   UNL     1       0.058  -1.956   3.277  0.00  0.00    -0.272 OA
ATOM      4  H   UNL     1       1.185  -4.597   4.401  0.00  0.00    +0.155 HD
ENDROOT
BRANCH   1  12
ATOM      5  C   UNL     1       0.856  -9.472   2.867  0.00  0.00    +0.044 C 
ATOM      6  C   UNL     1       0.482  -8.193   2.163  0.00  0.00    -0.050 A 
ATOM      7  C   UNL     1      -0.022  -8.254   0.861  0.00  0.00    +0.005 A 
ATOM      8  C   UNL     1      -0.376  -7.139   0.177  0.00  0.00    +0.026 A 
ATOM      9  C   UNL     1      -0.237  -5.864   0.785  0.00  0.00    +0.045 A 
ATOM     10  N   UNL     1      -0.503  -4.652   0.341  0.00  0.00    -0.367 N 
ATOM     11  C   UNL     1      -0.171  -3.676   1.384  0.00  0.00    +0.234 C 
ATOM     12  C   UNL     1       0.349  -4.479   2.556  0.00  0.00    +0.053 C 
ATOM     13  C   UNL     1       0.295  -5.803   2.158  0.00  0.00    +0.018 A 
ATOM     14  C   UNL     1       0.638  -7.011   2.810  0.00  0.00    +0.015 A 
ATOM     15  H   UNL     1      -0.862  -4.440  -0.535  0.00  0.00    +0.161 HD
BRANCH  11  16
ATOM     16  C   UNL     1       0.892  -2.729   0.889  0.00  0.00    +0.335 C 
ATOM     17  O   UNL     1       1.836  -3.154   0.266  0.00  0.00    -0.248 OA
BRANCH  16  18
ATOM     18  O   UNL     1       0.789  -1.415   1.139  0.00  0.00    -0.466 OA
ATOM     19  C   UNL     1       1.833  -0.576   0.640  0.00  0.00    +0.280 C 
ENDBRANCH  16  18
ENDBRANCH  11  16
ENDBRANCH   1  12
BRANCH   2  20
ATOM     20  C   UNL     1       1.228  -2.133   5.318  0.00  0.00    +0.192 C 
BRANCH  20  21
ATOM     21  C   UNL     1       2.679  -1.788   5.100  0.00  0.00    -0.003 A 
ATOM     22  C   UNL     1       3.074  -1.172   3.928  0.00  0.00    +0.007 A 
ATOM     23  C   UNL     1       4.404  -0.855   3.727  0.00  0.00    +0.000 A 
ATOM     24  C   UNL     1       5.340  -1.155   4.700  0.00  0.00    +0.000 A 
ATOM     25  C   UNL     1       4.945  -1.770   5.873  0.00  0.00    +0.000 A 
ATOM     26  C   UNL     1       3.614  -2.083   6.075  0.00  0.00    +0.007 A 
ENDBRANCH  20  21
BRANCH  20  27
ATOM     27  C   UNL     1       0.471  -0.893   5.718  0.00  0.00    -0.003 A 
ATOM     28  C   UNL     1      -0.262  -0.878   6.890  0.00  0.00    +0.007 A 
ATOM     29  C   UNL     1      -0.956   0.260   7.257  0.00  0.00    +0.000 A 
ATOM     30  C   UNL     1      -0.917   1.383   6.452  0.00  0.00    +0.000 A 
ATOM     31  C   UNL     1      -0.183   1.368   5.280  0.00  0.00    +0.000 A 
ATOM     32  C   UNL     1       0.515   0.232   4.916  0.00  0.00    +0.007 A 
ENDBRANCH  20  27
BRANCH  20  33
ATOM     33  O   UNL     1       1.122  -3.111   6.355  0.00  0.00    -0.371 OA
ATOM     34  H   UNL     1       0.214  -3.381   6.549  0.00  0.00    +0.212 HD
ENDBRANCH  20  33
ENDBRANCH   2  20
TORSDOF 7
