REMARK  Name = ZINC09156658
REMARK  5 active torsions:
REMARK  status: ('A' for Active; 'I' for Inactive)
REMARK    1  A    between atoms: C_1  and  C_2
REMARK    2  A    between atoms: C_2  and  O_3
REMARK    3  A    between atoms: O_3  and  C_4
REMARK    4  A    between atoms: C_8  and  C_11
REMARK    5  A    between atoms: C_9  and  O_10
REMARK                            x       y       z     vdW  Elec       q    Type
REMARK                         _______ _______ _______ _____ _____    ______ ____
ROOT
ATOM      1  C   UNL     1       3.866   1.806  -0.070  0.00  0.00    +0.212 C 
ATOM      2  N   UNL     1       4.804   0.822  -0.640  0.00  0.00    -0.293 N 
ATOM      3  C   UNL     1       5.324  -0.166   0.154  0.00  0.00    +0.183 C 
ATOM      4  N   UNL     1       5.512   0.018   1.449  0.00  0.00    -0.183 NA
ATOM      5  C   UNL     1       5.116   1.192   1.997  0.00  0.00    +0.236 A 
ATOM      6  N   UNL     1       4.327   2.087   1.294  0.00  0.00    -0.285 N 
ATOM      7  C   UNL     1       4.106   3.174   2.104  0.00  0.00    +0.076 A 
ATOM      8  C   UNL     1       3.416   4.370   1.952  0.00  0.00    +0.077 A 
ATOM      9  C   UNL     1       3.370   5.274   2.996  0.00  0.00    +0.164 A 
ATOM     10  C   UNL     1       4.012   4.997   4.199  0.00  0.00    +0.164 A 
ATOM     11  C   UNL     1       4.707   3.817   4.365  0.00  0.00    +0.079 A 
ATOM     12  C   UNL     1       4.761   2.892   3.318  0.00  0.00    +0.095 A 
ATOM     13  N   UNL     1       5.351   1.672   3.190  0.00  0.00    -0.210 NA
ATOM     14  O   UNL     1       3.946   5.901   5.222  0.00  0.00    -0.488 OA
ATOM     15  C   UNL     1       4.642   7.131   5.015  0.00  0.00    +0.232 C 
ATOM     16  C   UNL     1       3.779   8.115   4.240  0.00  0.00    +0.082 C 
ATOM     17  C   UNL     1       3.480   7.636   2.829  0.00  0.00    +0.232 C 
ATOM     18  O   UNL     1       2.686   6.448   2.853  0.00  0.00    -0.488 OA
ATOM     19  N   UNL     1       5.657  -1.369  -0.406  0.00  0.00    -0.331 N 
ATOM     20  H   UNL     1       5.052   0.873  -1.576  0.00  0.00    +0.151 HD
ATOM     21  H   UNL     1       5.525  -1.515  -1.356  0.00  0.00    +0.145 HD
ATOM     22  H   UNL     1       6.027  -2.076   0.146  0.00  0.00    +0.145 HD
ENDROOT
BRANCH   1  27
ATOM     23  C   UNL     1       0.446   0.614  -1.169  0.00  0.00    +0.162 A 
ATOM     24  C   UNL     1      -0.088   0.177   0.033  0.00  0.00    +0.049 A 
ATOM     25  C   UNL     1       0.657   0.267   1.194  0.00  0.00    +0.004 A 
ATOM     26  C   UNL     1       1.935   0.794   1.159  0.00  0.00    +0.011 A 
ATOM     27  C   UNL     1       2.473   1.233  -0.036  0.00  0.00    +0.038 A 
ATOM     28  C   UNL     1       1.732   1.144  -1.204  0.00  0.00    +0.165 A 
BRANCH  28  29
ATOM     29  O   UNL     1       2.260   1.574  -2.381  0.00  0.00    -0.503 OA
ATOM     30  H   UNL     1       2.028   2.486  -2.606  0.00  0.00    +0.292 HD
ENDBRANCH  28  29
BRANCH  23  31
ATOM     31  O   UNL     1      -0.284   0.521  -2.312  0.00  0.00    -0.489 OA
BRANCH  31  33
ATOM     32  C   UNL     1      -2.257  -0.061  -3.581  0.00  0.00    +0.048 C 
ATOM     33  C   UNL     1      -1.595  -0.039  -2.202  0.00  0.00    +0.226 C 
ENDBRANCH  31  33
ENDBRANCH  23  31
ENDBRANCH   1  27
TORSDOF 4
