REMARK  Name = ZINC27522604
REMARK  10 active torsions:
REMARK  status: ('A' for Active; 'I' for Inactive)
REMARK    1  A    between atoms: C_1  and  O_2
REMARK    2  A    between atoms: O_2  and  C_3
REMARK    3  A    between atoms: C_6  and  C_11
REMARK    4  A    between atoms: C_8  and  O_9
REMARK    5  A    between atoms: O_9  and  C_10
REMARK    6  A    between atoms: C_11  and  C_12
REMARK    7  A    between atoms: C_12  and  N_13
REMARK    8  A    between atoms: C_17  and  C_28
REMARK    9  A    between atoms: N_21  and  C_22
REMARK   10  A    between atoms: N_30  and  C_31
REMARK                            x       y       z     vdW  Elec       q    Type
REMARK                         _______ _______ _______ _____ _____    ______ ____
ROOT
ATOM      1  N   UNL     1       4.626  -3.377  -5.213  0.00  0.00    -0.250 N 
ATOM      2  C   UNL     1       4.656  -4.701  -5.246  0.00  0.00    +0.223 C 
ATOM      3  O   UNL     1       4.014  -5.263  -4.384  0.00  0.00    -0.275 OA
ATOM      4  C   UNL     1       5.373  -5.591  -6.201  0.00  0.00    +0.120 C 
ATOM      5  C   UNL     1       5.570  -4.940  -7.572  0.00  0.00    +0.149 C 
ATOM      6  S   UNL     1       6.327  -3.302  -7.311  0.00  0.00    -0.077 S 
ATOM      7  C   UNL     1       5.169  -2.562  -6.189  0.00  0.00    +0.164 C 
ATOM      8  N   UNL     1       4.843  -1.294  -6.280  0.00  0.00    -0.226 NA
ENDROOT
BRANCH   8   9
ATOM      9  C   UNL     1       5.397  -0.512  -7.258  0.00  0.00    +0.067 A 
ATOM     10  C   UNL     1       6.766  -0.585  -7.522  0.00  0.00    +0.028 A 
ATOM     11  C   UNL     1       7.319   0.205  -8.508  0.00  0.00    +0.002 A 
ATOM     12  C   UNL     1       6.519   1.068  -9.236  0.00  0.00    +0.000 A 
ATOM     13  C   UNL     1       5.161   1.145  -8.981  0.00  0.00    +0.002 A 
ATOM     14  C   UNL     1       4.595   0.356  -8.001  0.00  0.00    +0.028 A 
ENDBRANCH   8   9
BRANCH   5  15
ATOM     15  C   UNL     1       6.481  -5.795  -8.416  0.00  0.00    +0.231 C 
ATOM     16  O   UNL     1       7.336  -6.474  -7.888  0.00  0.00    -0.274 OA
ATOM     17  N   UNL     1       6.344  -5.804  -9.757  0.00  0.00    -0.285 N 
ATOM     18  H   UNL     1       5.618  -5.314 -10.174  0.00  0.00    +0.155 HD
BRANCH  17  19
ATOM     19  C   UNL     1       7.249  -6.521 -10.547  0.00  0.00    +0.035 A 
ATOM     20  C   UNL     1       7.625  -6.032 -11.792  0.00  0.00    +0.023 A 
ATOM     21  C   UNL     1       8.518  -6.741 -12.570  0.00  0.00    +0.003 A 
ATOM     22  C   UNL     1       9.040  -7.937 -12.111  0.00  0.00    +0.020 A 
ATOM     23  C   UNL     1       8.668  -8.427 -10.872  0.00  0.00    +0.043 A 
ATOM     24  C   UNL     1       7.778  -7.719 -10.086  0.00  0.00    +0.043 A 
ATOM     25 CL   UNL     1       9.325  -9.929 -10.300  0.00  0.00    -0.083 Cl
ENDBRANCH  17  19
ENDBRANCH   5  15
BRANCH   1  26
ATOM     26  C   UNL     1       3.971  -2.735  -4.071  0.00  0.00    +0.120 C 
BRANCH  26  27
ATOM     27  C   UNL     1       2.487  -2.528  -4.384  0.00  0.00    +0.054 C 
BRANCH  27  31
ATOM     28  C   UNL     1       0.575  -0.647  -1.053  0.00  0.00    +0.161 A 
ATOM     29  C   UNL     1       1.135   0.123  -2.060  0.00  0.00    +0.049 A 
ATOM     30  C   UNL     1       1.753  -0.488  -3.135  0.00  0.00    +0.007 A 
ATOM     31  C   UNL     1       1.813  -1.867  -3.210  0.00  0.00    -0.042 A 
ATOM     32  C   UNL     1       1.256  -2.641  -2.209  0.00  0.00    +0.053 A 
ATOM     33  C   UNL     1       0.641  -2.035  -1.126  0.00  0.00    +0.162 A 
BRANCH  28  35
ATOM     34  C   UNL     1      -0.063   1.381   0.013  0.00  0.00    +0.277 C 
ATOM     35  O   UNL     1      -0.033  -0.048   0.005  0.00  0.00    -0.491 OA
ENDBRANCH  28  35
BRANCH  33  36
ATOM     36  O   UNL     1       0.097  -2.796  -0.138  0.00  0.00    -0.491 OA
ATOM     37  C   UNL     1       0.202  -4.214  -0.278  0.00  0.00    +0.277 C 
ENDBRANCH  33  36
ENDBRANCH  27  31
ENDBRANCH  26  27
ENDBRANCH   1  26
TORSDOF 8
