REMARK  Name = ZINC13303345
REMARK  4 active torsions:
REMARK  status: ('A' for Active; 'I' for Inactive)
REMARK    1  A    between atoms: C_4  and  C_7
REMARK    2  A    between atoms: N_13  and  N_14
REMARK    3  A    between atoms: C_15  and  C_16
REMARK    4  A    between atoms: C_19  and  N_22
REMARK                            x       y       z     vdW  Elec       q    Type
REMARK                         _______ _______ _______ _____ _____    ______ ____
ROOT
ATOM      1  C   UNL     1       3.698  -0.687  -0.037  0.00  0.00    +0.080 A 
ATOM      2  C   UNL     1       3.723  -2.074  -0.051  0.00  0.00    +0.098 A 
ATOM      3  C   UNL     1       4.966  -2.725  -0.066  0.00  0.00    +0.253 A 
ATOM      4  N   UNL     1       6.091  -1.980  -0.068  0.00  0.00    -0.294 N 
ATOM      5  C   UNL     1       6.010  -0.620  -0.054  0.00  0.00    +0.216 A 
ATOM      6  N   UNL     1       4.849  -0.002  -0.045  0.00  0.00    -0.215 NA
ATOM      7  N   UNL     1       7.164   0.120  -0.055  0.00  0.00    -0.207 N 
ATOM      8  O   UNL     1       5.029  -3.944  -0.078  0.00  0.00    -0.268 OA
ATOM      9  H   UNL     1       8.026  -0.325  -0.066  0.00  0.00    +0.177 HD
ATOM     10  H   UNL     1       6.958  -2.413  -0.078  0.00  0.00    +0.172 HD
ENDROOT
BRANCH   1  14
ATOM     11  C   UNL     1      -0.017   1.379   0.010  0.00  0.00    +0.000 A 
ATOM     12  C   UNL     1       1.169   2.093   0.002  0.00  0.00    +0.001 A 
ATOM     13  C   UNL     1       2.377   1.427  -0.013  0.00  0.00    +0.010 A 
ATOM     14  C   UNL     1       2.403   0.033  -0.021  0.00  0.00    +0.001 A 
ATOM     15  C   UNL     1       1.205  -0.680  -0.013  0.00  0.00    +0.010 A 
ATOM     16  C   UNL     1       0.002  -0.004   0.002  0.00  0.00    +0.001 A 
ENDBRANCH   1  14
BRANCH   7  17
ATOM     17  N   UNL     1       7.099   1.520  -0.041  0.00  0.00    -0.188 NA
ATOM     18  C   UNL     1       8.191   2.220  -0.042  0.00  0.00    +0.138 C 
BRANCH  18  19
ATOM     19  C   UNL     1       8.122   3.693  -0.027  0.00  0.00    -0.005 A 
ATOM     20  C   UNL     1       6.883   4.338  -0.005  0.00  0.00    +0.012 A 
ATOM     21  C   UNL     1       6.826   5.716   0.009  0.00  0.00    +0.033 A 
ATOM     22  C   UNL     1       7.993   6.460   0.002  0.00  0.00    +0.126 A 
ATOM     23  C   UNL     1       9.224   5.828  -0.019  0.00  0.00    +0.033 A 
ATOM     24  C   UNL     1       9.296   4.451  -0.028  0.00  0.00    +0.012 A 
BRANCH  22  25
ATOM     25  N   UNL     1       7.923   7.939   0.018  0.00  0.00    +0.056 N 
ATOM     26  O   UNL     1       6.849   8.493   0.036  0.00  0.00    -0.126 OA
ATOM     27  O   UNL     1       8.941   8.591   0.012  0.00  0.00    -0.126 OA
ENDBRANCH  22  25
ENDBRANCH  18  19
ENDBRANCH   7  17
TORSDOF 4
