REMARK  Name = ZINC24937185
REMARK  9 active torsions:
REMARK  status: ('A' for Active; 'I' for Inactive)
REMARK    1  A    between atoms: C_1  and  C_2
REMARK    2  A    between atoms: C_2  and  C_3
REMARK    3  A    between atoms: C_3  and  C_4
REMARK    4  A    between atoms: C_7  and  C_10
REMARK    5  A    between atoms: C_10  and  C_33
REMARK    6  A    between atoms: N_13  and  C_17
REMARK    7  A    between atoms: C_17  and  C_18
REMARK    8  A    between atoms: C_20  and  O_21
REMARK    9  A    between atoms: C_30  and  C_32
REMARK                            x       y       z     vdW  Elec       q    Type
REMARK                         _______ _______ _______ _____ _____    ______ ____
ROOT
ATOM      1  C   UNL     1      -0.687   1.625   1.275  0.00  0.00    +0.135 C 
ATOM      2  C   UNL     1       0.009   1.111   2.520  0.00  0.00    +0.251 C 
ATOM      3  O   UNL     1       1.149   1.333   2.867  0.00  0.00    -0.272 OA
ATOM      4  N   UNL     1      -0.904   0.354   3.161  0.00  0.00    -0.220 N 
ATOM      5  C   UNL     1      -2.067   0.320   2.501  0.00  0.00    +0.310 C 
ATOM      6  O   UNL     1      -3.043  -0.297   2.883  0.00  0.00    -0.252 OA
ATOM      7  N   UNL     1      -2.037   1.045   1.368  0.00  0.00    -0.281 N 
ATOM      8  C   UNL     1       0.027   1.129   0.016  0.00  0.00    +0.047 C 
ATOM      9  H   UNL     1      -2.780   1.252   0.584  0.00  0.00    +0.152 HD
ENDROOT
BRANCH   1  13
ATOM     10  C   UNL     1      -0.870   5.893   1.313  0.00  0.00    -0.047 A 
ATOM     11  C   UNL     1      -1.880   5.163   0.715  0.00  0.00    +0.004 A 
ATOM     12  C   UNL     1      -1.821   3.782   0.704  0.00  0.00    +0.006 A 
ATOM     13  C   UNL     1      -0.751   3.131   1.288  0.00  0.00    -0.015 A 
ATOM     14  C   UNL     1       0.257   3.861   1.890  0.00  0.00    +0.006 A 
ATOM     15  C   UNL     1       0.200   5.242   1.898  0.00  0.00    +0.004 A 
BRANCH  10  16
ATOM     16  C   UNL     1      -0.934   7.398   1.325  0.00  0.00    +0.035 C 
BRANCH  16  18
ATOM     17  C   UNL     1      -1.733   9.395   2.597  0.00  0.00    +0.004 C 
ATOM     18  C   UNL     1      -1.667   7.867   2.584  0.00  0.00    +0.001 C 
ENDBRANCH  16  18
ENDBRANCH  10  16
ENDBRANCH   1  13
BRANCH   4  19
ATOM     19  C   UNL     1      -0.653  -0.345   4.424  0.00  0.00    +0.154 C 
BRANCH  19  20
ATOM     20  C   UNL     1      -0.892   0.597   5.575  0.00  0.00    -0.012 A 
ATOM     21  C   UNL     1      -1.377   1.849   5.364  0.00  0.00    +0.093 A 
ATOM     22  C   UNL     1      -1.597   2.710   6.459  0.00  0.00    +0.285 A 
ATOM     23  O   UNL     1      -1.329   2.331   7.718  0.00  0.00    -0.425 OA
ATOM     24  C   UNL     1      -0.840   1.104   7.997  0.00  0.00    +0.141 A 
ATOM     25  C   UNL     1      -0.601   0.191   6.952  0.00  0.00    +0.022 A 
ATOM     26  C   UNL     1      -0.095  -1.083   7.236  0.00  0.00    +0.014 A 
ATOM     27  C   UNL     1       0.167  -1.436   8.527  0.00  0.00    +0.024 A 
ATOM     28  C   UNL     1      -0.067  -0.537   9.567  0.00  0.00    +0.037 A 
ATOM     29  C   UNL     1      -0.568   0.729   9.303  0.00  0.00    +0.070 A 
ATOM     30  N   UNL     1       0.206  -0.913  10.882  0.00  0.00    -0.286 N 
ATOM     31  C   UNL     1      -0.580  -0.475  11.886  0.00  0.00    +0.214 C 
ATOM     32  O   UNL     1      -1.474   0.312  11.656  0.00  0.00    -0.276 OA
ATOM     33  C   UNL     1      -0.348  -0.962  13.293  0.00  0.00    +0.109 C 
ATOM     34  H   UNL     1       1.063  -1.568  11.101  0.00  0.00    +0.155 HD
BRANCH  22  35
ATOM     35  O   UNL     1      -2.037   3.827   6.256  0.00  0.00    -0.480 OA
ATOM     36  H   UNL     1      -2.215   4.510   7.100  0.00  0.00    +0.295 HD
ENDBRANCH  22  35
ENDBRANCH  19  20
ENDBRANCH   4  19
TORSDOF 6
