REMARK  Name = ZINC04685919
REMARK  2 active torsions:
REMARK  status: ('A' for Active; 'I' for Inactive)
REMARK    1  A    between atoms: C_8  and  S_10
REMARK    2  A    between atoms: S_10  and  C_11
REMARK                            x       y       z     vdW  Elec       q    Type
REMARK                         _______ _______ _______ _____ _____    ______ ____
ROOT
ATOM      1  S   UNL     1      -2.253   4.756   0.049  0.00  0.00    -0.092 S 
ENDROOT
BRANCH   1   9
ATOM      2  C   UNL     1       1.190  -0.688  -0.013  0.00  0.00    +0.002 A 
ATOM      3  C   UNL     1       2.408  -0.025  -0.021  0.00  0.00    +0.001 A 
ATOM      4  C   UNL     1       2.426   1.358  -0.014  0.00  0.00    +0.017 A 
ATOM      5  C   UNL     1       1.242   2.051   0.001  0.00  0.00    +0.040 A 
ATOM      6  C   UNL     1      -0.017   1.410   0.010  0.00  0.00    +0.079 A 
ATOM      7  C   UNL     1       0.002  -0.004   0.002  0.00  0.00    +0.029 A 
ATOM      8  N   UNL     1      -1.091   2.229   0.019  0.00  0.00    -0.233 NA
ATOM      9  C   UNL     1      -0.980   3.538   0.030  0.00  0.00    +0.136 A 
ATOM     10  S   UNL     1       0.792   3.770   0.015  0.00  0.00    -0.061 S 
ENDBRANCH   1   9
BRANCH   1  11
ATOM     11  C   UNL     1      -3.712   3.685   0.057  0.00  0.00    +0.092 C 
ATOM     12  C   UNL     1      -3.780   2.901  -1.260  0.00  0.00    +0.097 C 
ATOM     13  C   UNL     1      -4.239   3.833  -2.351  0.00  0.00    +0.190 C 
ATOM     14  O   UNL     1      -3.706   3.852  -3.434  0.00  0.00    -0.292 OA
ATOM     15  C   UNL     1      -5.403   4.756  -2.012  0.00  0.00    +0.319 C 
ATOM     16  O   UNL     1      -6.469   3.912  -1.530  0.00  0.00    -0.342 OA
ATOM     17  C   UNL     1      -6.208   3.675  -0.134  0.00  0.00    +0.196 C 
ATOM     18  C   UNL     1      -4.976   4.542   0.200  0.00  0.00    +0.161 C 
ATOM     19  O   UNL     1      -4.969   5.536  -0.853  0.00  0.00    -0.338 OA
ENDBRANCH   1  11
TORSDOF 2
