REMARK  Name = ZINC65526094
REMARK  9 active torsions:
REMARK  status: ('A' for Active; 'I' for Inactive)
REMARK    1  A    between atoms: C_1  and  C_2
REMARK    2  A    between atoms: C_2  and  N_3
REMARK    3  A    between atoms: C_10  and  C_27
REMARK    4  A    between atoms: C_10  and  C_30
REMARK    5  A    between atoms: C_12  and  C_14
REMARK    6  A    between atoms: C_19  and  C_20
REMARK    7  A    between atoms: C_27  and  C_28
REMARK    8  A    between atoms: C_28  and  O_29
REMARK    9  A    between atoms: C_30  and  O_31
REMARK                            x       y       z     vdW  Elec       q    Type
REMARK                         _______ _______ _______ _____ _____    ______ ____
ROOT
ATOM      1  N   UNL     1      -2.047   0.862   0.648  0.00  0.00    +0.380 N 
ATOM      2  C   UNL     1      -2.652   0.660  -0.693  0.00  0.00    -0.074 C 
ATOM      3  C   UNL     1      -3.373  -0.701  -0.597  0.00  0.00    -0.007 C 
ATOM      4  C   UNL     1      -2.641  -1.459   0.544  0.00  0.00    -0.002 C 
ATOM      5  C   UNL     1      -1.548  -0.484   1.029  0.00  0.00    -0.073 C 
ATOM      6  C   UNL     1      -1.977  -2.668  -0.146  0.00  0.00    +0.046 C 
ATOM      7  N   UNL     1      -1.824  -2.256  -1.565  0.00  0.00    -0.304 NA
ATOM      8  C   UNL     1      -3.081  -1.510  -1.878  0.00  0.00    +0.070 C 
ATOM      9  H   UNL     1      -1.020  -1.658  -1.683  0.00  0.00    +0.123 HD
ATOM     10  H   UNL     1      -2.742   1.181   1.306  0.00  0.00    -0.082 HD
ENDROOT
BRANCH   8  11
ATOM     11  C   UNL     1      -2.892  -0.571  -3.071  0.00  0.00    +0.100 C 
ATOM     12  C   UNL     1      -3.738   0.676  -2.907  0.00  0.00    +0.119 C 
ATOM     13  N   UNL     1      -2.910   1.669  -2.868  0.00  0.00    -0.161 NA
ATOM     14  N   UNL     1      -1.585   1.262  -2.984  0.00  0.00    -0.153 NA
ATOM     15  C   UNL     1      -1.474  -0.035  -3.110  0.00  0.00    +0.080 C 
BRANCH  15  16
ATOM     16  C   UNL     1      -0.235  -0.814  -3.256  0.00  0.00    -0.001 A 
ATOM     17  C   UNL     1      -0.290  -2.151  -3.665  0.00  0.00    +0.012 A 
ATOM     18  C   UNL     1       0.874  -2.875  -3.801  0.00  0.00    +0.039 A 
ATOM     19  C   UNL     1       2.099  -2.281  -3.533  0.00  0.00    +0.123 A 
ATOM     20  C   UNL     1       2.160  -0.957  -3.128  0.00  0.00    +0.039 A 
ATOM     21  C   UNL     1       1.003  -0.220  -2.994  0.00  0.00    +0.012 A 
ATOM     22  F   UNL     1       3.237  -2.997  -3.667  0.00  0.00    -0.205 F 
ENDBRANCH  15  16
ENDBRANCH   8  11
BRANCH   1  24
ATOM     23  C   UNL     1      -1.487   3.220   0.299  0.00  0.00    -0.017 C 
ATOM     24  C   UNL     1      -0.935   1.819   0.570  0.00  0.00    -0.082 C 
ENDBRANCH   1  24
BRANCH   6  25
ATOM     25  C   UNL     1      -2.876  -3.901  -0.043  0.00  0.00    +0.052 C 
BRANCH  25  26
ATOM     26  C   UNL     1      -2.262  -5.049  -0.848  0.00  0.00    +0.157 C 
BRANCH  26  27
ATOM     27  O   UNL     1      -3.160  -6.161  -0.853  0.00  0.00    -0.395 OA
ATOM     28  H   UNL     1      -2.835  -6.926  -1.346  0.00  0.00    +0.209 HD
ENDBRANCH  26  27
ENDBRANCH  25  26
ENDBRANCH   6  25
BRANCH   6  29
ATOM     29  C   UNL     1      -0.608  -2.951   0.476  0.00  0.00    +0.178 C 
BRANCH  29  30
ATOM     30  O   UNL     1      -0.750  -3.104   1.890  0.00  0.00    -0.393 OA
ATOM     31  H   UNL     1       0.080  -3.287   2.351  0.00  0.00    +0.209 HD
ENDBRANCH  29  30
ENDBRANCH   6  29
TORSDOF 8
