REMARK  Name = ZINC39011868
REMARK  11 active torsions:
REMARK  status: ('A' for Active; 'I' for Inactive)
REMARK    1  A    between atoms: C_1  and  C_2
REMARK    2  A    between atoms: C_2  and  C_3
REMARK    3  A    between atoms: C_3  and  C_4
REMARK    4  A    between atoms: C_6  and  C_18
REMARK    5  A    between atoms: C_8  and  C_16
REMARK    6  A    between atoms: C_9  and  N_15
REMARK    7  A    between atoms: C_21  and  O_26
REMARK    8  A    between atoms: C_22  and  O_24
REMARK    9  A    between atoms: O_24  and  C_25
REMARK   10  A    between atoms: O_26  and  C_27
REMARK   11  A    between atoms: C_27  and  C_28
REMARK                            x       y       z     vdW  Elec       q    Type
REMARK                         _______ _______ _______ _____ _____    ______ ____
ROOT
ATOM      1  C   UNL     1       0.739  -2.004  -1.265  0.00  0.00    +0.069 C 
ATOM      2  C   UNL     1      -0.135  -2.762  -1.882  0.00  0.00    +0.030 C 
ATOM      3  C   UNL     1      -1.270  -2.477  -2.828  0.00  0.00    +0.098 C 
ATOM      4  C   UNL     1      -1.180  -3.541  -3.905  0.00  0.00    +0.097 C 
ATOM      5  C   UNL     1      -0.337  -4.590  -3.798  0.00  0.00    +0.195 C 
ATOM      6  O   UNL     1       0.524  -4.828  -2.792  0.00  0.00    -0.448 OA
ATOM      7  C   UNL     1       0.266  -4.197  -1.536  0.00  0.00    +0.343 C 
ATOM      8  N   UNL     1       1.490  -3.990  -0.756  0.00  0.00    -0.138 NA
ATOM      9  N   UNL     1       1.668  -2.771  -0.639  0.00  0.00    -0.155 NA
ENDROOT
BRANCH   3  10
ATOM     10  C   UNL     1      -2.588  -2.575  -2.104  0.00  0.00    -0.031 A 
ATOM     11  C   UNL     1      -2.956  -3.763  -1.498  0.00  0.00    +0.008 A 
ATOM     12  C   UNL     1      -4.164  -3.858  -0.833  0.00  0.00    +0.050 A 
ATOM     13  C   UNL     1      -5.009  -2.762  -0.771  0.00  0.00    +0.162 A 
ATOM     14  C   UNL     1      -4.639  -1.567  -1.381  0.00  0.00    +0.162 A 
ATOM     15  C   UNL     1      -3.425  -1.476  -2.042  0.00  0.00    +0.054 A 
BRANCH  14  16
ATOM     16  O   UNL     1      -5.466  -0.488  -1.323  0.00  0.00    -0.491 OA
ATOM     17  C   UNL     1      -5.021   0.705  -1.971  0.00  0.00    +0.277 C 
ENDBRANCH  14  16
BRANCH  13  18
ATOM     18  O   UNL     1      -6.198  -2.854  -0.118  0.00  0.00    -0.484 OA
BRANCH  18  19
ATOM     19  C   UNL     1      -6.512  -4.112   0.483  0.00  0.00    +0.264 C 
BRANCH  19  20
ATOM     20  C   UNL     1      -7.858  -4.025   1.157  0.00  0.00    -0.010 A 
ATOM     21  C   UNL     1      -7.945  -3.628   2.478  0.00  0.00    +0.008 A 
ATOM     22  C   UNL     1      -9.179  -3.548   3.096  0.00  0.00    +0.020 A 
ATOM     23  C   UNL     1     -10.326  -3.866   2.392  0.00  0.00    +0.041 A 
ATOM     24  C   UNL     1     -10.239  -4.263   1.070  0.00  0.00    +0.020 A 
ATOM     25  C   UNL     1      -9.005  -4.338   0.451  0.00  0.00    +0.008 A 
ATOM     26 CL   UNL     1     -11.876  -3.766   3.167  0.00  0.00    -0.084 Cl
ENDBRANCH  19  20
ENDBRANCH  18  19
ENDBRANCH  13  18
ENDBRANCH   3  10
BRANCH   5  27
ATOM     27  N   UNL     1      -0.361  -5.506  -4.818  0.00  0.00    -0.329 N 
ATOM     28  H   UNL     1      -0.964  -5.382  -5.568  0.00  0.00    +0.145 HD
ATOM     29  H   UNL     1       0.225  -6.279  -4.790  0.00  0.00    +0.145 HD
ENDBRANCH   5  27
BRANCH   4  30
ATOM     30  C   UNL     1      -2.010  -3.431  -5.066  0.00  0.00    +0.101 C 
ATOM     31  N   UNL     1      -2.670  -3.343  -5.987  0.00  0.00    -0.191 NA
ENDBRANCH   4  30
BRANCH   1  32
ATOM     32  C   UNL     1       0.718  -0.497  -1.257  0.00  0.00    +0.057 C 
BRANCH  32  34
ATOM     33  C   UNL     1      -0.019   1.526   0.010  0.00  0.00    +0.004 C 
ATOM     34  C   UNL     1       0.002  -0.004   0.002  0.00  0.00    +0.003 C 
ENDBRANCH  32  34
ENDBRANCH   1  32
TORSDOF 9
