REMARK  Name = ZINC20696516
REMARK  7 active torsions:
REMARK  status: ('A' for Active; 'I' for Inactive)
REMARK    1  A    between atoms: C_1  and  C_2
REMARK    2  A    between atoms: C_2  and  C_3
REMARK    3  A    between atoms: C_3  and  C_5
REMARK    4  A    between atoms: C_3  and  N_6
REMARK    5  A    between atoms: C_7  and  C_9
REMARK    6  A    between atoms: C_22  and  C_25
REMARK    7  A    between atoms: C_30  and  O_31
REMARK                            x       y       z     vdW  Elec       q    Type
REMARK                         _______ _______ _______ _____ _____    ______ ____
ROOT
ATOM      1  C   UNL     1       1.313   1.790  -0.022  0.00  0.00    +0.037 A 
ATOM      2  C   UNL     1       1.243   3.187  -0.023  0.00  0.00    +0.015 A 
ATOM      3  C   UNL     1       2.403   3.925  -0.020  0.00  0.00    +0.024 A 
ATOM      4  C   UNL     1       3.641   3.284  -0.027  0.00  0.00    +0.031 A 
ATOM      5  C   UNL     1       3.721   1.899  -0.033  0.00  0.00    -0.019 A 
ATOM      6  C   UNL     1       2.555   1.155  -0.029  0.00  0.00    +0.019 A 
ATOM      7  C   UNL     1       5.031   1.157  -0.048  0.00  0.00    +0.049 C 
ATOM      8  C   UNL     1       5.055   0.300  -1.307  0.00  0.00    -0.023 C 
ATOM      9  C   UNL     1       5.701   0.914  -2.266  0.00  0.00    -0.030 C 
ATOM     10  C   UNL     1       6.204   2.264  -1.787  0.00  0.00    +0.033 C 
ATOM     11  C   UNL     1       6.234   2.096  -0.249  0.00  0.00    +0.029 C 
ATOM     12  C   UNL     1       6.040   3.430   0.448  0.00  0.00    +0.108 C 
ATOM     13  N   UNL     1       4.801   4.056  -0.025  0.00  0.00    -0.336 N 
ATOM     14  H   UNL     1       4.808   5.103  -0.363  0.00  0.00    +0.147 HD
ENDROOT
BRANCH  12  15
ATOM     15  C   UNL     1       5.954   3.209   1.937  0.00  0.00    +0.015 A 
ATOM     16  C   UNL     1       4.726   3.233   2.570  0.00  0.00    +0.024 A 
ATOM     17  C   UNL     1       4.647   3.031   3.936  0.00  0.00    +0.018 A 
ATOM     18  C   UNL     1       5.797   2.804   4.671  0.00  0.00    +0.019 A 
ATOM     19  C   UNL     1       7.027   2.779   4.042  0.00  0.00    +0.047 A 
ATOM     20  C   UNL     1       7.108   2.976   2.671  0.00  0.00    +0.122 A 
ATOM     21 BR   UNL     1       2.965   3.064   4.799  0.00  0.00    -0.050 Br
BRANCH  20  22
ATOM     22  O   UNL     1       8.316   2.946   2.050  0.00  0.00    -0.506 OA
ATOM     23  H   UNL     1       9.230   2.761   2.633  0.00  0.00    +0.292 HD
ENDBRANCH  20  22
ENDBRANCH  12  15
BRANCH   1  25
ATOM     24  N   UNL     1      -1.126   1.603  -0.018  0.00  0.00    -0.309 N 
ATOM     25  C   UNL     1       0.074   0.989  -0.019  0.00  0.00    +0.244 C 
ATOM     26  O   UNL     1       0.135  -0.225  -0.023  0.00  0.00    -0.270 OA
ATOM     27  H   UNL     1      -1.181   2.702  -0.014  0.00  0.00    +0.149 HD
BRANCH  24  28
ATOM     28  C   UNL     1      -2.356   0.808  -0.021  0.00  0.00    +0.070 C 
ATOM     29  C   UNL     1      -2.715   0.430  -1.460  0.00  0.00    +0.028 C 
BRANCH  28  31
ATOM     30  C   UNL     1      -3.192   1.898   2.066  0.00  0.00    +0.005 C 
ATOM     31  C   UNL     1      -3.494   1.627   0.591  0.00  0.00    +0.018 C 
ENDBRANCH  28  31
ENDBRANCH  24  28
ENDBRANCH   1  25
TORSDOF 5
