REMARK  Name = ZINC11882420
REMARK  10 active torsions:
REMARK  status: ('A' for Active; 'I' for Inactive)
REMARK    1  A    between atoms: C_1  and  C_2
REMARK    2  A    between atoms: C_2  and  C_3
REMARK    3  A    between atoms: C_3  and  C_5
REMARK    4  A    between atoms: C_3  and  N_16
REMARK    5  A    between atoms: C_11  and  C_15
REMARK    6  A    between atoms: C_17  and  C_19
REMARK    7  A    between atoms: C_19  and  C_20
REMARK    8  A    between atoms: C_20  and  C_21
REMARK    9  A    between atoms: C_21  and  C_27
REMARK   10  A    between atoms: C_27  and  C_28
REMARK                            x       y       z     vdW  Elec       q    Type
REMARK                         _______ _______ _______ _____ _____    ______ ____
ROOT
ATOM      1  N   UNL     1       4.462   1.742  -2.071  0.00  0.00    -0.306 N 
ATOM      2  C   UNL     1       5.731   2.111  -2.335  0.00  0.00    +0.214 C 
ATOM      3  O   UNL     1       6.286   2.923  -1.625  0.00  0.00    -0.276 OA
ATOM      4  H   UNL     1       4.018   1.093  -2.639  0.00  0.00    +0.149 HD
ENDROOT
BRANCH   1   5
ATOM      5  C   UNL     1       3.753   2.321  -0.927  0.00  0.00    +0.139 C 
BRANCH   5   6
ATOM      6  C   UNL     1       2.268   2.262  -1.175  0.00  0.00    +0.129 A 
ATOM      7  N   UNL     1       1.459   3.346  -1.323  0.00  0.00    -0.340 N 
ATOM      8  H   UNL     1       1.740   4.304  -1.287  0.00  0.00    +0.167 HD
ATOM      9  C   UNL     1       0.177   2.876  -1.531  0.00  0.00    +0.066 A 
ATOM     10  C   UNL     1      -1.053   3.484  -1.743  0.00  0.00    +0.028 A 
ATOM     11  C   UNL     1      -2.177   2.707  -1.921  0.00  0.00    +0.005 A 
ATOM     12  C   UNL     1      -2.086   1.322  -1.895  0.00  0.00    -0.048 A 
ATOM     13  C   UNL     1      -0.885   0.707  -1.682  0.00  0.00    +0.033 A 
ATOM     14  C   UNL     1       0.268   1.474  -1.499  0.00  0.00    +0.089 A 
ATOM     15  N   UNL     1       1.572   1.167  -1.278  0.00  0.00    -0.231 NA
ATOM     16  C   UNL     1      -3.326   0.490  -2.098  0.00  0.00    +0.044 C 
ENDBRANCH   5   6
BRANCH   5  18
ATOM     17  C   UNL     1       5.578   1.689   0.658  0.00  0.00    +0.006 C 
ATOM     18  C   UNL     1       4.091   1.527   0.337  0.00  0.00    +0.027 C 
ENDBRANCH   5  18
ENDBRANCH   1   5
BRANCH   2  19
ATOM     19  C   UNL     1       6.460   1.516  -3.511  0.00  0.00    +0.098 C 
BRANCH  19  20
ATOM     20  C   UNL     1       7.872   2.100  -3.585  0.00  0.00    +0.035 C 
BRANCH  20  21
ATOM     21  C   UNL     1       8.642   1.433  -4.726  0.00  0.00    +0.039 C 
ATOM     22  C   UNL     1      10.002   2.134  -4.936  0.00  0.00    +0.035 C 
ATOM     23  C   UNL     1       9.658   3.165  -6.037  0.00  0.00    +0.098 C 
ATOM     24  C   UNL     1       8.463   2.567  -6.745  0.00  0.00    +0.214 C 
ATOM     25  O   UNL     1       8.056   2.913  -7.834  0.00  0.00    -0.276 OA
ATOM     26  N   UNL     1       7.917   1.597  -5.992  0.00  0.00    -0.309 N 
ATOM     27  H   UNL     1       7.143   1.072  -6.252  0.00  0.00    +0.149 HD
BRANCH  21  28
ATOM     28  C   UNL     1       8.851  -0.053  -4.425  0.00  0.00    +0.061 C 
BRANCH  28  29
ATOM     29  C   UNL     1       9.503  -0.719  -5.609  0.00  0.00    -0.045 A 
ATOM     30  C   UNL     1       8.729  -1.169  -6.662  0.00  0.00    +0.005 A 
ATOM     31  C   UNL     1       9.327  -1.775  -7.751  0.00  0.00    +0.020 A 
ATOM     32  C   UNL     1      10.700  -1.940  -7.782  0.00  0.00    +0.041 A 
ATOM     33  C   UNL     1      11.475  -1.494  -6.726  0.00  0.00    +0.020 A 
ATOM     34  C   UNL     1      10.876  -0.883  -5.640  0.00  0.00    +0.005 A 
ATOM     35 CL   UNL     1      11.452  -2.708  -9.146  0.00  0.00    -0.084 Cl
ENDBRANCH  28  29
ENDBRANCH  21  28
ENDBRANCH  20  21
ENDBRANCH  19  20
ENDBRANCH   2  19
TORSDOF 8
