REMARK  Name = ZINC31174675
REMARK  11 active torsions:
REMARK  status: ('A' for Active; 'I' for Inactive)
REMARK    1  A    between atoms: C_1  and  C_2
REMARK    2  A    between atoms: C_2  and  N_3
REMARK    3  A    between atoms: N_3  and  C_4
REMARK    4  A    between atoms: N_3  and  C_16
REMARK    5  A    between atoms: C_4  and  C_5
REMARK    6  A    between atoms: C_16  and  C_17
REMARK    7  A    between atoms: N_19  and  C_20
REMARK    8  A    between atoms: C_21  and  C_32
REMARK    9  A    between atoms: C_22  and  C_31
REMARK   10  A    between atoms: C_23  and  C_30
REMARK   11  A    between atoms: N_24  and  C_25
REMARK                            x       y       z     vdW  Elec       q    Type
REMARK                         _______ _______ _______ _____ _____    ______ ____
ROOT
ATOM      1  C   UNL     1       4.565   0.789  -2.375  0.00  0.00    +0.202 C 
ATOM      2  O   UNL     1       4.390  -0.374  -2.672  0.00  0.00    -0.278 OA
ATOM      3  N   UNL     1       5.378   1.561  -3.124  0.00  0.00    -0.272 N 
ATOM      4  H   UNL     1       5.568   2.604  -2.832  0.00  0.00    +0.156 HD
ENDROOT
BRANCH   3   5
ATOM      5  C   UNL     1       5.974   1.040  -4.263  0.00  0.00    +0.123 A 
ATOM      6  C   UNL     1       5.313   0.486  -5.350  0.00  0.00    +0.095 A 
ATOM      7  C   UNL     1       6.360   0.081  -6.296  0.00  0.00    -0.011 A 
ATOM      8  C   UNL     1       7.535   0.399  -5.729  0.00  0.00    +0.022 A 
ATOM      9  N   UNL     1       7.308   0.975  -4.508  0.00  0.00    -0.329 N 
ATOM     10  C   UNL     1       8.891   0.159  -6.342  0.00  0.00    +0.064 C 
ATOM     11  C   UNL     1       6.155  -0.571  -7.639  0.00  0.00    +0.047 C 
BRANCH   9  12
ATOM     12  C   UNL     1       8.352   1.452  -3.599  0.00  0.00    +0.089 C 
ATOM     13  C   UNL     1       8.254   0.714  -2.248  0.00  0.00    +0.025 C 
ATOM     14  C   UNL     1       8.604   1.798  -1.197  0.00  0.00    +0.002 C 
ATOM     15  C   UNL     1       7.932   3.067  -1.777  0.00  0.00    +0.002 C 
ATOM     16  C   UNL     1       8.148   2.948  -3.300  0.00  0.00    +0.025 C 
ENDBRANCH   9  12
BRANCH   6  17
ATOM     17  C   UNL     1       3.898   0.343  -5.517  0.00  0.00    +0.103 C 
ATOM     18  N   UNL     1       2.775   0.228  -5.649  0.00  0.00    -0.191 NA
ENDBRANCH   6  17
ENDBRANCH   3   5
BRANCH   1  19
ATOM     19  C   UNL     1       3.874   1.371  -1.169  0.00  0.00    +0.019 C 
BRANCH  19  20
ATOM     20  N   UNL     1       3.122   0.314  -0.478  0.00  0.00    +0.388 N 
ATOM     21  H   UNL     1       3.751  -0.587  -0.453  0.00  0.00    -0.081 HD
BRANCH  20  23
ATOM     22  C   UNL     1       4.132   0.784   1.702  0.00  0.00    -0.017 C 
ATOM     23  C   UNL     1       2.827   0.698   0.908  0.00  0.00    -0.081 C 
ENDBRANCH  20  23
BRANCH  20  24
ATOM     24  C   UNL     1       1.889  -0.015  -1.207  0.00  0.00    -0.030 C 
BRANCH  24  25
ATOM     25  C   UNL     1       1.264  -1.276  -0.605  0.00  0.00    +0.195 C 
ATOM     26  C   UNL     1      -0.017  -1.634  -1.372  0.00  0.00    +0.271 C 
ATOM     27  O   UNL     1      -0.569  -2.821  -0.792  0.00  0.00    -0.485 OA
ATOM     28  C   UNL     1       0.298  -3.841  -0.545  0.00  0.00    +0.162 A 
ATOM     29  C   UNL     1      -0.198  -5.118  -0.327  0.00  0.00    +0.049 A 
ATOM     30  C   UNL     1       0.669  -6.163  -0.072  0.00  0.00    +0.004 A 
ATOM     31  C   UNL     1       2.033  -5.939  -0.032  0.00  0.00    +0.004 A 
ATOM     32  C   UNL     1       2.533  -4.670  -0.249  0.00  0.00    +0.049 A 
ATOM     33  C   UNL     1       1.669  -3.616  -0.507  0.00  0.00    +0.162 A 
ATOM     34  O   UNL     1       2.178  -2.372  -0.722  0.00  0.00    -0.484 OA
ENDBRANCH  24  25
ENDBRANCH  20  24
ENDBRANCH  19  20
ENDBRANCH   1  19
TORSDOF 8
