REMARK  Name = ZINC52011590
REMARK  3 active torsions:
REMARK  status: ('A' for Active; 'I' for Inactive)
REMARK    1  A    between atoms: C_4  and  O_22
REMARK    2  A    between atoms: C_6  and  N_9
REMARK    3  A    between atoms: C_17  and  C_19
REMARK                            x       y       z     vdW  Elec       q    Type
REMARK                         _______ _______ _______ _____ _____    ______ ____
ROOT
ATOM      1  N   UNL     1       1.070  -2.429   3.321  0.00  0.00    -0.294 N 
ATOM      2  C   UNL     1      -0.123  -3.015   3.101  0.00  0.00    +0.303 C 
ATOM      3  O   UNL     1      -1.141  -2.495   3.517  0.00  0.00    -0.253 OA
ATOM      4  N   UNL     1      -0.189  -4.176   2.421  0.00  0.00    -0.272 N 
ATOM      5  C   UNL     1       1.037  -4.877   2.016  0.00  0.00    +0.110 C 
ATOM      6  C   UNL     1       0.979  -5.141   0.508  0.00  0.00    +0.019 C 
ATOM      7  C   UNL     1      -0.313  -5.892   0.175  0.00  0.00    +0.004 C 
ATOM      8  C   UNL     1      -1.518  -5.032   0.562  0.00  0.00    +0.034 C 
ATOM      9  C   UNL     1      -1.488  -4.769   2.075  0.00  0.00    +0.190 C 
ATOM     10  H   UNL     1       1.888  -2.879   3.055  0.00  0.00    +0.151 HD
ENDROOT
BRANCH   1  15
ATOM     11  C   UNL     1       1.024   1.353   3.571  0.00  0.00    +0.002 C 
ATOM     12  C   UNL     1       2.381   1.521   4.258  0.00  0.00    +0.003 C 
ATOM     13  C   UNL     1       2.557   0.430   5.316  0.00  0.00    +0.033 C 
ATOM     14  C   UNL     1       2.491  -0.944   4.647  0.00  0.00    +0.135 C 
ATOM     15  C   UNL     1       1.134  -1.113   3.961  0.00  0.00    +0.103 C 
ATOM     16  C   UNL     1       0.958  -0.022   2.903  0.00  0.00    +0.025 C 
BRANCH  14  17
ATOM     17  O   UNL     1       2.655  -1.963   5.636  0.00  0.00    -0.390 OA
ATOM     18  H   UNL     1       3.495  -1.918   6.112  0.00  0.00    +0.210 HD
ENDBRANCH  14  17
ENDBRANCH   1  15
BRANCH   9  19
ATOM     19  C   UNL     1      -2.594  -3.815   2.446  0.00  0.00    +0.376 C 
ATOM     20  O   UNL     1      -2.531  -2.646   2.104  0.00  0.00    -0.244 OA
ATOM     21  O   UNL     1      -3.551  -4.211   3.089  0.00  0.00    -0.244 OA
ENDBRANCH   9  19
TORSDOF 3
