REMARK  Name = ZINC23471711
REMARK  13 active torsions:
REMARK  status: ('A' for Active; 'I' for Inactive)
REMARK    1  A    between atoms: C_1  and  C_2
REMARK    2  A    between atoms: C_4  and  O_11
REMARK    3  A    between atoms: C_7  and  C_8
REMARK    4  A    between atoms: C_8  and  C_9
REMARK    5  A    between atoms: C_8  and  C_10
REMARK    6  A    between atoms: O_11  and  C_12
REMARK    7  A    between atoms: C_12  and  C_13
REMARK    8  A    between atoms: C_13  and  C_15
REMARK    9  A    between atoms: C_13  and  O_35
REMARK   10  A    between atoms: C_15  and  N_16
REMARK   11  A    between atoms: N_19  and  C_22
REMARK   12  A    between atoms: C_22  and  C_23
REMARK   13  A    between atoms: C_22  and  C_29
REMARK                            x       y       z     vdW  Elec       q    Type
REMARK                         _______ _______ _______ _____ _____    ______ ____
ROOT
ATOM      1  N   UNL     1       0.104  -6.729  -5.055  0.00  0.00    -0.303 NA
ATOM      2  C   UNL     1      -1.182  -6.750  -5.766  0.00  0.00    +0.066 C 
ATOM      3  C   UNL     1      -0.964  -7.258  -7.193  0.00  0.00    -0.062 C 
ATOM      4  N   UNL     1      -0.387  -8.608  -7.150  0.00  0.00    +0.389 N 
ATOM      5  C   UNL     1       0.909  -8.566  -6.459  0.00  0.00    -0.062 C 
ATOM      6  C   UNL     1       0.707  -8.069  -5.026  0.00  0.00    +0.066 C 
ATOM      7  H   UNL     1      -1.012  -9.225  -6.655  0.00  0.00    -0.080 HD
ENDROOT
BRANCH   1   8
ATOM      8  C   UNL     1      -0.054  -6.193  -3.696  0.00  0.00    +0.119 C 
BRANCH   8   9
ATOM      9  C   UNL     1       1.304  -5.723  -3.173  0.00  0.00    +0.166 C 
BRANCH   9  10
ATOM     10  O   UNL     1       1.811  -4.692  -4.023  0.00  0.00    -0.387 OA
ATOM     11  H   UNL     1       1.242  -3.913  -4.079  0.00  0.00    +0.210 HD
ENDBRANCH   9  10
BRANCH   9  12
ATOM     12  C   UNL     1       1.142  -5.178  -1.752  0.00  0.00    +0.261 C 
BRANCH  12  13
ATOM     13  O   UNL     1       2.426  -4.847  -1.220  0.00  0.00    -0.489 OA
BRANCH  13  17
ATOM     14  C   UNL     1       5.021  -3.121   2.537  0.00  0.00    +0.044 C 
ATOM     15  C   UNL     1       3.704  -3.494   1.907  0.00  0.00    -0.044 A 
ATOM     16  C   UNL     1       3.672  -4.003   0.623  0.00  0.00    +0.049 A 
ATOM     17  C   UNL     1       2.460  -4.346   0.043  0.00  0.00    +0.121 A 
ATOM     18  C   UNL     1       1.281  -4.177   0.755  0.00  0.00    +0.046 A 
ATOM     19  C   UNL     1       1.318  -3.667   2.039  0.00  0.00    +0.008 A 
ATOM     20  C   UNL     1       2.528  -3.331   2.616  0.00  0.00    -0.042 A 
BRANCH  20  21
ATOM     21  C   UNL     1       2.566  -2.781   4.019  0.00  0.00    +0.013 C 
ATOM     22  C   UNL     1       1.732  -1.500   4.087  0.00  0.00    +0.012 C 
ATOM     23  C   UNL     1       1.992  -3.816   4.988  0.00  0.00    +0.012 C 
ENDBRANCH  20  21
ENDBRANCH  13  17
ENDBRANCH  12  13
ENDBRANCH   9  12
ENDBRANCH   8   9
ENDBRANCH   1   8
BRANCH   4  24
ATOM     24  C   UNL     1      -0.195  -9.101  -8.521  0.00  0.00    -0.007 C 
BRANCH  24  25
ATOM     25  C   UNL     1       0.398 -10.486  -8.477  0.00  0.00    -0.057 A 
ATOM     26  C   UNL     1      -0.041 -11.397  -7.534  0.00  0.00    +0.002 A 
ATOM     27  C   UNL     1       0.502 -12.667  -7.494  0.00  0.00    +0.000 A 
ATOM     28  C   UNL     1       1.485 -13.027  -8.397  0.00  0.00    +0.000 A 
ATOM     29  C   UNL     1       1.924 -12.117  -9.341  0.00  0.00    +0.000 A 
ATOM     30  C   UNL     1       1.377 -10.848  -9.383  0.00  0.00    +0.002 A 
ENDBRANCH  24  25
BRANCH  24  31
ATOM     31  C   UNL     1      -1.524  -9.146  -9.229  0.00  0.00    -0.057 A 
ATOM     32  C   UNL     1      -2.654  -9.565  -8.553  0.00  0.00    +0.002 A 
ATOM     33  C   UNL     1      -3.873  -9.606  -9.203  0.00  0.00    +0.000 A 
ATOM     34  C   UNL     1      -3.962  -9.227 -10.530  0.00  0.00    +0.000 A 
ATOM     35  C   UNL     1      -2.832  -8.807 -11.206  0.00  0.00    +0.000 A 
ATOM     36  C   UNL     1      -1.614  -8.762 -10.554  0.00  0.00    +0.002 A 
ENDBRANCH  24  31
ENDBRANCH   4  24
TORSDOF 10
