REMARK  Name = ZINC64637767
REMARK  6 active torsions:
REMARK  status: ('A' for Active; 'I' for Inactive)
REMARK    1  A    between atoms: C_1  and  N_2
REMARK    2  A    between atoms: C_5  and  N_8
REMARK    3  A    between atoms: C_14  and  C_16
REMARK    4  A    between atoms: N_21  and  S_23
REMARK    5  A    between atoms: S_23  and  C_26
REMARK    6  A    between atoms: C_30  and  C_33
REMARK                            x       y       z     vdW  Elec       q    Type
REMARK                         _______ _______ _______ _____ _____    ______ ____
ROOT
ATOM      1  C   UNL     1       3.398  -8.349   1.114  0.00  0.00    +0.091 C 
ATOM      2  C   UNL     1       4.168  -7.239   1.832  0.00  0.00    +0.015 C 
ATOM      3  C   UNL     1       4.761  -7.785   3.133  0.00  0.00    +0.018 C 
ATOM      4  C   UNL     1       5.739  -8.918   2.808  0.00  0.00    +0.109 C 
ATOM      5  N   UNL     1       5.043  -9.923   1.993  0.00  0.00    -0.178 NA
ATOM      6  C   UNL     1       4.360  -9.490   0.766  0.00  0.00    +0.122 C 
ENDROOT
BRANCH   1  13
ATOM      7  N   UNL     1      -1.123  -6.662  -0.206  0.00  0.00    -0.297 NA
ATOM      8  C   UNL     1      -0.572  -7.429   0.919  0.00  0.00    +0.103 C 
ATOM      9  C   UNL     1       0.879  -7.001   1.163  0.00  0.00    +0.123 C 
ATOM     10  N   UNL     1       1.622  -7.128  -0.099  0.00  0.00    -0.299 N 
ATOM     11  C   UNL     1       1.060  -6.500  -1.304  0.00  0.00    +0.123 C 
ATOM     12  C   UNL     1      -0.398  -6.948  -1.452  0.00  0.00    +0.103 C 
ATOM     13  C   UNL     1       2.788  -7.802  -0.150  0.00  0.00    +0.220 C 
ATOM     14  O   UNL     1       3.346  -7.969  -1.214  0.00  0.00    -0.275 OA
BRANCH   7  19
ATOM     15  C   UNL     1      -6.727  -6.024  -0.419  0.00  0.00    -0.096 C 
ATOM     16  N   UNL     1      -5.270  -5.893  -0.291  0.00  0.00    +0.378 N 
ATOM     17  C   UNL     1      -4.789  -6.800   0.758  0.00  0.00    -0.078 C 
ATOM     18  C   UNL     1      -3.283  -6.609   0.952  0.00  0.00    +0.000 C 
ATOM     19  C   UNL     1      -2.561  -6.917  -0.363  0.00  0.00    +0.053 C 
ATOM     20  C   UNL     1      -3.124  -6.016  -1.466  0.00  0.00    +0.000 C 
ATOM     21  C   UNL     1      -4.635  -6.229  -1.571  0.00  0.00    -0.078 C 
ATOM     22  H   UNL     1      -5.040  -4.942  -0.042  0.00  0.00    -0.082 HD
ENDBRANCH   7  19
ENDBRANCH   1  13
BRANCH   5  23
ATOM     23  S   UNL     1       5.029 -11.516   2.448  0.00  0.00    +0.063 S 
ATOM     24  O   UNL     1       4.858 -12.238   1.236  0.00  0.00    -0.155 OA
ATOM     25  O   UNL     1       6.204 -11.680   3.229  0.00  0.00    -0.155 OA
BRANCH  23  26
ATOM     26  C   UNL     1       3.555 -11.689   3.491  0.00  0.00    +0.301 C 
ATOM     27  C   UNL     1       3.410 -13.120   3.955  0.00  0.00    +0.027 C 
ATOM     28  C   UNL     1       2.150 -13.468   3.838  0.00  0.00    +0.007 C 
ATOM     29  C   UNL     1       1.380 -12.289   3.288  0.00  0.00    +0.174 C 
ATOM     30  O   UNL     1       2.368 -11.403   2.727  0.00  0.00    -0.340 OA
BRANCH  29  31
ATOM     31  C   UNL     1       0.406 -12.754   2.203  0.00  0.00    +0.185 C 
ATOM     32  C   UNL     1      -0.416 -11.587   1.684  0.00  0.00    +0.025 C 
ATOM     33  C   UNL     1      -1.673 -11.922   1.983  0.00  0.00    +0.132 C 
ATOM     34  N   UNL     1      -1.715 -13.121   2.605  0.00  0.00    -0.162 NA
ATOM     35  N   UNL     1      -0.612 -13.656   2.768  0.00  0.00    -0.177 NA
ENDBRANCH  29  31
ENDBRANCH  23  26
ENDBRANCH   5  23
TORSDOF 5
