REMARK  Name = ZINC02231063
REMARK  15 active torsions:
REMARK  status: ('A' for Active; 'I' for Inactive)
REMARK    1  A    between atoms: C_1  and  C_2
REMARK    2  A    between atoms: N_8  and  C_9
REMARK    3  A    between atoms: C_9  and  C_10
REMARK    4  A    between atoms: C_10  and  C_11
REMARK    5  A    between atoms: C_14  and  O_19
REMARK    6  A    between atoms: C_15  and  O_17
REMARK    7  A    between atoms: O_17  and  C_18
REMARK    8  A    between atoms: O_19  and  C_20
REMARK    9  A    between atoms: C_21  and  C_29
REMARK   10  A    between atoms: C_23  and  C_27
REMARK   11  A    between atoms: C_24  and  N_26
REMARK   12  A    between atoms: C_33  and  O_37
REMARK   13  A    between atoms: C_34  and  O_35
REMARK   14  A    between atoms: O_35  and  C_36
REMARK   15  A    between atoms: O_37  and  C_38
REMARK                            x       y       z     vdW  Elec       q    Type
REMARK                         _______ _______ _______ _____ _____    ______ ____
ROOT
ATOM      1  C   UNL     1      -1.575   5.127   0.466  0.00  0.00    +0.064 C 
ATOM      2  C   UNL     1      -0.311   5.915   0.699  0.00  0.00    +0.022 A 
ATOM      3  C   UNL     1      -0.381   7.254   0.854  0.00  0.00    +0.068 A 
ATOM      4  C   UNL     1       0.798   7.996   1.073  0.00  0.00    +0.141 A 
ATOM      5  C   UNL     1       2.005   7.332   1.124  0.00  0.00    +0.072 A 
ATOM      6  C   UNL     1       2.028   5.941   0.962  0.00  0.00    +0.259 A 
ATOM      7  O   UNL     1       3.090   5.339   1.009  0.00  0.00    -0.267 OA
ATOM      8  N   UNL     1       0.882   5.268   0.749  0.00  0.00    -0.312 N 
ATOM      9  C   UNL     1       3.287   8.084   1.355  0.00  0.00    +0.107 C 
ATOM     10  C   UNL     1       2.992   9.456   1.894  0.00  0.00    +0.098 C 
ATOM     11  C   UNL     1       1.753   9.995   1.802  0.00  0.00    +0.199 C 
ATOM     12  O   UNL     1       0.731   9.335   1.230  0.00  0.00    -0.441 OA
ENDROOT
BRANCH   9  13
ATOM     13  C   UNL     1       4.032   8.209   0.052  0.00  0.00    +0.011 A 
ATOM     14  C   UNL     1       5.169   7.453  -0.170  0.00  0.00    +0.008 A 
ATOM     15  C   UNL     1       5.852   7.561  -1.367  0.00  0.00    +0.004 A 
ATOM     16  C   UNL     1       5.408   8.434  -2.344  0.00  0.00    +0.049 A 
ATOM     17  C   UNL     1       4.273   9.198  -2.126  0.00  0.00    +0.162 A 
ATOM     18  C   UNL     1       3.582   9.085  -0.922  0.00  0.00    +0.166 A 
BRANCH  18  19
ATOM     19  O   UNL     1       2.468   9.833  -0.704  0.00  0.00    -0.491 OA
ATOM     20  C   UNL     1       2.663  11.217  -0.408  0.00  0.00    +0.277 C 
ENDBRANCH  18  19
BRANCH  17  21
ATOM     21  O   UNL     1       3.835  10.056  -3.085  0.00  0.00    -0.491 OA
ATOM     22  C   UNL     1       4.594  10.120  -4.294  0.00  0.00    +0.277 C 
ENDBRANCH  17  21
ENDBRANCH   9  13
BRANCH  11  23
ATOM     23  N   UNL     1       1.535  11.252   2.309  0.00  0.00    -0.328 N 
ATOM     24  H   UNL     1       0.653  11.652   2.251  0.00  0.00    +0.145 HD
ATOM     25  H   UNL     1       2.262  11.741   2.725  0.00  0.00    +0.145 HD
ENDBRANCH  11  23
BRANCH  10  26
ATOM     26  C   UNL     1       4.041  10.207   2.516  0.00  0.00    +0.101 C 
ATOM     27  N   UNL     1       4.873  10.803   3.009  0.00  0.00    -0.191 NA
ENDBRANCH  10  26
BRANCH   8  28
ATOM     28  C   UNL     1       0.922   3.813   0.576  0.00  0.00    +0.130 C 
BRANCH  28  29
ATOM     29  C   UNL     1       1.090   3.481  -0.908  0.00  0.00    +0.057 C 
BRANCH  29  30
ATOM     30  C   UNL     1       1.131   1.985  -1.086  0.00  0.00    -0.042 A 
ATOM     31  C   UNL     1       2.340   1.317  -1.036  0.00  0.00    +0.007 A 
ATOM     32  C   UNL     1       2.383  -0.055  -1.198  0.00  0.00    +0.049 A 
ATOM     33  C   UNL     1       1.212  -0.764  -1.412  0.00  0.00    +0.161 A 
ATOM     34  C   UNL     1      -0.005  -0.092  -1.462  0.00  0.00    +0.162 A 
ATOM     35  C   UNL     1      -0.041   1.284  -1.298  0.00  0.00    +0.053 A 
BRANCH  34  36
ATOM     36  O   UNL     1      -1.158  -0.783  -1.671  0.00  0.00    -0.491 OA
ATOM     37  C   UNL     1      -2.370  -0.028  -1.710  0.00  0.00    +0.277 C 
ENDBRANCH  34  36
BRANCH  33  38
ATOM     38  O   UNL     1       1.252  -2.114  -1.573  0.00  0.00    -0.491 OA
ATOM     39  C   UNL     1       2.537  -2.737  -1.509  0.00  0.00    +0.277 C 
ENDBRANCH  33  38
ENDBRANCH  29  30
ENDBRANCH  28  29
ENDBRANCH   8  28
TORSDOF 10
