REMARK  Name = ZINC50669850
REMARK  5 active torsions:
REMARK  status: ('A' for Active; 'I' for Inactive)
REMARK    1  A    between atoms: C_1  and  C_2
REMARK    2  A    between atoms: C_8  and  C_10
REMARK    3  A    between atoms: C_10  and  N_11
REMARK    4  A    between atoms: N_11  and  S_12
REMARK    5  A    between atoms: S_12  and  C_15
REMARK                            x       y       z     vdW  Elec       q    Type
REMARK                         _______ _______ _______ _____ _____    ______ ____
ROOT
ATOM      1  S   UNL     1       4.498  -0.262   2.591  0.00  0.00    +0.061 S 
ATOM      2  O   UNL     1       4.839  -0.674   3.908  0.00  0.00    -0.153 OA
ATOM      3  O   UNL     1       5.028  -0.893   1.434  0.00  0.00    -0.153 OA
ENDROOT
BRANCH   1   4
ATOM      4  C   UNL     1       4.921   1.444   2.472  0.00  0.00    +0.141 A 
ATOM      5  C   UNL     1       5.176   2.026   1.240  0.00  0.00    +0.144 A 
ATOM      6  N   UNL     1       5.492   3.310   1.186  0.00  0.00    -0.221 NA
ATOM      7  C   UNL     1       5.564   4.037   2.291  0.00  0.00    +0.213 A 
ATOM      8  N   UNL     1       5.327   3.511   3.484  0.00  0.00    -0.221 NA
ATOM      9  C   UNL     1       5.001   2.235   3.608  0.00  0.00    +0.144 A 
ATOM     10  N   UNL     1       5.897   5.377   2.198  0.00  0.00    -0.327 N 
ATOM     11  H   UNL     1       6.074   5.774   1.331  0.00  0.00    +0.145 HD
ATOM     12  H   UNL     1       5.954   5.920   3.000  0.00  0.00    +0.145 HD
ENDBRANCH   1   4
BRANCH   1  13
ATOM     13  N   UNL     1       2.849  -0.367   2.474  0.00  0.00    -0.190 NA
ATOM     14  H   UNL     1       2.329  -0.683   3.229  0.00  0.00    +0.148 HD
BRANCH  13  15
ATOM     15  C   UNL     1       2.178   0.019   1.231  0.00  0.00    +0.109 C 
BRANCH  15  22
ATOM     16  C   UNL     1      -0.019   1.526   0.010  0.00  0.00    +0.008 C 
ATOM     17  C   UNL     1       0.002  -0.004   0.002  0.00  0.00    -0.010 C 
ATOM     18  C   UNL     1      -1.433  -0.534   0.013  0.00  0.00    +0.003 C 
ATOM     19  C   UNL     1      -1.413  -2.063   0.004  0.00  0.00    +0.000 C 
ATOM     20  C   UNL     1      -0.673  -2.570   1.244  0.00  0.00    +0.000 C 
ATOM     21  C   UNL     1       0.763  -2.041   1.233  0.00  0.00    +0.005 C 
ATOM     22  C   UNL     1       0.742  -0.511   1.242  0.00  0.00    +0.007 C 
ENDBRANCH  15  22
ENDBRANCH  13  15
ENDBRANCH   1  13
TORSDOF 4
