REMARK  Name = ZINC57040410
REMARK  6 active torsions:
REMARK  status: ('A' for Active; 'I' for Inactive)
REMARK    1  A    between atoms: C_1  and  C_2
REMARK    2  A    between atoms: N_14  and  C_15
REMARK    3  A    between atoms: C_15  and  C_16
REMARK    4  A    between atoms: C_16  and  C_18
REMARK    5  A    between atoms: C_16  and  C_19
REMARK    6  A    between atoms: C_19  and  N_20
REMARK                            x       y       z     vdW  Elec       q    Type
REMARK                         _______ _______ _______ _____ _____    ______ ____
ROOT
ATOM      1  C   UNL     1      -0.026   1.527   0.018  0.00  0.00    +0.033 C 
ATOM      2  C   UNL     1      -0.004  -0.003   0.007  0.00  0.00    +0.105 C 
ATOM      3  C   UNL     1      -1.425  -0.542   0.168  0.00  0.00    -0.017 A 
ATOM      4  C   UNL     1      -2.509  -0.069  -0.571  0.00  0.00    +0.013 A 
ATOM      5  C   UNL     1      -3.739  -0.597  -0.379  0.00  0.00    +0.046 A 
ATOM      6  S   UNL     1      -3.423  -1.818   0.886  0.00  0.00    -0.101 S 
ATOM      7  C   UNL     1      -1.682  -1.532   1.065  0.00  0.00    -0.004 A 
ATOM      8  C   UNL     1      -0.719  -2.210   1.985  0.00  0.00    +0.062 C 
ATOM      9  C   UNL     1       0.711  -1.918   1.504  0.00  0.00    +0.115 C 
ATOM     10  N   UNL     1       0.795  -0.497   1.137  0.00  0.00    -0.278 N 
ATOM     11  C   UNL     1       1.593   0.341   1.828  0.00  0.00    +0.303 C 
ATOM     12  O   UNL     1       1.591   1.530   1.574  0.00  0.00    -0.253 OA
ATOM     13  N   UNL     1       2.393  -0.139   2.800  0.00  0.00    -0.299 N 
ATOM     14  H   UNL     1       2.451  -1.095   2.953  0.00  0.00    +0.150 HD
ENDROOT
BRANCH  13  15
ATOM     15  C   UNL     1       3.177   0.783   3.626  0.00  0.00    +0.107 C 
BRANCH  15  16
ATOM     16  C   UNL     1       3.994  -0.013   4.645  0.00  0.00    -0.014 C 
ATOM     17  C   UNL     1       5.024  -0.875   3.912  0.00  0.00    +0.007 C 
BRANCH  16  18
ATOM     18  C   UNL     1       4.714   0.953   5.588  0.00  0.00    -0.074 C 
BRANCH  18  19
ATOM     19  N   UNL     1       5.402   0.190   6.638  0.00  0.00    +0.380 N 
ATOM     20  C   UNL     1       4.408  -0.504   7.466  0.00  0.00    -0.079 C 
ATOM     21  C   UNL     1       5.121  -1.365   8.512  0.00  0.00    -0.019 C 
ATOM     22  C   UNL     1       5.988  -0.466   9.398  0.00  0.00    -0.004 C 
ATOM     23  C   UNL     1       6.971   0.309   8.516  0.00  0.00    -0.019 C 
ATOM     24  C   UNL     1       6.190   1.107   7.471  0.00  0.00    -0.079 C 
ATOM     25  H   UNL     1       6.016  -0.488   6.213  0.00  0.00    -0.082 HD
ENDBRANCH  18  19
ENDBRANCH  16  18
ENDBRANCH  15  16
ENDBRANCH  13  15
TORSDOF 4
