REMARK  Name = ZINC56916142
REMARK  8 active torsions:
REMARK  status: ('A' for Active; 'I' for Inactive)
REMARK    1  A    between atoms: C_1  and  C_2
REMARK    2  A    between atoms: C_2  and  C_3
REMARK    3  A    between atoms: C_3  and  C_5
REMARK    4  A    between atoms: C_3  and  N_6
REMARK    5  A    between atoms: C_7  and  C_9
REMARK    6  A    between atoms: C_9  and  C_10
REMARK    7  A    between atoms: C_10  and  N_11
REMARK    8  A    between atoms: C_17  and  N_20
REMARK                            x       y       z     vdW  Elec       q    Type
REMARK                         _______ _______ _______ _____ _____    ______ ____
ROOT
ATOM      1  N   UNL     1      -0.076   0.896  -7.243  0.00  0.00    -0.299 N 
ATOM      2  C   UNL     1       0.540   1.038  -8.433  0.00  0.00    +0.302 C 
ATOM      3  O   UNL     1       1.750   0.938  -8.507  0.00  0.00    -0.253 OA
ATOM      4  N   UNL     1      -0.184   1.292  -9.541  0.00  0.00    -0.286 N 
ATOM      5  C   UNL     1      -1.631   1.531  -9.450  0.00  0.00    +0.111 C 
ATOM      6  C   UNL     1      -2.350   0.574 -10.406  0.00  0.00    +0.044 C 
ATOM      7  C   UNL     1      -1.773   0.737 -11.815  0.00  0.00    +0.095 C 
ATOM      8  C   UNL     1      -0.284   0.381 -11.802  0.00  0.00    +0.044 C 
ATOM      9  C   UNL     1       0.459   1.341 -10.861  0.00  0.00    +0.111 C 
ATOM     10  H   UNL     1      -1.031   1.048  -7.170  0.00  0.00    +0.150 HD
ENDROOT
BRANCH   7  11
ATOM     11  N   UNL     1      -2.480  -0.153 -12.738  0.00  0.00    -0.289 N 
ATOM     12  C   UNL     1      -3.196   0.244 -13.865  0.00  0.00    +0.070 A 
ATOM     13  C   UNL     1      -3.459   1.479 -14.439  0.00  0.00    +0.028 A 
ATOM     14  C   UNL     1      -4.223   1.554 -15.588  0.00  0.00    +0.002 A 
ATOM     15  C   UNL     1      -4.726   0.402 -16.168  0.00  0.00    +0.002 A 
ATOM     16  C   UNL     1      -4.470  -0.832 -15.603  0.00  0.00    +0.028 A 
ATOM     17  C   UNL     1      -3.704  -0.917 -14.450  0.00  0.00    +0.067 A 
ATOM     18  N   UNL     1      -3.280  -1.984 -13.661  0.00  0.00    -0.306 N 
ATOM     19  H   UNL     1      -3.479  -2.921 -13.819  0.00  0.00    +0.170 HD
ATOM     20  C   UNL     1      -2.544  -1.494 -12.646  0.00  0.00    +0.328 A 
ATOM     21  O   UNL     1      -2.019  -2.163 -11.775  0.00  0.00    -0.247 OA
ENDBRANCH   7  11
BRANCH   1  22
ATOM     22  C   UNL     1       0.697   0.511  -6.059  0.00  0.00    +0.115 C 
BRANCH  22  23
ATOM     23  C   UNL     1      -0.235   0.419  -4.849  0.00  0.00    +0.114 C 
BRANCH  23  25
ATOM     24  N   UNL     1      -0.056  -0.120  -2.442  0.00  0.00    -0.313 N 
ATOM     25  C   UNL     1       0.560   0.023  -3.632  0.00  0.00    +0.215 C 
ATOM     26  O   UNL     1       1.755  -0.167  -3.723  0.00  0.00    -0.276 OA
ATOM     27  H   UNL     1      -1.011   0.033  -2.369  0.00  0.00    +0.149 HD
BRANCH  24  28
ATOM     28  C   UNL     1       0.717  -0.505  -1.258  0.00  0.00    +0.070 C 
ATOM     29  C   UNL     1       0.848  -2.028  -1.208  0.00  0.00    +0.028 C 
BRANCH  28  31
ATOM     30  C   UNL     1      -0.019   1.518   0.011  0.00  0.00    +0.005 C 
ATOM     31  C   UNL     1       0.001  -0.012   0.001  0.00  0.00    +0.018 C 
ENDBRANCH  28  31
ENDBRANCH  24  28
ENDBRANCH  23  25
ENDBRANCH  22  23
ENDBRANCH   1  22
TORSDOF 6
