REMARK  Name = ZINC65373633
REMARK  6 active torsions:
REMARK  status: ('A' for Active; 'I' for Inactive)
REMARK    1  A    between atoms: C_1  and  C_2
REMARK    2  A    between atoms: C_2  and  C_3
REMARK    3  A    between atoms: C_3  and  C_4
REMARK    4  A    between atoms: C_7  and  C_25
REMARK    5  A    between atoms: C_9  and  N_10
REMARK    6  A    between atoms: N_13  and  C_16
REMARK                            x       y       z     vdW  Elec       q    Type
REMARK                         _______ _______ _______ _____ _____    ______ ____
ROOT
ATOM      1  N   UNL     1       2.785  -2.152  -0.200  0.00  0.00    -0.312 N 
ATOM      2  C   UNL     1       3.052  -0.711  -0.089  0.00  0.00    +0.125 C 
ATOM      3  C   UNL     1       4.523  -0.513   0.295  0.00  0.00    +0.125 C 
ATOM      4  N   UNL     1       5.357  -1.320  -0.607  0.00  0.00    -0.312 N 
ATOM      5  C   UNL     1       5.090  -2.761  -0.718  0.00  0.00    +0.125 C 
ATOM      6  C   UNL     1       3.622  -2.960  -1.098  0.00  0.00    +0.125 C 
ENDROOT
BRANCH   4   7
ATOM      7  C   UNL     1       6.372  -0.736  -1.337  0.00  0.00    +0.130 A 
ATOM      8  C   UNL     1       7.051   0.362  -0.830  0.00  0.00    +0.113 A 
ATOM      9  C   UNL     1       8.075   0.931  -1.595  0.00  0.00    +0.254 A 
ATOM     10  O   UNL     1       8.695   1.898  -1.180  0.00  0.00    -0.268 OA
ATOM     11  N   UNL     1       8.365   0.394  -2.798  0.00  0.00    -0.295 N 
ATOM     12  H   UNL     1       9.072   0.776  -3.341  0.00  0.00    +0.172 HD
ATOM     13  C   UNL     1       7.669  -0.684  -3.251  0.00  0.00    +0.195 A 
ATOM     14  N   UNL     1       6.707  -1.229  -2.535  0.00  0.00    -0.201 NA
ATOM     15  N   UNL     1       7.977  -1.216  -4.474  0.00  0.00    -0.329 N 
ATOM     16  H   UNL     1       8.686  -0.825  -5.008  0.00  0.00    +0.145 HD
ATOM     17  H   UNL     1       7.487  -1.984  -4.807  0.00  0.00    +0.145 HD
ENDBRANCH   4   7
BRANCH   1  23
ATOM     18  C   UNL     1       0.470  -2.807   0.018  0.00  0.00    +0.008 A 
ATOM     19  C   UNL     1      -0.509  -3.407   0.785  0.00  0.00    +0.091 A 
ATOM     20  N   UNL     1      -0.191  -3.889   1.978  0.00  0.00    -0.350 N 
ATOM     21  C   UNL     1       1.040  -3.804   2.438  0.00  0.00    +0.106 A 
ATOM     22  N   UNL     1       2.006  -3.240   1.741  0.00  0.00    -0.219 NA
ATOM     23  C   UNL     1       1.766  -2.738   0.533  0.00  0.00    +0.128 A 
ATOM     24  C   UNL     1       1.354  -4.367   3.800  0.00  0.00    +0.086 C 
ATOM     25  H   UNL     1      -0.876  -4.312   2.520  0.00  0.00    +0.166 HD
BRANCH  18  26
ATOM     26  C   UNL     1       0.149  -2.245  -1.344  0.00  0.00    +0.040 C 
BRANCH  26  28
ATOM     27  C   UNL     1       0.130  -2.726  -3.795  0.00  0.00    +0.004 C 
ATOM     28  C   UNL     1       0.455  -3.296  -2.413  0.00  0.00    +0.001 C 
ENDBRANCH  26  28
ENDBRANCH  18  26
ENDBRANCH   1  23
TORSDOF 4
