REMARK  Name = ZINC08809614
REMARK  12 active torsions:
REMARK  status: ('A' for Active; 'I' for Inactive)
REMARK    1  A    between atoms: C_1  and  C_2
REMARK    2  A    between atoms: C_2  and  O_3
REMARK    3  A    between atoms: O_3  and  C_4
REMARK    4  A    between atoms: C_4  and  C_6
REMARK    5  A    between atoms: C_7  and  C_23
REMARK    6  A    between atoms: C_9  and  N_22
REMARK    7  A    between atoms: C_10  and  C_20
REMARK    8  A    between atoms: C_11  and  C_13
REMARK    9  A    between atoms: C_23  and  S_24
REMARK   10  A    between atoms: S_24  and  C_25
REMARK   11  A    between atoms: C_26  and  C_36
REMARK   12  A    between atoms: C_29  and  C_31
REMARK                            x       y       z     vdW  Elec       q    Type
REMARK                         _______ _______ _______ _____ _____    ______ ____
ROOT
ATOM      1  C   UNL     1      -3.647   2.844   0.385  0.00  0.00    +0.088 C 
ATOM      2  C   UNL     1      -2.534   3.383   0.896  0.00  0.00    +0.128 C 
ATOM      3  O   UNL     1      -1.312   2.924   0.595  0.00  0.00    -0.444 OA
ATOM      4  C   UNL     1      -1.179   1.692   0.071  0.00  0.00    +0.198 C 
ATOM      5  C   UNL     1      -2.222   1.042  -0.498  0.00  0.00    +0.098 C 
ATOM      6  C   UNL     1      -3.582   1.683  -0.569  0.00  0.00    +0.105 C 
ENDROOT
BRANCH   6   7
ATOM      7  C   UNL     1      -3.831   2.174  -1.972  0.00  0.00    -0.034 A 
ATOM      8  C   UNL     1      -2.991   3.118  -2.533  0.00  0.00    +0.007 A 
ATOM      9  C   UNL     1      -3.216   3.564  -3.821  0.00  0.00    +0.038 A 
ATOM     10  C   UNL     1      -4.290   3.075  -4.546  0.00  0.00    +0.123 A 
ATOM     11  C   UNL     1      -5.134   2.135  -3.981  0.00  0.00    +0.038 A 
ATOM     12  C   UNL     1      -4.904   1.685  -2.694  0.00  0.00    +0.007 A 
ATOM     13  F   UNL     1      -4.514   3.516  -5.803  0.00  0.00    -0.205 F 
ENDBRANCH   6   7
BRANCH   4  14
ATOM     14  N   UNL     1       0.046   1.075   0.120  0.00  0.00    -0.328 N 
ATOM     15  H   UNL     1       0.156   0.185  -0.250  0.00  0.00    +0.145 HD
ATOM     16  H   UNL     1       0.803   1.531   0.521  0.00  0.00    +0.145 HD
ENDBRANCH   4  14
BRANCH   1  17
ATOM     17  C   UNL     1      -4.909   3.377   0.749  0.00  0.00    +0.339 C 
ATOM     18  O   UNL     1      -4.992   4.520   1.155  0.00  0.00    -0.245 OA
BRANCH  17  19
ATOM     19  O   UNL     1      -6.018   2.616   0.643  0.00  0.00    -0.462 OA
BRANCH  19  21
ATOM     20  C   UNL     1      -8.392   2.209   0.841  0.00  0.00    +0.048 C 
ATOM     21  C   UNL     1      -7.256   3.217   1.027  0.00  0.00    +0.229 C 
ENDBRANCH  19  21
ENDBRANCH  17  19
ENDBRANCH   1  17
BRANCH   5  22
ATOM     22  C   UNL     1      -2.029  -0.270  -1.038  0.00  0.00    +0.101 C 
ATOM     23  N   UNL     1      -1.875  -1.311  -1.466  0.00  0.00    -0.191 NA
ENDBRANCH   5  22
BRANCH   2  24
ATOM     24  C   UNL     1      -2.658   4.545   1.849  0.00  0.00    +0.150 C 
BRANCH  24  25
ATOM     25  S   UNL     1      -2.217   6.077   0.993  0.00  0.00    -0.097 S 
BRANCH  25  26
ATOM     26  C   UNL     1      -2.444   7.235   2.302  0.00  0.00    +0.115 A 
ATOM     27  C   UNL     1      -2.204   8.603   2.074  0.00  0.00    +0.084 A 
ATOM     28  C   UNL     1      -2.390   9.511   3.126  0.00  0.00    +0.023 A 
ATOM     29  C   UNL     1      -2.802   9.025   4.349  0.00  0.00    +0.030 A 
ATOM     30  C   UNL     1      -3.022   7.653   4.505  0.00  0.00    +0.079 A 
ATOM     31  N   UNL     1      -2.844   6.813   3.489  0.00  0.00    -0.239 NA
BRANCH  30  32
ATOM     32  C   UNL     1      -3.463   7.131   5.811  0.00  0.00    +0.038 A 
ATOM     33  C   UNL     1      -3.740   5.838   6.177  0.00  0.00    +0.017 A 
ATOM     34  C   UNL     1      -4.137   5.588   7.469  0.00  0.00    +0.008 A 
ATOM     35  C   UNL     1      -4.255   6.626   8.340  0.00  0.00    +0.046 A 
ATOM     36  S   UNL     1      -3.785   8.019   7.327  0.00  0.00    -0.095 S 
ENDBRANCH  30  32
BRANCH  27  37
ATOM     37  C   UNL     1      -1.776   9.061   0.786  0.00  0.00    +0.102 C 
ATOM     38  N   UNL     1      -1.436   9.424  -0.235  0.00  0.00    -0.191 NA
ENDBRANCH  27  37
ENDBRANCH  25  26
ENDBRANCH  24  25
ENDBRANCH   2  24
TORSDOF 11
