REMARK  Name = ZINC39440834
REMARK  11 active torsions:
REMARK  status: ('A' for Active; 'I' for Inactive)
REMARK    1  A    between atoms: C_1  and  C_2
REMARK    2  A    between atoms: C_2  and  C_3
REMARK    3  A    between atoms: C_3  and  N_4
REMARK    4  A    between atoms: N_4  and  C_5
REMARK    5  A    between atoms: N_4  and  C_18
REMARK    6  A    between atoms: C_5  and  C_6
REMARK    7  A    between atoms: C_10  and  C_13
REMARK    8  A    between atoms: C_18  and  C_19
REMARK    9  A    between atoms: N_21  and  C_22
REMARK   10  A    between atoms: C_22  and  C_23
REMARK   11  A    between atoms: C_23  and  C_24
REMARK                            x       y       z     vdW  Elec       q    Type
REMARK                         _______ _______ _______ _____ _____    ______ ____
ROOT
ATOM      1  C   UNL     1       0.599  -2.022   2.507  0.00  0.00    +0.019 C 
ENDROOT
BRANCH   1   2
ATOM      2  C   UNL     1      -0.513  -1.294   3.215  0.00  0.00    +0.196 C 
ATOM      3  O   UNL     1      -1.357  -0.704   2.574  0.00  0.00    -0.278 OA
ATOM      4  N   UNL     1      -0.571  -1.298   4.562  0.00  0.00    -0.317 N 
ATOM      5  H   UNL     1       0.103  -1.770   5.075  0.00  0.00    +0.149 HD
BRANCH   4   6
ATOM      6  C   UNL     1      -1.653  -0.590   5.251  0.00  0.00    +0.109 C 
BRANCH   6   7
ATOM      7  C   UNL     1      -1.486  -0.751   6.763  0.00  0.00    +0.056 C 
BRANCH   7   8
ATOM      8  C   UNL     1      -2.599  -0.022   7.472  0.00  0.00    -0.021 A 
ATOM      9  C   UNL     1      -3.937  -0.544   7.760  0.00  0.00    +0.003 A 
ATOM     10  C   UNL     1      -4.580  -1.758   7.510  0.00  0.00    +0.010 A 
ATOM     11  C   UNL     1      -5.871  -1.938   7.919  0.00  0.00    +0.001 A 
ATOM     12  C   UNL     1      -6.549  -0.924   8.581  0.00  0.00    +0.002 A 
ATOM     13  C   UNL     1      -5.934   0.281   8.838  0.00  0.00    +0.026 A 
ATOM     14  C   UNL     1      -4.620   0.487   8.431  0.00  0.00    +0.047 A 
ATOM     15  N   UNL     1      -3.750   1.549   8.535  0.00  0.00    -0.360 N 
ATOM     16  C   UNL     1      -2.550   1.226   7.964  0.00  0.00    +0.087 A 
ATOM     17  H   UNL     1      -3.957   2.399   8.955  0.00  0.00    +0.165 HD
ENDBRANCH   7   8
ENDBRANCH   6   7
ENDBRANCH   4   6
ENDBRANCH   1   2
BRANCH   1  18
ATOM     18  N   UNL     1       0.439  -1.867   1.055  0.00  0.00    +0.388 N 
ATOM     19  H   UNL     1      -0.492  -2.151   0.787  0.00  0.00    -0.081 HD
BRANCH  18  20
ATOM     20  C   UNL     1       0.647  -0.461   0.686  0.00  0.00    -0.078 C 
BRANCH  20  22
ATOM     21  C   UNL     1       0.478   1.202  -1.171  0.00  0.00    +0.002 C 
ATOM     22  C   UNL     1       0.393  -0.283  -0.812  0.00  0.00    -0.022 C 
ENDBRANCH  20  22
ENDBRANCH  18  20
BRANCH  18  23
ATOM     23  C   UNL     1       1.425  -2.706   0.361  0.00  0.00    -0.020 C 
BRANCH  23  24
ATOM     24  C   UNL     1       1.028  -4.178   0.496  0.00  0.00    +0.243 C 
ATOM     25  N   UNL     1      -0.392  -4.355   0.167  0.00  0.00    -0.159 NA
ATOM     26  N   UNL     1      -0.932  -5.094   1.000  0.00  0.00    -0.152 NA
ATOM     27  C   UNL     1       0.047  -5.519   2.008  0.00  0.00    +0.296 C 
ATOM     28  O   UNL     1       1.157  -4.607   1.868  0.00  0.00    -0.324 OA
BRANCH  27  29
ATOM     29  C   UNL     1      -0.547  -5.416   3.390  0.00  0.00    +0.042 A 
ATOM     30  C   UNL     1      -1.789  -5.755   3.812  0.00  0.00    +0.016 A 
ATOM     31  C   UNL     1      -2.118  -5.572   5.142  0.00  0.00    +0.008 A 
ATOM     32  C   UNL     1      -1.188  -5.059   5.985  0.00  0.00    +0.045 A 
ATOM     33  S   UNL     1       0.207  -4.824   4.896  0.00  0.00    -0.097 S 
ENDBRANCH  27  29
ENDBRANCH  23  24
ENDBRANCH  18  23
ENDBRANCH   1  18
TORSDOF 10
