REMARK  Name = ZINC39634934
REMARK  11 active torsions:
REMARK  status: ('A' for Active; 'I' for Inactive)
REMARK    1  A    between atoms: C_1  and  C_2
REMARK    2  A    between atoms: C_2  and  C_3
REMARK    3  A    between atoms: C_3  and  C_4
REMARK    4  A    between atoms: C_4  and  C_6
REMARK    5  A    between atoms: C_4  and  C_7
REMARK    6  A    between atoms: C_11  and  C_20
REMARK    7  A    between atoms: N_22  and  C_23
REMARK    8  A    between atoms: C_23  and  C_24
REMARK    9  A    between atoms: C_24  and  C_25
REMARK   10  A    between atoms: C_28  and  O_31
REMARK   11  A    between atoms: O_31  and  C_32
REMARK                            x       y       z     vdW  Elec       q    Type
REMARK                         _______ _______ _______ _____ _____    ______ ____
ROOT
ATOM      1  C   UNL     1      -2.982  -2.607   0.120  0.00  0.00    +0.218 C 
ATOM      2  O   UNL     1      -3.923  -1.857   0.269  0.00  0.00    -0.275 OA
ATOM      3  N   UNL     1      -3.170  -3.941   0.168  0.00  0.00    -0.300 N 
ATOM      4  C   UNL     1      -2.152  -5.007   0.015  0.00  0.00    +0.121 C 
ATOM      5  C   UNL     1      -2.552  -6.079   1.054  0.00  0.00    +0.100 C 
ATOM      6  C   UNL     1      -4.055  -5.856   1.291  0.00  0.00    -0.004 C 
ATOM      7  C   UNL     1      -4.440  -4.673   0.391  0.00  0.00    +0.115 C 
ATOM      8  C   UNL     1      -4.843  -7.100   0.895  0.00  0.00    -0.010 C 
ATOM      9  C   UNL     1      -6.328  -6.875   1.194  0.00  0.00    -0.082 C 
ATOM     10  N   UNL     1      -6.504  -6.594   2.623  0.00  0.00    +0.379 N 
ATOM     11  C   UNL     1      -5.820  -5.344   2.976  0.00  0.00    -0.082 C 
ATOM     12  C   UNL     1      -4.313  -5.505   2.753  0.00  0.00    -0.010 C 
ATOM     13  H   UNL     1      -7.488  -6.506   2.828  0.00  0.00    -0.086 HD
ATOM     14  H   UNL     1      -6.117  -7.352   3.164  0.00  0.00    -0.086 HD
ENDROOT
BRANCH   5  15
ATOM     15  C   UNL     1      -2.304  -7.460   0.505  0.00  0.00    +0.218 C 
ATOM     16  O   UNL     1      -2.396  -7.664  -0.687  0.00  0.00    -0.275 OA
ATOM     17  N   UNL     1      -1.981  -8.469   1.338  0.00  0.00    -0.315 N 
ATOM     18  H   UNL     1      -1.907  -8.306   2.292  0.00  0.00    +0.149 HD
BRANCH  17  19
ATOM     19  C   UNL     1      -1.740  -9.812   0.804  0.00  0.00    +0.109 C 
BRANCH  19  20
ATOM     20  C   UNL     1      -1.394 -10.762   1.952  0.00  0.00    +0.054 C 
BRANCH  20  21
ATOM     21  C   UNL     1      -1.146 -12.144   1.403  0.00  0.00    -0.046 A 
ATOM     22  C   UNL     1      -2.195 -13.036   1.280  0.00  0.00    +0.007 A 
ATOM     23  C   UNL     1      -1.971 -14.303   0.777  0.00  0.00    +0.046 A 
ATOM     24  C   UNL     1      -0.692 -14.680   0.395  0.00  0.00    +0.120 A 
ATOM     25  C   UNL     1       0.359 -13.783   0.518  0.00  0.00    +0.046 A 
ATOM     26  C   UNL     1       0.129 -12.515   1.017  0.00  0.00    +0.007 A 
BRANCH  24  27
ATOM     27  O   UNL     1      -0.468 -15.926  -0.100  0.00  0.00    -0.495 OA
ATOM     28  C   UNL     1       0.874 -16.244  -0.474  0.00  0.00    +0.277 C 
ENDBRANCH  24  27
ENDBRANCH  20  21
ENDBRANCH  19  20
ENDBRANCH  17  19
ENDBRANCH   5  15
BRANCH   1  29
ATOM     29  C   UNL     1      -1.603  -2.048  -0.120  0.00  0.00    +0.072 C 
ATOM     30  C   UNL     1      -1.079  -2.544  -1.469  0.00  0.00    +0.017 C 
BRANCH  29  31
ATOM     31  C   UNL     1      -1.667  -0.520  -0.128  0.00  0.00    +0.012 C 
BRANCH  31  33
ATOM     32  C   UNL     1      -0.315   1.578  -0.254  0.00  0.00    +0.004 C 
ATOM     33  C   UNL     1      -0.251   0.049  -0.246  0.00  0.00    -0.003 C 
ENDBRANCH  31  33
ENDBRANCH  29  31
ENDBRANCH   1  29
TORSDOF 8
