REMARK  Name = ZINC28244999
REMARK  6 active torsions:
REMARK  status: ('A' for Active; 'I' for Inactive)
REMARK    1  A    between atoms: C_1  and  C_2
REMARK    2  A    between atoms: C_5  and  S_9
REMARK    3  A    between atoms: C_7  and  C_8
REMARK    4  A    between atoms: S_9  and  N_12
REMARK    5  A    between atoms: N_12  and  C_13
REMARK    6  A    between atoms: C_15  and  C_21
REMARK                            x       y       z     vdW  Elec       q    Type
REMARK                         _______ _______ _______ _____ _____    ______ ____
ROOT
ATOM      1  C   UNL     1      -1.151   3.212   2.462  0.00  0.00    +0.084 A 
ATOM      2  C   UNL     1      -0.517   4.351   1.995  0.00  0.00    +0.041 A 
ATOM      3  C   UNL     1       0.339   5.063   2.835  0.00  0.00    +0.056 A 
ATOM      4  C   UNL     1       0.553   4.622   4.144  0.00  0.00    +0.137 A 
ATOM      5  C   UNL     1      -0.085   3.484   4.602  0.00  0.00    +0.079 A 
ATOM      6  C   UNL     1      -0.939   2.783   3.769  0.00  0.00    +0.148 A 
ATOM      7  F   UNL     1      -1.563   1.675   4.224  0.00  0.00    -0.203 F 
ATOM      8  F   UNL     1       1.382   5.308   4.961  0.00  0.00    -0.205 F 
ENDROOT
BRANCH   3   9
ATOM      9  C   UNL     1       1.019   6.280   2.342  0.00  0.00    +0.167 A 
ATOM     10  N   UNL     1       2.301   6.561   2.450  0.00  0.00    -0.129 NA
ATOM     11  N   UNL     1       2.544   7.701   1.902  0.00  0.00    -0.134 NA
ATOM     12  C   UNL     1       1.444   8.203   1.416  0.00  0.00    +0.134 A 
ATOM     13  N   UNL     1       0.441   7.325   1.683  0.00  0.00    -0.311 N 
ATOM     14  C   UNL     1      -0.975   7.493   1.353  0.00  0.00    +0.125 C 
ATOM     15  C   UNL     1      -1.101   8.372   0.105  0.00  0.00    +0.022 C 
ATOM     16  C   UNL     1      -1.184   9.841   0.516  0.00  0.00    +0.002 C 
ATOM     17  C   UNL     1       0.084  10.264   1.251  0.00  0.00    +0.008 C 
ATOM     18  C   UNL     1       1.287   9.508   0.679  0.00  0.00    +0.076 C 
ENDBRANCH   3   9
BRANCH   1  19
ATOM     19  N   UNL     1      -2.012   2.495   1.622  0.00  0.00    -0.213 N 
ATOM     20  H   UNL     1      -2.911   2.015   2.035  0.00  0.00    +0.174 HD
BRANCH  19  21
ATOM     21  S   UNL     1      -1.676   2.371   0.005  0.00  0.00    +0.072 S 
ATOM     22  O   UNL     1      -1.486   3.695  -0.474  0.00  0.00    -0.150 OA
ATOM     23  O   UNL     1      -2.649   1.494  -0.546  0.00  0.00    -0.150 OA
BRANCH  21  28
ATOM     24  C   UNL     1       3.646  -0.424  -0.518  0.00  0.00    +0.044 C 
ATOM     25  C   UNL     1       2.317   0.274  -0.386  0.00  0.00    -0.047 A 
ATOM     26  C   UNL     1       2.266   1.653  -0.294  0.00  0.00    +0.005 A 
ATOM     27  C   UNL     1       1.047   2.293  -0.172  0.00  0.00    +0.029 A 
ATOM     28  C   UNL     1      -0.121   1.554  -0.143  0.00  0.00    +0.109 A 
ATOM     29  C   UNL     1      -0.070   0.176  -0.235  0.00  0.00    +0.032 A 
ATOM     30  C   UNL     1       1.149  -0.464  -0.357  0.00  0.00    -0.046 A 
ATOM     31  C   UNL     1       1.204  -1.967  -0.458  0.00  0.00    +0.044 C 
ENDBRANCH  21  28
ENDBRANCH  19  21
ENDBRANCH   1  19
TORSDOF 4
