REMARK  Name = ZINC66588397
REMARK  5 active torsions:
REMARK  status: ('A' for Active; 'I' for Inactive)
REMARK    1  A    between atoms: C_1  and  S_2
REMARK    2  A    between atoms: S_2  and  C_5
REMARK    3  A    between atoms: C_8  and  N_12
REMARK    4  A    between atoms: N_12  and  S_13
REMARK    5  A    between atoms: S_13  and  C_16
REMARK                            x       y       z     vdW  Elec       q    Type
REMARK                         _______ _______ _______ _____ _____    ______ ____
ROOT
ATOM      1  C   UNL     1       0.845  -0.437  -1.483  0.00  0.00    +0.158 A 
ATOM      2  C   UNL     1       0.132  -0.613  -2.657  0.00  0.00    +0.153 A 
ATOM      3  C   UNL     1       0.792  -0.953  -3.824  0.00  0.00    +0.067 A 
ATOM      4  C   UNL     1       2.171  -1.119  -3.818  0.00  0.00    +0.080 A 
ATOM      5  C   UNL     1       2.885  -0.942  -2.639  0.00  0.00    +0.067 A 
ATOM      6  C   UNL     1       2.221  -0.596  -1.476  0.00  0.00    +0.153 A 
ATOM      7  F   UNL     1       2.915  -0.419  -0.330  0.00  0.00    -0.203 F 
ATOM      8  F   UNL     1      -1.209  -0.452  -2.663  0.00  0.00    -0.203 F 
ENDROOT
BRANCH   1  10
ATOM      9  C   UNL     1      -0.022   1.810   0.012  0.00  0.00    +0.200 C 
ATOM     10  S   UNL     1       0.002  -0.004   0.002  0.00  0.00    -0.000 S 
ATOM     11  O   UNL     1       0.835  -0.488   1.046  0.00  0.00    -0.169 OA
ATOM     12  O   UNL     1      -1.315  -0.510  -0.168  0.00  0.00    -0.169 OA
ENDBRANCH   1  10
BRANCH   4  13
ATOM     13  N   UNL     1       2.840  -1.463  -4.995  0.00  0.00    -0.097 NA
BRANCH  13  14
ATOM     14  S   UNL     1       4.484  -1.660  -4.986  0.00  0.00    +0.098 S 
ATOM     15  O   UNL     1       5.045  -0.383  -4.716  0.00  0.00    -0.148 OA
ATOM     16  O   UNL     1       4.752  -2.797  -4.176  0.00  0.00    -0.148 OA
BRANCH  14  17
ATOM     17  C   UNL     1       4.966  -2.086  -6.627  0.00  0.00    +0.148 A 
ATOM     18  C   UNL     1       5.329  -1.272  -7.648  0.00  0.00    +0.037 A 
ATOM     19  C   UNL     1       5.673  -1.834  -8.863  0.00  0.00    +0.010 A 
ATOM     20  C   UNL     1       5.638  -3.182  -8.998  0.00  0.00    +0.047 A 
ATOM     21  S   UNL     1       5.112  -3.701  -7.372  0.00  0.00    -0.077 S 
ENDBRANCH  14  17
ENDBRANCH  13  14
ENDBRANCH   4  13
TORSDOF 4
