REMARK  Name = ZINC39326459
REMARK  5 active torsions:
REMARK  status: ('A' for Active; 'I' for Inactive)
REMARK    1  A    between atoms: C_1  and  C_2
REMARK    2  A    between atoms: C_7  and  C_28
REMARK    3  A    between atoms: N_15  and  C_16
REMARK    4  A    between atoms: C_16  and  C_17
REMARK    5  A    between atoms: C_17  and  C_18
REMARK                            x       y       z     vdW  Elec       q    Type
REMARK                         _______ _______ _______ _____ _____    ______ ____
ROOT
ATOM      1  C   UNL     1      -0.018   1.503   0.010  0.00  0.00    +0.060 C 
ATOM      2  C   UNL     1       0.002  -0.004   0.002  0.00  0.00    +0.008 C 
ATOM      3  C   UNL     1       0.005  -0.653  -1.174  0.00  0.00    +0.085 C 
ATOM      4  C   UNL     1       0.042  -2.062  -1.256  0.00  0.00    +0.245 C 
ATOM      5  O   UNL     1       0.034  -2.604  -2.346  0.00  0.00    -0.270 OA
ATOM      6  N   UNL     1       0.085  -2.808  -0.142  0.00  0.00    -0.237 N 
ATOM      7  C   UNL     1       0.219  -4.264  -0.181  0.00  0.00    +0.231 C 
ATOM      8  N   UNL     1       1.200  -4.685   0.821  0.00  0.00    -0.228 NA
ATOM      9  C   UNL     1       1.628  -3.901   1.756  0.00  0.00    +0.180 C 
ATOM     10  N   UNL     1       1.223  -2.594   1.883  0.00  0.00    -0.284 N 
ATOM     11  C   UNL     1       0.015  -2.147   1.175  0.00  0.00    +0.257 C 
ATOM     12  N   UNL     1       0.022  -0.677   1.192  0.00  0.00    -0.314 N 
ATOM     13  N   UNL     1       2.530  -4.398   2.667  0.00  0.00    -0.317 N 
ATOM     14  H   UNL     1       1.728  -1.974   2.433  0.00  0.00    +0.152 HD
ATOM     15  H   UNL     1       0.038  -0.193   2.032  0.00  0.00    +0.149 HD
ATOM     16  H   UNL     1       2.865  -3.829   3.378  0.00  0.00    +0.149 HD
ENDROOT
BRANCH   7  17
ATOM     17  C   UNL     1      -1.114  -4.900   0.120  0.00  0.00    -0.005 A 
ATOM     18  C   UNL     1      -2.284  -4.251  -0.227  0.00  0.00    +0.009 A 
ATOM     19  C   UNL     1      -3.506  -4.834   0.049  0.00  0.00    +0.020 A 
ATOM     20  C   UNL     1      -3.559  -6.067   0.673  0.00  0.00    +0.041 A 
ATOM     21  C   UNL     1      -2.388  -6.716   1.021  0.00  0.00    +0.020 A 
ATOM     22  C   UNL     1      -1.166  -6.135   0.740  0.00  0.00    +0.009 A 
ATOM     23 CL   UNL     1      -5.094  -6.800   1.021  0.00  0.00    -0.084 Cl
ENDBRANCH   7  17
BRANCH  13  24
ATOM     24  C   UNL     1       2.984  -5.787   2.564  0.00  0.00    +0.109 C 
BRANCH  24  25
ATOM     25  C   UNL     1       3.977  -6.084   3.690  0.00  0.00    +0.056 C 
BRANCH  25  26
ATOM     26  C   UNL     1       4.444  -7.512   3.584  0.00  0.00    -0.021 A 
ATOM     27  C   UNL     1       3.932  -8.570   4.231  0.00  0.00    +0.087 A 
ATOM     28  N   UNL     1       4.614  -9.705   3.885  0.00  0.00    -0.360 N 
ATOM     29  H   UNL     1       4.425 -10.594   4.224  0.00  0.00    +0.165 HD
ATOM     30  C   UNL     1       5.607  -9.397   2.982  0.00  0.00    +0.047 A 
ATOM     31  C   UNL     1       5.541  -8.011   2.749  0.00  0.00    +0.003 A 
ATOM     32  C   UNL     1       6.435  -7.410   1.862  0.00  0.00    +0.010 A 
ATOM     33  C   UNL     1       7.370  -8.173   1.220  0.00  0.00    +0.001 A 
ATOM     34  C   UNL     1       7.437  -9.541   1.444  0.00  0.00    +0.002 A 
ATOM     35  C   UNL     1       6.570 -10.153   2.322  0.00  0.00    +0.026 A 
ENDBRANCH  25  26
ENDBRANCH  24  25
ENDBRANCH  13  24
TORSDOF 4
