REMARK  Name = ZINC05536355
REMARK  9 active torsions:
REMARK  status: ('A' for Active; 'I' for Inactive)
REMARK    1  A    between atoms: C_1  and  C_2
REMARK    2  A    between atoms: C_2  and  C_4
REMARK    3  A    between atoms: C_2  and  O_15
REMARK    4  A    between atoms: N_6  and  C_7
REMARK    5  A    between atoms: C_7  and  C_13
REMARK    6  A    between atoms: O_15  and  C_16
REMARK    7  A    between atoms: C_16  and  C_18
REMARK    8  A    between atoms: C_20  and  S_25
REMARK    9  A    between atoms: S_25  and  C_28
REMARK                            x       y       z     vdW  Elec       q    Type
REMARK                         _______ _______ _______ _____ _____    ______ ____
ROOT
ATOM      1  C   UNL     1      -0.019   1.526   0.010  0.00  0.00    +0.062 C 
ATOM      2  C   UNL     1       0.002  -0.004   0.002  0.00  0.00    +0.259 C 
ENDROOT
BRANCH   2   3
ATOM      3  C   UNL     1      -1.412  -0.526   0.013  0.00  0.00    +0.255 C 
ATOM      4  O   UNL     1      -1.836  -1.147  -0.939  0.00  0.00    -0.272 OA
ATOM      5  N   UNL     1      -2.204  -0.302   1.079  0.00  0.00    -0.294 N 
ATOM      6  H   UNL     1      -1.865   0.195   1.840  0.00  0.00    +0.150 HD
BRANCH   5   7
ATOM      7  C   UNL     1      -3.579  -0.809   1.090  0.00  0.00    +0.121 C 
ATOM      8  C   UNL     1      -4.355  -0.203  -0.081  0.00  0.00    +0.041 C 
ATOM      9  C   UNL     1      -5.790  -0.733  -0.070  0.00  0.00    +0.003 C 
ATOM     10  C   UNL     1      -6.467  -0.344   1.246  0.00  0.00    +0.000 C 
ATOM     11  C   UNL     1      -5.691  -0.950   2.417  0.00  0.00    +0.003 C 
ATOM     12  C   UNL     1      -4.256  -0.420   2.406  0.00  0.00    +0.041 C 
BRANCH   7  13
ATOM     13  C   UNL     1      -3.562  -2.275   0.961  0.00  0.00    +0.088 C 
ATOM     14  N   UNL     1      -3.549  -3.407   0.861  0.00  0.00    -0.194 NA
ENDBRANCH   7  13
ENDBRANCH   5   7
ENDBRANCH   2   3
BRANCH   2  15
ATOM     15  O   UNL     1       0.682  -0.472  -1.193  0.00  0.00    -0.449 OA
BRANCH  15  16
ATOM     16  C   UNL     1       2.013  -0.659  -1.105  0.00  0.00    +0.341 C 
ATOM     17  O   UNL     1       2.591  -0.436  -0.060  0.00  0.00    -0.245 OA
BRANCH  16  18
ATOM     18  C   UNL     1       2.771  -1.133  -2.281  0.00  0.00    +0.079 A 
ATOM     19  C   UNL     1       2.110  -1.391  -3.484  0.00  0.00    +0.043 A 
ATOM     20  C   UNL     1       2.824  -1.833  -4.578  0.00  0.00    +0.089 A 
ATOM     21  C   UNL     1       4.192  -2.023  -4.486  0.00  0.00    +0.028 A 
ATOM     22  C   UNL     1       4.853  -1.771  -3.298  0.00  0.00    +0.022 A 
ATOM     23  C   UNL     1       4.153  -1.322  -2.196  0.00  0.00    +0.055 A 
ATOM     24 CL   UNL     1       4.985  -1.000  -0.707  0.00  0.00    -0.083 Cl
BRANCH  20  25
ATOM     25  S   UNL     1       1.992  -2.157  -6.097  0.00  0.00    -0.006 S 
ATOM     26  O   UNL     1       2.802  -3.121  -6.755  0.00  0.00    -0.170 OA
ATOM     27  O   UNL     1       0.657  -2.468  -5.720  0.00  0.00    -0.170 OA
ATOM     28  C   UNL     1       2.036  -0.584  -6.998  0.00  0.00    +0.200 C 
ENDBRANCH  20  25
ENDBRANCH  16  18
ENDBRANCH  15  16
ENDBRANCH   2  15
TORSDOF 7
