REMARK  Name = ZINC05030737
REMARK  4 active torsions:
REMARK  status: ('A' for Active; 'I' for Inactive)
REMARK    1  A    between atoms: C_9  and  S_16
REMARK    2  A    between atoms: C_10  and  N_15
REMARK    3  A    between atoms: N_11  and  N_14
REMARK    4  A    between atoms: S_16  and  C_19
REMARK                            x       y       z     vdW  Elec       q    Type
REMARK                         _______ _______ _______ _____ _____    ______ ____
ROOT
ATOM      1  C   UNL     1      -6.902   2.733  -0.994  0.00  0.00    +0.002 A 
ATOM      2  C   UNL     1      -6.575   2.258   0.275  0.00  0.00    +0.002 A 
ATOM      3  C   UNL     1      -5.298   1.900   0.580  0.00  0.00    +0.030 A 
ATOM      4  C   UNL     1      -4.289   2.007  -0.395  0.00  0.00    +0.092 A 
ATOM      5  C   UNL     1      -4.622   2.490  -1.685  0.00  0.00    +0.090 A 
ATOM      6  C   UNL     1      -5.954   2.851  -1.962  0.00  0.00    +0.030 A 
ATOM      7  N   UNL     1      -3.683   2.602  -2.631  0.00  0.00    -0.240 NA
ATOM      8  C   UNL     1      -2.434   2.259  -2.356  0.00  0.00    +0.137 A 
ATOM      9  C   UNL     1      -1.227   2.250  -3.094  0.00  0.00    +0.162 A 
ATOM     10  C   UNL     1      -0.243   1.794  -2.283  0.00  0.00    +0.143 A 
ATOM     11  N   UNL     1      -0.741   1.490  -1.041  0.00  0.00    -0.233 N 
ATOM     12  C   UNL     1      -2.093   1.759  -1.018  0.00  0.00    +0.180 A 
ATOM     13  N   UNL     1      -3.030   1.656  -0.103  0.00  0.00    -0.225 NA
ENDROOT
BRANCH  11  14
ATOM     14  N   UNL     1      -0.012   1.005   0.008  0.00  0.00    -0.295 N 
ATOM     15  H   UNL     1       0.002  -0.004   0.002  0.00  0.00    +0.163 HD
ATOM     16  H   UNL     1       0.925   1.379   0.001  0.00  0.00    +0.163 HD
ENDBRANCH  11  14
BRANCH  10  17
ATOM     17  N   UNL     1       1.081   1.651  -2.657  0.00  0.00    -0.342 N 
ATOM     18  H   UNL     1       1.731   1.314  -2.021  0.00  0.00    +0.144 HD
ATOM     19  H   UNL     1       1.360   1.887  -3.555  0.00  0.00    +0.144 HD
ENDBRANCH  10  17
BRANCH   9  20
ATOM     20  S   UNL     1      -1.036   2.752  -4.772  0.00  0.00    +0.037 S 
ATOM     21  O   UNL     1       0.118   2.086  -5.266  0.00  0.00    -0.164 OA
ATOM     22  O   UNL     1      -2.312   2.619  -5.383  0.00  0.00    -0.164 OA
BRANCH  20  23
ATOM     23  C   UNL     1      -0.659   4.473  -4.762  0.00  0.00    +0.131 A 
ATOM     24  C   UNL     1       0.551   5.081  -4.702  0.00  0.00    +0.035 A 
ATOM     25  C   UNL     1       0.608   6.462  -4.710  0.00  0.00    +0.009 A 
ATOM     26  C   UNL     1      -0.548   7.168  -4.768  0.00  0.00    +0.047 A 
ATOM     27  S   UNL     1      -1.771   5.868  -4.820  0.00  0.00    -0.078 S 
ENDBRANCH  20  23
ENDBRANCH   9  20
TORSDOF 4
