REMARK  Name = ZINC40476506
REMARK  8 active torsions:
REMARK  status: ('A' for Active; 'I' for Inactive)
REMARK    1  A    between atoms: C_1  and  C_2
REMARK    2  A    between atoms: C_2  and  C_3
REMARK    3  A    between atoms: C_2  and  C_4
REMARK    4  A    between atoms: C_4  and  S_5
REMARK    5  A    between atoms: S_5  and  C_6
REMARK    6  A    between atoms: C_17  and  C_19
REMARK    7  A    between atoms: C_31  and  C_33
REMARK    8  A    between atoms: C_31  and  C_34
REMARK                            x       y       z     vdW  Elec       q    Type
REMARK                         _______ _______ _______ _____ _____    ______ ____
ROOT
ATOM      1  C   UNL     1      -3.885  -0.731  -1.363  0.00  0.00    +0.171 A 
ATOM      2  N   UNL     1      -4.786  -0.556  -2.369  0.00  0.00    -0.302 N 
ATOM      3  H   UNL     1      -4.531  -0.066  -3.167  0.00  0.00    +0.171 HD
ATOM      4  C   UNL     1      -6.032  -1.063  -2.260  0.00  0.00    +0.258 A 
ATOM      5  O   UNL     1      -6.847  -0.910  -3.155  0.00  0.00    -0.267 OA
ATOM      6  C   UNL     1      -6.372  -1.769  -1.100  0.00  0.00    +0.069 A 
ATOM      7  C   UNL     1      -5.418  -1.922  -0.108  0.00  0.00    +0.135 A 
ATOM      8  N   UNL     1      -4.198  -1.399  -0.271  0.00  0.00    -0.208 NA
ATOM      9  N   UNL     1      -5.732  -2.622   1.040  0.00  0.00    -0.302 N 
ATOM     10  C   UNL     1      -6.796  -3.481   1.064  0.00  0.00    +0.017 C 
ATOM     11  C   UNL     1      -7.778  -3.396   0.142  0.00  0.00    +0.024 C 
ATOM     12  C   UNL     1      -7.747  -2.345  -0.938  0.00  0.00    +0.093 C 
ATOM     13  C   UNL     1      -8.864  -4.290   0.156  0.00  0.00    +0.162 C 
ATOM     14  O   UNL     1      -9.735  -4.181  -0.683  0.00  0.00    -0.292 OA
ATOM     15  C   UNL     1      -8.969  -5.376   1.191  0.00  0.00    +0.086 C 
ATOM     16  C   UNL     1      -7.559  -5.775   1.640  0.00  0.00    -0.023 C 
ATOM     17  C   UNL     1      -6.844  -4.524   2.155  0.00  0.00    +0.058 C 
ATOM     18  C   UNL     1      -6.787  -6.357   0.455  0.00  0.00    +0.011 C 
ATOM     19  C   UNL     1      -7.651  -6.813   2.760  0.00  0.00    +0.011 C 
ATOM     20  H   UNL     1      -5.193  -2.503   1.838  0.00  0.00    +0.153 HD
ENDROOT
BRANCH  12  21
ATOM     21  C   UNL     1      -8.705  -1.239  -0.577  0.00  0.00    -0.032 A 
ATOM     22  C   UNL     1      -8.503  -0.500   0.574  0.00  0.00    +0.008 A 
ATOM     23  C   UNL     1      -9.379   0.516   0.909  0.00  0.00    +0.050 A 
ATOM     24  C   UNL     1     -10.463   0.795   0.092  0.00  0.00    +0.166 A 
ATOM     25  C   UNL     1     -10.666   0.050  -1.067  0.00  0.00    +0.167 A 
ATOM     26  C   UNL     1      -9.781  -0.963  -1.400  0.00  0.00    +0.054 A 
ATOM     27  O   UNL     1     -11.788   0.513  -1.692  0.00  0.00    -0.453 OA
ATOM     28  C   UNL     1     -12.496   1.275  -0.696  0.00  0.00    +0.466 C 
ATOM     29  O   UNL     1     -11.457   1.725   0.193  0.00  0.00    -0.453 OA
ENDBRANCH  12  21
BRANCH   1  30
ATOM     30  S   UNL     1      -2.265  -0.057  -1.527  0.00  0.00    -0.088 S 
BRANCH  30  31
ATOM     31  C   UNL     1      -1.433  -0.534   0.013  0.00  0.00    +0.080 C 
BRANCH  31  33
ATOM     32  C   UNL     1      -0.019   1.526   0.010  0.00  0.00    +0.008 C 
ATOM     33  C   UNL     1       0.002  -0.004   0.002  0.00  0.00    -0.007 C 
ATOM     34  C   UNL     1       0.742  -0.511   1.242  0.00  0.00    +0.008 C 
ENDBRANCH  31  33
ENDBRANCH  30  31
ENDBRANCH   1  30
TORSDOF 4
