REMARK  Name = ZINC36604257
REMARK  13 active torsions:
REMARK  status: ('A' for Active; 'I' for Inactive)
REMARK    1  A    between atoms: C_1  and  C_2
REMARK    2  A    between atoms: C_2  and  C_3
REMARK    3  A    between atoms: C_3  and  C_4
REMARK    4  A    between atoms: C_4  and  N_5
REMARK    5  A    between atoms: C_6  and  C_8
REMARK    6  A    between atoms: C_8  and  C_10
REMARK    7  A    between atoms: C_8  and  N_17
REMARK    8  A    between atoms: C_13  and  O_16
REMARK    9  A    between atoms: N_17  and  C_18
REMARK   10  A    between atoms: C_24  and  C_26
REMARK   11  A    between atoms: C_32  and  O_34
REMARK   12  A    between atoms: O_34  and  C_35
REMARK   13  A    between atoms: C_35  and  C_36
REMARK                            x       y       z     vdW  Elec       q    Type
REMARK                         _______ _______ _______ _____ _____    ______ ____
ROOT
ATOM      1  N   UNL     1       3.077  -5.606   4.185  0.00  0.00    -0.254 N 
ATOM      2  C   UNL     1       2.646  -6.455   5.138  0.00  0.00    +0.241 C 
ATOM      3  O   UNL     1       1.663  -6.183   5.794  0.00  0.00    -0.273 OA
ENDROOT
BRANCH   2   4
ATOM      4  C   UNL     1       3.386  -7.744   5.389  0.00  0.00    +0.166 C 
ATOM      5  C   UNL     1       2.828  -8.856   4.477  0.00  0.00    +0.033 C 
ATOM      6  C   UNL     1       2.850 -10.105   5.397  0.00  0.00    +0.021 C 
ATOM      7  C   UNL     1       2.501  -9.485   6.772  0.00  0.00    +0.112 C 
ATOM      8  N   UNL     1       3.183  -8.174   6.781  0.00  0.00    -0.256 N 
ATOM      9  C   UNL     1       3.557  -7.486   7.878  0.00  0.00    +0.404 C 
ATOM     10  O   UNL     1       4.114  -6.413   7.761  0.00  0.00    -0.226 OA
BRANCH   9  11
ATOM     11  O   UNL     1       3.313  -7.989   9.103  0.00  0.00    -0.445 OA
BRANCH  11  12
ATOM     12  C   UNL     1       3.737  -7.207  10.221  0.00  0.00    +0.269 C 
BRANCH  12  13
ATOM     13  C   UNL     1       3.383  -7.924  11.499  0.00  0.00    -0.010 A 
ATOM     14  C   UNL     1       2.157  -7.704  12.097  0.00  0.00    +0.007 A 
ATOM     15  C   UNL     1       1.832  -8.362  13.269  0.00  0.00    +0.000 A 
ATOM     16  C   UNL     1       2.733  -9.239  13.842  0.00  0.00    +0.000 A 
ATOM     17  C   UNL     1       3.960  -9.459  13.243  0.00  0.00    +0.000 A 
ATOM     18  C   UNL     1       4.283  -8.805  12.069  0.00  0.00    +0.007 A 
ENDBRANCH  12  13
ENDBRANCH  11  12
ENDBRANCH   9  11
ENDBRANCH   2   4
BRANCH   1  19
ATOM     19  C   UNL     1       4.281  -5.856   3.518  0.00  0.00    +0.037 A 
ATOM     20  C   UNL     1       4.332  -6.805   2.505  0.00  0.00    +0.023 A 
ATOM     21  C   UNL     1       5.522  -7.050   1.848  0.00  0.00    +0.002 A 
ATOM     22  C   UNL     1       6.662  -6.350   2.197  0.00  0.00    +0.000 A 
ATOM     23  C   UNL     1       6.615  -5.404   3.204  0.00  0.00    +0.002 A 
ATOM     24  C   UNL     1       5.427  -5.151   3.862  0.00  0.00    +0.023 A 
ENDBRANCH   1  19
BRANCH   1  25
ATOM     25  C   UNL     1       2.285  -4.420   3.848  0.00  0.00    +0.197 C 
BRANCH  25  26
ATOM     26  C   UNL     1       3.047  -3.570   2.864  0.00  0.00    -0.018 A 
ATOM     27  C   UNL     1       3.442  -4.105   1.651  0.00  0.00    +0.009 A 
ATOM     28  C   UNL     1       4.141  -3.328   0.748  0.00  0.00    +0.046 A 
ATOM     29  C   UNL     1       4.446  -2.010   1.058  0.00  0.00    +0.117 A 
ATOM     30  C   UNL     1       4.048  -1.476   2.275  0.00  0.00    +0.046 A 
ATOM     31  C   UNL     1       3.345  -2.256   3.173  0.00  0.00    +0.009 A 
BRANCH  29  32
ATOM     32  O   UNL     1       5.134  -1.244   0.171  0.00  0.00    -0.507 OA
ATOM     33  H   UNL     1       4.572  -0.761  -0.450  0.00  0.00    +0.292 HD
ENDBRANCH  29  32
ENDBRANCH  25  26
BRANCH  25  35
ATOM     34  N   UNL     1       0.081  -3.921   2.843  0.00  0.00    -0.313 N 
ATOM     35  C   UNL     1       0.977  -4.848   3.234  0.00  0.00    +0.238 C 
ATOM     36  O   UNL     1       0.730  -6.027   3.093  0.00  0.00    -0.273 OA
ATOM     37  H   UNL     1       0.278  -2.978   2.956  0.00  0.00    +0.149 HD
BRANCH  34  38
ATOM     38  C   UNL     1      -1.191  -4.337   2.246  0.00  0.00    +0.104 C 
BRANCH  38  39
ATOM     39  C   UNL     1      -2.018  -3.099   1.894  0.00  0.00    +0.018 C 
BRANCH  39  41
ATOM     40  C   UNL     1      -4.174  -2.295   0.919  0.00  0.00    +0.004 C 
ATOM     41  C   UNL     1      -3.346  -3.533   1.271  0.00  0.00    -0.002 C 
ENDBRANCH  39  41
ENDBRANCH  38  39
ENDBRANCH  34  38
ENDBRANCH  25  35
ENDBRANCH   1  25
TORSDOF 12
