REMARK  Name = ZINC09008440
REMARK  17 active torsions:
REMARK  status: ('A' for Active; 'I' for Inactive)
REMARK    1  A    between atoms: C_1  and  C_2
REMARK    2  A    between atoms: C_2  and  N_69
REMARK    3  A    between atoms: C_3  and  C_4
REMARK    4  A    between atoms: C_3  and  N_69
REMARK    5  A    between atoms: C_5  and  C_6
REMARK    6  A    between atoms: C_5  and  N_69
REMARK    7  A    between atoms: C_6  and  N_7
REMARK    8  A    between atoms: C_8  and  C_26
REMARK    9  A    between atoms: C_11  and  C_12
REMARK   10  A    between atoms: C_11  and  O_21
REMARK   11  A    between atoms: C_15  and  O_18
REMARK   12  A    between atoms: O_18  and  C_19
REMARK   13  A    between atoms: C_19  and  C_20
REMARK   14  A    between atoms: C_29  and  O_34
REMARK   15  A    between atoms: C_30  and  O_32
REMARK   16  A    between atoms: O_32  and  C_33
REMARK   17  A    between atoms: O_34  and  C_35
REMARK                            x       y       z     vdW  Elec       q    Type
REMARK                         _______ _______ _______ _____ _____    ______ ____
ROOT
ATOM      1  N   UNL     1       0.280  -0.369  -0.956  0.00  0.00    -0.285 N 
ATOM      2  C   UNL     1      -0.276  -0.235  -2.306  0.00  0.00    +0.144 C 
ATOM      3  C   UNL     1       0.725  -0.861  -3.249  0.00  0.00    +0.071 C 
ATOM      4  C   UNL     1       0.620  -0.960  -4.623  0.00  0.00    +0.133 C 
ATOM      5  C   UNL     1       1.778  -1.327  -2.449  0.00  0.00    +0.249 C 
ATOM      6  O   UNL     1       2.778  -1.898  -2.845  0.00  0.00    -0.282 OA
ATOM      7  C   UNL     1       1.463  -1.001  -1.032  0.00  0.00    +0.288 C 
ATOM      8  O   UNL     1       2.172  -1.267  -0.082  0.00  0.00    -0.266 OA
ENDROOT
BRANCH   4   9
ATOM      9  C   UNL     1       1.751  -1.474  -5.412  0.00  0.00    +0.017 A 
ATOM     10  C   UNL     1       3.016  -0.886  -5.292  0.00  0.00    +0.015 A 
ATOM     11  C   UNL     1       4.072  -1.375  -6.027  0.00  0.00    +0.046 A 
ATOM     12  C   UNL     1       3.881  -2.442  -6.897  0.00  0.00    +0.121 A 
ATOM     13  C   UNL     1       2.624  -3.026  -7.025  0.00  0.00    +0.046 A 
ATOM     14  C   UNL     1       1.564  -2.549  -6.290  0.00  0.00    +0.015 A 
BRANCH  12  15
ATOM     15  O   UNL     1       4.923  -2.917  -7.625  0.00  0.00    -0.492 OA
BRANCH  15  16
ATOM     16  C   UNL     1       6.186  -2.272  -7.446  0.00  0.00    +0.225 C 
ATOM     17  C   UNL     1       7.231  -2.939  -8.342  0.00  0.00    +0.048 C 
ENDBRANCH  15  16
ENDBRANCH  12  15
ENDBRANCH   4   9
BRANCH   2  18
ATOM     18  C   UNL     1      -1.596  -0.957  -2.394  0.00  0.00    -0.019 A 
ATOM     19  C   UNL     1      -1.756  -2.180  -1.769  0.00  0.00    +0.009 A 
ATOM     20  C   UNL     1      -2.965  -2.846  -1.847  0.00  0.00    +0.050 A 
ATOM     21  C   UNL     1      -4.019  -2.288  -2.553  0.00  0.00    +0.162 A 
ATOM     22  C   UNL     1      -3.857  -1.057  -3.182  0.00  0.00    +0.162 A 
ATOM     23  C   UNL     1      -2.645  -0.393  -3.095  0.00  0.00    +0.055 A 
BRANCH  22  24
ATOM     24  O   UNL     1      -4.889  -0.506  -3.876  0.00  0.00    -0.491 OA
ATOM     25  C   UNL     1      -4.651   0.759  -4.496  0.00  0.00    +0.277 C 
ENDBRANCH  22  24
BRANCH  21  26
ATOM     26  O   UNL     1      -5.209  -2.942  -2.630  0.00  0.00    -0.491 OA
ATOM     27  C   UNL     1      -5.303  -4.200  -1.960  0.00  0.00    +0.277 C 
ENDBRANCH  21  26
ENDBRANCH   2  18
BRANCH   4  28
ATOM     28  O   UNL     1      -0.519  -0.585  -5.243  0.00  0.00    -0.506 OA
ATOM     29  H   UNL     1      -0.424  -0.721  -6.229  0.00  0.00    +0.292 HD
ENDBRANCH   4  28
BRANCH   1  30
ATOM     30  C   UNL     1      -0.355   0.104   0.277  0.00  0.00    +0.090 C 
BRANCH  30  31
ATOM     31  C   UNL     1       0.093   1.539   0.563  0.00  0.00    -0.060 C 
BRANCH  31  32
ATOM     32  N   UNL     1      -0.664   2.049   1.725  0.00  0.00    +0.380 N 
ATOM     33  H   UNL     1      -1.645   1.756   1.639  0.00  0.00    -0.082 HD
BRANCH  32  35
ATOM     34  C   UNL     1      -1.036   1.853   4.135  0.00  0.00    -0.017 C 
ATOM     35  C   UNL     1      -0.105   1.493   2.975  0.00  0.00    -0.082 C 
ENDBRANCH  32  35
BRANCH  32  36
ATOM     36  C   UNL     1      -0.606   3.526   1.758  0.00  0.00    -0.082 C 
ATOM     37  C   UNL     1      -1.582   4.078   0.718  0.00  0.00    -0.017 C 
ENDBRANCH  32  36
ENDBRANCH  31  32
ENDBRANCH  30  31
ENDBRANCH   1  30
TORSDOF 12
