REMARK  Name = ZINC21425083
REMARK  9 active torsions:
REMARK  status: ('A' for Active; 'I' for Inactive)
REMARK    1  A    between atoms: C_1  and  C_2
REMARK    2  A    between atoms: C_2  and  C_4
REMARK    3  A    between atoms: C_2  and  N_14
REMARK    4  A    between atoms: C_15  and  C_17
REMARK    5  A    between atoms: C_17  and  S_18
REMARK    6  A    between atoms: S_18  and  C_19
REMARK    7  A    between atoms: C_20  and  C_28
REMARK    8  A    between atoms: C_22  and  C_26
REMARK    9  A    between atoms: C_23  and  N_25
REMARK                            x       y       z     vdW  Elec       q    Type
REMARK                         _______ _______ _______ _____ _____    ______ ____
ROOT
ATOM      1  N   UNL     1      -2.998   8.072   0.071  0.00  0.00    -0.312 N 
ATOM      2  C   UNL     1      -3.233   6.745   0.067  0.00  0.00    +0.223 C 
ATOM      3  O   UNL     1      -4.373   6.330   0.075  0.00  0.00    -0.275 OA
ATOM      4  H   UNL     1      -1.964   8.447   0.063  0.00  0.00    +0.149 HD
ENDROOT
BRANCH   1   6
ATOM      5  C   UNL     1      -4.578   9.239   1.529  0.00  0.00    +0.028 C 
ATOM      6  C   UNL     1      -4.120   9.014   0.086  0.00  0.00    +0.076 C 
BRANCH   6   7
ATOM      7  C   UNL     1      -3.675  10.346  -0.521  0.00  0.00    -0.010 C 
ATOM      8  C   UNL     1      -3.217  10.121  -1.963  0.00  0.00    +0.012 C 
ATOM      9  C   UNL     1      -2.772  11.454  -2.571  0.00  0.00    -0.010 C 
ATOM     10  C   UNL     1      -3.944  12.438  -2.555  0.00  0.00    +0.007 C 
ATOM     11  C   UNL     1      -4.402  12.662  -1.112  0.00  0.00    -0.010 C 
ATOM     12  C   UNL     1      -4.846  11.330  -0.505  0.00  0.00    +0.012 C 
ATOM     13  C   UNL     1      -3.244  13.235  -0.293  0.00  0.00    +0.007 C 
ATOM     14  C   UNL     1      -2.072  12.251  -0.308  0.00  0.00    -0.010 C 
ATOM     15  C   UNL     1      -1.614  12.026  -1.751  0.00  0.00    +0.007 C 
ATOM     16  C   UNL     1      -2.517  10.919   0.299  0.00  0.00    +0.012 C 
ENDBRANCH   6   7
ENDBRANCH   1   6
BRANCH   2  17
ATOM     17  C   UNL     1      -2.079   5.775   0.051  0.00  0.00    +0.171 C 
BRANCH  17  18
ATOM     18  S   UNL     1      -2.715   4.081   0.048  0.00  0.00    -0.095 S 
BRANCH  18  19
ATOM     19  C   UNL     1      -1.198   3.185   0.030  0.00  0.00    +0.117 A 
ATOM     20  C   UNL     1      -1.221   1.775   0.017  0.00  0.00    +0.085 A 
ATOM     21  C   UNL     1      -0.013   1.076   0.008  0.00  0.00    +0.043 A 
ATOM     22  C   UNL     1       1.177   1.808   0.001  0.00  0.00    +0.092 A 
ATOM     23  C   UNL     1       1.116   3.216   0.008  0.00  0.00    +0.135 A 
ATOM     24  N   UNL     1      -0.049   3.844   0.022  0.00  0.00    -0.224 NA
BRANCH  23  25
ATOM     25  N   UNL     1       2.285   3.949   0.001  0.00  0.00    -0.342 N 
ATOM     26  H   UNL     1       2.245   5.048   0.007  0.00  0.00    +0.144 HD
ATOM     27  H   UNL     1       3.257   3.434  -0.010  0.00  0.00    +0.144 HD
ENDBRANCH  23  25
BRANCH  22  28
ATOM     28  C   UNL     1       2.442   1.137  -0.014  0.00  0.00    +0.103 C 
ATOM     29  N   UNL     1       3.446   0.605  -0.026  0.00  0.00    -0.191 NA
ENDBRANCH  22  28
BRANCH  20  30
ATOM     30  C   UNL     1      -2.468   1.070   0.020  0.00  0.00    +0.102 C 
ATOM     31  N   UNL     1      -3.456   0.511   0.022  0.00  0.00    -0.191 NA
ENDBRANCH  20  30
ENDBRANCH  18  19
ENDBRANCH  17  18
ENDBRANCH   2  17
TORSDOF 8
