REMARK  Name = ZINC14060019
REMARK  10 active torsions:
REMARK  status: ('A' for Active; 'I' for Inactive)
REMARK    1  A    between atoms: C_1  and  O_2
REMARK    2  A    between atoms: O_2  and  C_3
REMARK    3  A    between atoms: C_3  and  C_4
REMARK    4  A    between atoms: C_4  and  N_5
REMARK    5  A    between atoms: C_9  and  S_27
REMARK    6  A    between atoms: N_14  and  C_15
REMARK    7  A    between atoms: C_15  and  C_17
REMARK    8  A    between atoms: C_22  and  S_23
REMARK    9  A    between atoms: S_23  and  C_26
REMARK   10  A    between atoms: S_27  and  N_30
REMARK                            x       y       z     vdW  Elec       q    Type
REMARK                         _______ _______ _______ _____ _____    ______ ____
ROOT
ATOM      1  N   UNL     1      -1.109   2.232   0.035  0.00  0.00    -0.319 N 
ATOM      2  C   UNL     1      -0.019   1.382   0.066  0.00  0.00    +0.058 A 
ATOM      3  C   UNL     1      -0.011  -0.022   0.090  0.00  0.00    +0.029 A 
ATOM      4  C   UNL     1       1.174  -0.718   0.115  0.00  0.00    +0.030 A 
ATOM      5  C   UNL     1       2.393  -0.060   0.117  0.00  0.00    +0.106 A 
ATOM      6  C   UNL     1       2.414   1.324   0.093  0.00  0.00    +0.045 A 
ATOM      7  C   UNL     1       1.229   2.020   0.069  0.00  0.00    +0.041 A 
ATOM      8  S   UNL     1       0.805   3.744   0.035  0.00  0.00    -0.052 S 
ATOM      9  C   UNL     1      -0.921   3.579   0.018  0.00  0.00    +0.167 A 
ATOM     10  N   UNL     1      -1.840   4.539  -0.008  0.00  0.00    -0.152 NA
ENDROOT
BRANCH   5  11
ATOM     11  S   UNL     1       3.899  -0.973   0.149  0.00  0.00    +0.056 S 
ATOM     12  O   UNL     1       4.886  -0.110   0.695  0.00  0.00    -0.153 OA
ATOM     13  O   UNL     1       3.594  -2.239   0.719  0.00  0.00    -0.153 OA
BRANCH  11  14
ATOM     14  N   UNL     1       4.335  -1.255  -1.424  0.00  0.00    -0.204 NA
ATOM     15  H   UNL     1       3.779  -0.926  -2.147  0.00  0.00    +0.144 HD
ATOM     16  H   UNL     1       5.146  -1.750  -1.621  0.00  0.00    +0.144 HD
ENDBRANCH  11  14
ENDBRANCH   5  11
BRANCH  10  17
ATOM     17  C   UNL     1      -1.466   5.822  -0.026  0.00  0.00    +0.271 C 
ATOM     18  O   UNL     1      -0.282   6.112  -0.017  0.00  0.00    -0.268 OA
BRANCH  17  19
ATOM     19  C   UNL     1      -2.490   6.892  -0.055  0.00  0.00    +0.064 A 
ATOM     20  C   UNL     1      -3.846   6.563  -0.065  0.00  0.00    +0.015 A 
ATOM     21  C   UNL     1      -4.795   7.564  -0.092  0.00  0.00    +0.001 A 
ATOM     22  C   UNL     1      -4.405   8.892  -0.109  0.00  0.00    +0.002 A 
ATOM     23  C   UNL     1      -3.062   9.224  -0.100  0.00  0.00    +0.028 A 
ATOM     24  C   UNL     1      -2.103   8.232  -0.068  0.00  0.00    +0.100 A 
BRANCH  24  25
ATOM     25  S   UNL     1      -0.393   8.657  -0.049  0.00  0.00    -0.005 S 
ATOM     26  O   UNL     1       0.182   7.891  -1.099  0.00  0.00    -0.170 OA
ATOM     27  O   UNL     1      -0.372  10.077  -0.092  0.00  0.00    -0.170 OA
ATOM     28  C   UNL     1       0.215   8.072   1.557  0.00  0.00    +0.200 C 
ENDBRANCH  24  25
ENDBRANCH  17  19
ENDBRANCH  10  17
BRANCH   1  29
ATOM     29  C   UNL     1      -2.466   1.682   0.023  0.00  0.00    +0.152 C 
BRANCH  29  30
ATOM     30  C   UNL     1      -3.386   2.575   0.859  0.00  0.00    +0.181 C 
BRANCH  30  32
ATOM     31  C   UNL     1      -5.616   2.726   1.724  0.00  0.00    +0.194 C 
ATOM     32  O   UNL     1      -4.676   1.969   0.959  0.00  0.00    -0.381 OA
ENDBRANCH  30  32
ENDBRANCH  29  30
ENDBRANCH   1  29
TORSDOF 8
