REMARK  Name = ZINC36546467
REMARK  10 active torsions:
REMARK  status: ('A' for Active; 'I' for Inactive)
REMARK    1  A    between atoms: C_1  and  C_2
REMARK    2  A    between atoms: C_3  and  C_4
REMARK    3  A    between atoms: C_4  and  C_6
REMARK    4  A    between atoms: C_4  and  N_15
REMARK    5  A    between atoms: N_8  and  C_9
REMARK    6  A    between atoms: N_15  and  C_16
REMARK    7  A    between atoms: C_23  and  C_25
REMARK    8  A    between atoms: C_25  and  C_26
REMARK    9  A    between atoms: C_25  and  C_32
REMARK   10  A    between atoms: C_25  and  O_38
REMARK                            x       y       z     vdW  Elec       q    Type
REMARK                         _______ _______ _______ _____ _____    ______ ____
ROOT
ATOM      1  N   UNL     1       0.675   1.142  -1.658  0.00  0.00    -0.252 N 
ATOM      2  C   UNL     1       1.302   2.273  -2.034  0.00  0.00    +0.262 C 
ATOM      3  O   UNL     1       2.414   2.219  -2.516  0.00  0.00    -0.271 OA
ENDROOT
BRANCH   1   4
ATOM      4  C   UNL     1      -0.643   1.195  -1.189  0.00  0.00    +0.056 A 
ATOM      5  C   UNL     1      -0.895   1.460   0.150  0.00  0.00    +0.025 A 
ATOM      6  C   UNL     1      -2.197   1.511   0.610  0.00  0.00    +0.002 A 
ATOM      7  C   UNL     1      -3.249   1.299  -0.263  0.00  0.00    +0.002 A 
ATOM      8  C   UNL     1      -3.002   1.034  -1.597  0.00  0.00    +0.022 A 
ATOM      9  C   UNL     1      -1.702   0.988  -2.065  0.00  0.00    +0.062 A 
ATOM     10 CL   UNL     1      -1.393   0.663  -3.742  0.00  0.00    -0.082 Cl
ENDBRANCH   1   4
BRANCH   1  11
ATOM     11  C   UNL     1       1.372  -0.144  -1.739  0.00  0.00    +0.190 C 
BRANCH  11  12
ATOM     12  C   UNL     1       2.551  -0.137  -0.800  0.00  0.00    +0.238 C 
ATOM     13  O   UNL     1       2.866   0.887  -0.231  0.00  0.00    -0.273 OA
ATOM     14  N   UNL     1       3.255  -1.267  -0.593  0.00  0.00    -0.311 N 
ATOM     15  H   UNL     1       3.002  -2.086  -1.048  0.00  0.00    +0.149 HD
BRANCH  14  16
ATOM     16  C   UNL     1       4.400  -1.260   0.320  0.00  0.00    +0.073 C 
ATOM     17  C   UNL     1       5.649  -0.795  -0.432  0.00  0.00    +0.022 C 
ATOM     18  C   UNL     1       6.846  -0.787   0.521  0.00  0.00    +0.002 C 
ATOM     19  C   UNL     1       7.074  -2.199   1.064  0.00  0.00    +0.000 C 
ATOM     20  C   UNL     1       5.825  -2.664   1.817  0.00  0.00    +0.002 C 
ATOM     21  C   UNL     1       4.628  -2.672   0.864  0.00  0.00    +0.022 C 
ENDBRANCH  14  16
ENDBRANCH  11  12
BRANCH  11  24
ATOM     22  C   UNL     1       0.568  -2.441  -3.159  0.00  0.00    +0.035 C 
ATOM     23  C   UNL     1       1.493  -1.441  -3.804  0.00  0.00    -0.032 C 
ATOM     24  C   UNL     1       1.855  -0.366  -3.150  0.00  0.00    +0.000 C 
ENDBRANCH  11  24
ENDBRANCH   1  11
BRANCH   2  25
ATOM     25  C   UNL     1       0.622   3.607  -1.858  0.00  0.00    +0.193 C 
BRANCH  25  26
ATOM     26  C   UNL     1       0.740   4.044  -0.420  0.00  0.00    -0.003 A 
ATOM     27  C   UNL     1       1.893   3.771   0.292  0.00  0.00    +0.007 A 
ATOM     28  C   UNL     1       2.002   4.173   1.611  0.00  0.00    +0.000 A 
ATOM     29  C   UNL     1       0.958   4.847   2.216  0.00  0.00    +0.000 A 
ATOM     30  C   UNL     1      -0.194   5.121   1.503  0.00  0.00    +0.000 A 
ATOM     31  C   UNL     1      -0.301   4.723   0.183  0.00  0.00    +0.007 A 
ENDBRANCH  25  26
BRANCH  25  32
ATOM     32  C   UNL     1       1.279   4.628  -2.750  0.00  0.00    -0.003 A 
ATOM     33  C   UNL     1       2.444   5.252  -2.344  0.00  0.00    +0.007 A 
ATOM     34  C   UNL     1       3.047   6.189  -3.163  0.00  0.00    +0.000 A 
ATOM     35  C   UNL     1       2.485   6.502  -4.386  0.00  0.00    +0.000 A 
ATOM     36  C   UNL     1       1.320   5.877  -4.792  0.00  0.00    +0.000 A 
ATOM     37  C   UNL     1       0.720   4.937  -3.975  0.00  0.00    +0.007 A 
ENDBRANCH  25  32
BRANCH  25  38
ATOM     38  O   UNL     1      -0.758   3.487  -2.207  0.00  0.00    -0.371 OA
ATOM     39  H   UNL     1      -0.910   3.208  -3.120  0.00  0.00    +0.212 HD
ENDBRANCH  25  38
ENDBRANCH   2  25
TORSDOF 9
