REMARK  Name = ZINC49978465
REMARK  9 active torsions:
REMARK  status: ('A' for Active; 'I' for Inactive)
REMARK    1  A    between atoms: C_1  and  C_2
REMARK    2  A    between atoms: N_4  and  C_5
REMARK    3  A    between atoms: C_5  and  C_6
REMARK    4  A    between atoms: N_8  and  C_9
REMARK    5  A    between atoms: C_9  and  C_10
REMARK    6  A    between atoms: N_12  and  C_13
REMARK    7  A    between atoms: C_13  and  C_14
REMARK    8  A    between atoms: C_14  and  C_16
REMARK    9  A    between atoms: C_14  and  N_24
REMARK                            x       y       z     vdW  Elec       q    Type
REMARK                         _______ _______ _______ _____ _____    ______ ____
ROOT
ATOM      1  C   UNL     1      -5.269  -8.182   0.013  0.00  0.00    +0.093 C 
ENDROOT
BRANCH   1   4
ATOM      2  C   UNL     1      -3.267  -8.426  -1.354  0.00  0.00    +0.230 C 
ATOM      3  O   UNL     1      -2.693  -7.673  -0.596  0.00  0.00    -0.274 OA
ATOM      4  N   UNL     1      -4.558  -8.745  -1.138  0.00  0.00    -0.315 N 
ATOM      5  H   UNL     1      -5.017  -9.348  -1.744  0.00  0.00    +0.149 HD
BRANCH   2   6
ATOM      6  C   UNL     1      -2.535  -9.005  -2.538  0.00  0.00    +0.200 C 
BRANCH   6   9
ATOM      7  C   UNL     1      -0.311  -8.896  -3.526  0.00  0.00    +0.231 C 
ATOM      8  O   UNL     1      -0.691  -9.655  -4.393  0.00  0.00    -0.274 OA
ATOM      9  N   UNL     1      -1.157  -8.509  -2.551  0.00  0.00    -0.305 N 
ATOM     10  H   UNL     1      -0.854  -7.902  -1.859  0.00  0.00    +0.149 HD
BRANCH   7  11
ATOM     11  C   UNL     1       1.107  -8.385  -3.540  0.00  0.00    +0.200 C 
BRANCH  11  15
ATOM     12  C   UNL     1       3.840  -9.208  -6.091  0.00  0.00    +0.109 C 
ATOM     13  C   UNL     1       3.109  -8.629  -4.907  0.00  0.00    +0.210 C 
ATOM     14  O   UNL     1       3.683  -7.876  -4.149  0.00  0.00    -0.276 OA
ATOM     15  N   UNL     1       1.817  -8.948  -4.691  0.00  0.00    -0.307 N 
ATOM     16  H   UNL     1       1.359  -9.550  -5.297  0.00  0.00    +0.149 HD
ENDBRANCH  11  15
ENDBRANCH   7  11
ENDBRANCH   6   9
ENDBRANCH   2   6
ENDBRANCH   1   4
BRANCH   1  17
ATOM     17  C   UNL     1      -6.739  -8.601  -0.041  0.00  0.00    -0.016 C 
BRANCH  17  18
ATOM     18  C   UNL     1      -6.843 -10.095   0.131  0.00  0.00    -0.006 A 
ATOM     19  C   UNL     1      -6.668 -10.661   1.383  0.00  0.00    +0.126 A 
ATOM     20  C   UNL     1      -6.764 -12.034   1.540  0.00  0.00    +0.038 A 
ATOM     21  C   UNL     1      -7.033 -12.837   0.448  0.00  0.00    +0.004 A 
ATOM     22  C   UNL     1      -7.207 -12.272  -0.801  0.00  0.00    +0.020 A 
ATOM     23  C   UNL     1      -7.117 -10.900  -0.959  0.00  0.00    +0.045 A 
ATOM     24 CL   UNL     1      -7.343 -10.190  -2.527  0.00  0.00    -0.083 Cl
ATOM     25  F   UNL     1      -6.405  -9.876   2.450  0.00  0.00    -0.205 F 
ENDBRANCH  17  18
BRANCH  17  26
ATOM     26  N   UNL     1      -7.479  -7.932   1.037  0.00  0.00    +0.385 N 
ATOM     27  C   UNL     1      -7.570  -6.474   0.767  0.00  0.00    -0.078 C 
ATOM     28  C   UNL     1      -8.789  -6.032   1.614  0.00  0.00    -0.020 C 
ATOM     29  C   UNL     1      -9.761  -7.225   1.470  0.00  0.00    -0.020 C 
ATOM     30  C   UNL     1      -8.874  -8.421   1.079  0.00  0.00    -0.078 C 
ATOM     31  H   UNL     1      -7.026  -8.095   1.924  0.00  0.00    -0.081 HD
ENDBRANCH  17  26
ENDBRANCH   1  17
TORSDOF 8
