REMARK  Name = ZINC66348595
REMARK  4 active torsions:
REMARK  status: ('A' for Active; 'I' for Inactive)
REMARK    1  A    between atoms: C_6  and  C_7
REMARK    2  A    between atoms: C_7  and  C_9
REMARK    3  A    between atoms: C_7  and  O_25
REMARK    4  A    between atoms: C_9  and  N_10
REMARK                            x       y       z     vdW  Elec       q    Type
REMARK                         _______ _______ _______ _____ _____    ______ ____
ROOT
ATOM      1  N   UNL     1      -2.932  -1.888  -1.423  0.00  0.00    -0.221 N 
ATOM      2  C   UNL     1      -3.134  -3.205  -1.210  0.00  0.00    +0.251 C 
ATOM      3  O   UNL     1      -2.294  -4.049  -0.980  0.00  0.00    -0.272 OA
ATOM      4  C   UNL     1      -4.626  -3.405  -1.318  0.00  0.00    +0.139 C 
ATOM      5  C   UNL     1      -4.966  -4.381  -2.435  0.00  0.00    +0.040 C 
ATOM      6  C   UNL     1      -6.463  -4.706  -2.415  0.00  0.00    +0.008 C 
ATOM      7  C   UNL     1      -6.775  -5.534  -1.159  0.00  0.00    +0.043 C 
ATOM      8  C   UNL     1      -6.143  -4.868   0.019  0.00  0.00    -0.005 A 
ATOM      9  C   UNL     1      -5.177  -3.907   0.006  0.00  0.00    -0.005 A 
ATOM     10  C   UNL     1      -4.751  -3.437   1.248  0.00  0.00    +0.014 A 
ATOM     11  C   UNL     1      -5.291  -3.936   2.383  0.00  0.00    +0.046 A 
ATOM     12  S   UNL     1      -6.459  -5.127   1.743  0.00  0.00    -0.101 S 
ATOM     13  N   UNL     1      -5.150  -2.067  -1.606  0.00  0.00    -0.281 N 
ATOM     14  C   UNL     1      -4.085  -1.243  -1.643  0.00  0.00    +0.310 C 
ATOM     15  O   UNL     1      -4.161  -0.048  -1.856  0.00  0.00    -0.252 OA
ATOM     16  H   UNL     1      -6.079  -1.823  -1.739  0.00  0.00    +0.152 HD
ENDROOT
BRANCH   1  17
ATOM     17  C   UNL     1      -1.617  -1.243  -1.410  0.00  0.00    +0.154 C 
BRANCH  17  18
ATOM     18  C   UNL     1      -1.293  -0.775   0.010  0.00  0.00    +0.162 C 
BRANCH  18  24
ATOM     19  C   UNL     1      -0.017   1.378   0.010  0.00  0.00    +0.009 A 
ATOM     20  C   UNL     1       1.170   2.086   0.002  0.00  0.00    +0.039 A 
ATOM     21  C   UNL     1       2.379   1.410  -0.013  0.00  0.00    +0.123 A 
ATOM     22  C   UNL     1       2.396   0.026  -0.021  0.00  0.00    +0.039 A 
ATOM     23  C   UNL     1       1.208  -0.680  -0.013  0.00  0.00    +0.009 A 
ATOM     24  C   UNL     1       0.002  -0.004   0.002  0.00  0.00    -0.017 A 
ATOM     25  F   UNL     1       3.540   2.101  -0.021  0.00  0.00    -0.205 F 
ENDBRANCH  18  24
BRANCH  18  26
ATOM     26  O   UNL     1      -1.166  -1.910   0.869  0.00  0.00    -0.386 OA
ATOM     27  H   UNL     1      -0.469  -2.526   0.606  0.00  0.00    +0.210 HD
ENDBRANCH  18  26
ENDBRANCH  17  18
ENDBRANCH   1  17
TORSDOF 4
