REMARK  Name = ZINC14017115
REMARK  8 active torsions:
REMARK  status: ('A' for Active; 'I' for Inactive)
REMARK    1  A    between atoms: C_1  and  C_2
REMARK    2  A    between atoms: C_2  and  O_3
REMARK    3  A    between atoms: O_3  and  C_4
REMARK    4  A    between atoms: C_4  and  C_6
REMARK    5  A    between atoms: C_10  and  N_11
REMARK    6  A    between atoms: C_12  and  C_14
REMARK    7  A    between atoms: N_19  and  S_21
REMARK    8  A    between atoms: S_21  and  C_24
REMARK                            x       y       z     vdW  Elec       q    Type
REMARK                         _______ _______ _______ _____ _____    ______ ____
ROOT
ATOM      1  N   UNL     1      -1.475   3.382   5.621  0.00  0.00    -0.279 N 
ATOM      2  C   UNL     1      -1.295   3.998   4.436  0.00  0.00    +0.222 C 
ATOM      3  O   UNL     1      -2.119   4.790   4.032  0.00  0.00    -0.275 OA
ATOM      4  H   UNL     1      -0.815   2.749   5.944  0.00  0.00    +0.155 HD
ENDROOT
BRANCH   1   9
ATOM      5  C   UNL     1      -2.963   3.128   7.610  0.00  0.00    +0.091 A 
ATOM      6  C   UNL     1      -4.212   3.587   8.205  0.00  0.00    -0.021 A 
ATOM      7  C   UNL     1      -4.897   4.485   7.467  0.00  0.00    -0.004 A 
ATOM      8  S   UNL     1      -3.904   4.741   6.021  0.00  0.00    -0.077 S 
ATOM      9  C   UNL     1      -2.603   3.655   6.379  0.00  0.00    +0.086 A 
ATOM     10  C   UNL     1      -6.208   5.129   7.793  0.00  0.00    +0.043 C 
ATOM     11  C   UNL     1      -6.161   5.676   9.226  0.00  0.00    +0.005 C 
ATOM     12  C   UNL     1      -6.628   4.579  10.178  0.00  0.00    +0.001 C 
ATOM     13  C   UNL     1      -6.216   3.209   9.643  0.00  0.00    +0.005 C 
ATOM     14  C   UNL     1      -4.697   3.101   9.565  0.00  0.00    +0.037 C 
BRANCH   5  15
ATOM     15  C   UNL     1      -2.116   2.145   8.290  0.00  0.00    +0.342 C 
ATOM     16  O   UNL     1      -1.248   2.517   9.056  0.00  0.00    -0.245 OA
BRANCH  15  17
ATOM     17  O   UNL     1      -2.300   0.828   8.067  0.00  0.00    -0.461 OA
BRANCH  17  19
ATOM     18  C   UNL     1      -1.780  -1.528   8.397  0.00  0.00    +0.048 C 
ATOM     19  C   UNL     1      -1.424  -0.089   8.775  0.00  0.00    +0.229 C 
ENDBRANCH  17  19
ENDBRANCH  15  17
ENDBRANCH   5  15
ENDBRANCH   1   9
BRANCH   2  20
ATOM     20  C   UNL     1      -0.068   3.702   3.612  0.00  0.00    +0.091 C 
ATOM     21  C   UNL     1       1.185   4.066   4.412  0.00  0.00    +0.015 C 
ATOM     22  C   UNL     1       2.432   3.735   3.589  0.00  0.00    +0.018 C 
ATOM     23  C   UNL     1       2.423   4.564   2.300  0.00  0.00    +0.109 C 
ATOM     24  N   UNL     1       1.155   4.329   1.596  0.00  0.00    -0.176 NA
ATOM     25  C   UNL     1      -0.105   4.535   2.322  0.00  0.00    +0.122 C 
BRANCH  24  26
ATOM     26  S   UNL     1       1.147   3.847   0.011  0.00  0.00    +0.061 S 
ATOM     27  O   UNL     1       2.382   4.273  -0.549  0.00  0.00    -0.153 OA
ATOM     28  O   UNL     1      -0.109   4.239  -0.526  0.00  0.00    -0.153 OA
BRANCH  26  29
ATOM     29  C   UNL     1       1.171   2.086   0.002  0.00  0.00    +0.105 A 
ATOM     30  C   UNL     1      -0.017   1.378   0.010  0.00  0.00    +0.028 A 
ATOM     31  C   UNL     1       0.002  -0.004   0.002  0.00  0.00    +0.002 A 
ATOM     32  C   UNL     1       1.208  -0.679  -0.014  0.00  0.00    +0.000 A 
ATOM     33  C   UNL     1       2.396   0.029  -0.021  0.00  0.00    +0.002 A 
ATOM     34  C   UNL     1       2.377   1.411  -0.014  0.00  0.00    +0.028 A 
ENDBRANCH  26  29
ENDBRANCH  24  26
ENDBRANCH   2  20
TORSDOF 7
