REMARK  Name = ZINC43874706
REMARK  9 active torsions:
REMARK  status: ('A' for Active; 'I' for Inactive)
REMARK    1  A    between atoms: C_1  and  C_2
REMARK    2  A    between atoms: C_2  and  C_4
REMARK    3  A    between atoms: C_2  and  S_15
REMARK    4  A    between atoms: C_6  and  C_9
REMARK    5  A    between atoms: S_15  and  C_16
REMARK    6  A    between atoms: C_19  and  C_22
REMARK    7  A    between atoms: N_20  and  N_21
REMARK    8  A    between atoms: C_22  and  O_23
REMARK    9  A    between atoms: O_23  and  C_24
REMARK                            x       y       z     vdW  Elec       q    Type
REMARK                         _______ _______ _______ _____ _____    ______ ____
ROOT
ATOM      1  C   UNL     1      -2.365  -0.093  -1.525  0.00  0.00    +0.209 A 
ATOM      2  N   UNL     1      -1.736   0.597  -2.448  0.00  0.00    -0.121 NA
ATOM      3  N   UNL     1      -2.522   0.816  -3.441  0.00  0.00    -0.128 NA
ATOM      4  C   UNL     1      -3.689   0.283  -3.213  0.00  0.00    +0.189 A 
ATOM      5  N   UNL     1      -3.629  -0.320  -1.988  0.00  0.00    -0.225 N 
ENDROOT
BRANCH   5   6
ATOM      6  N   UNL     1      -4.628  -1.006  -1.356  0.00  0.00    -0.295 N 
ATOM      7  H   UNL     1      -5.184  -0.388  -0.784  0.00  0.00    +0.163 HD
ATOM      8  H   UNL     1      -5.204  -1.500  -2.021  0.00  0.00    +0.163 HD
ENDBRANCH   5   6
BRANCH   1   9
ATOM      9  S   UNL     1      -1.700  -0.632   0.015  0.00  0.00    -0.072 S 
BRANCH   9  11
ATOM     10  C   UNL     1      -0.019   1.526   0.010  0.00  0.00    +0.029 C 
ATOM     11  C   UNL     1       0.002  -0.004   0.002  0.00  0.00    +0.140 C 
BRANCH  11  12
ATOM     12  C   UNL     1       0.731  -0.503   1.223  0.00  0.00    +0.241 A 
ATOM     13  N   UNL     1       1.937  -0.994   1.242  0.00  0.00    -0.190 NA
ATOM     14  C   UNL     1       2.274  -1.340   2.497  0.00  0.00    +0.202 A 
ATOM     15  N   UNL     1       1.269  -1.067   3.291  0.00  0.00    -0.056 NA
ATOM     16  O   UNL     1       0.250  -0.512   2.473  0.00  0.00    -0.337 OA
BRANCH  14  17
ATOM     17  C   UNL     1       3.570  -1.934   2.913  0.00  0.00    +0.022 A 
ATOM     18  C   UNL     1       4.565  -2.173   1.968  0.00  0.00    +0.012 A 
ATOM     19  C   UNL     1       5.767  -2.725   2.360  0.00  0.00    +0.001 A 
ATOM     20  C   UNL     1       5.985  -3.042   3.689  0.00  0.00    +0.000 A 
ATOM     21  C   UNL     1       5.000  -2.807   4.632  0.00  0.00    +0.001 A 
ATOM     22  C   UNL     1       3.796  -2.249   4.251  0.00  0.00    +0.012 A 
ENDBRANCH  14  17
ENDBRANCH  11  12
ENDBRANCH   9  11
ENDBRANCH   1   9
BRANCH   4  23
ATOM     23  C   UNL     1      -4.882   0.320  -4.133  0.00  0.00    +0.306 C 
BRANCH  23  24
ATOM     24  O   UNL     1      -4.849  -0.815  -5.002  0.00  0.00    -0.484 OA
BRANCH  24  25
ATOM     25  C   UNL     1      -5.862  -0.934  -5.901  0.00  0.00    +0.121 A 
ATOM     26  C   UNL     1      -6.863   0.025  -5.950  0.00  0.00    +0.048 A 
ATOM     27  C   UNL     1      -7.891  -0.097  -6.864  0.00  0.00    +0.042 A 
ATOM     28  C   UNL     1      -7.923  -1.176  -7.731  0.00  0.00    +0.124 A 
ATOM     29  C   UNL     1      -6.925  -2.134  -7.683  0.00  0.00    +0.042 A 
ATOM     30  C   UNL     1      -5.891  -2.011  -6.774  0.00  0.00    +0.048 A 
ATOM     31  F   UNL     1      -8.930  -1.295  -8.624  0.00  0.00    -0.205 F 
ENDBRANCH  24  25
ENDBRANCH  23  24
ENDBRANCH   4  23
TORSDOF 8
