REMARK  Name = ZINC49779715
REMARK  7 active torsions:
REMARK  status: ('A' for Active; 'I' for Inactive)
REMARK    1  A    between atoms: C_1  and  N_2
REMARK    2  A    between atoms: N_2  and  C_3
REMARK    3  A    between atoms: N_2  and  C_4
REMARK    4  A    between atoms: C_4  and  C_6
REMARK    5  A    between atoms: C_4  and  C_21
REMARK    6  A    between atoms: C_6  and  N_7
REMARK    7  A    between atoms: N_10  and  N_11
REMARK                            x       y       z     vdW  Elec       q    Type
REMARK                         _______ _______ _______ _____ _____    ______ ____
ROOT
ATOM      1  N   UNL     1      -0.923  -2.532   0.575  0.00  0.00    -0.299 N 
ATOM      2  C   UNL     1      -0.990  -3.877   0.545  0.00  0.00    +0.316 C 
ATOM      3  O   UNL     1      -1.651  -4.435  -0.310  0.00  0.00    -0.251 OA
ATOM      4  N   UNL     1      -0.325  -4.605   1.464  0.00  0.00    -0.219 N 
ATOM      5  H   UNL     1      -0.396  -2.087   1.257  0.00  0.00    +0.150 HD
ATOM      6  H   UNL     1      -0.374  -5.574   1.444  0.00  0.00    +0.174 HD
ENDROOT
BRANCH   4   7
ATOM      7  N   UNL     1       0.436  -3.963   2.450  0.00  0.00    -0.246 N 
ATOM      8  C   UNL     1       1.122  -4.714   3.398  0.00  0.00    +0.155 A 
ATOM      9  C   UNL     1       1.872  -4.069   4.378  0.00  0.00    +0.083 A 
ATOM     10  C   UNL     1       2.550  -4.829   5.316  0.00  0.00    +0.046 A 
ATOM     11  C   UNL     1       2.455  -6.213   5.243  0.00  0.00    +0.079 A 
ATOM     12  C   UNL     1       1.692  -6.787   4.243  0.00  0.00    +0.150 A 
ATOM     13  N   UNL     1       1.052  -6.036   3.364  0.00  0.00    -0.216 NA
ATOM     14 CL   UNL     1       1.569  -8.515   4.144  0.00  0.00    -0.060 Cl
ATOM     15 CL   UNL     1       3.286  -7.211   6.395  0.00  0.00    -0.080 Cl
ATOM     16 CL   UNL     1       1.956  -2.336   4.422  0.00  0.00    -0.080 Cl
ATOM     17  H   UNL     1       0.484  -2.994   2.471  0.00  0.00    +0.172 HD
ENDBRANCH   4   7
BRANCH   1  18
ATOM     18  C   UNL     1      -1.646  -1.740  -0.424  0.00  0.00    +0.098 C 
BRANCH  18  19
ATOM     19  C   UNL     1      -1.509  -0.253  -0.093  0.00  0.00    +0.016 C 
BRANCH  19  20
ATOM     20  C   UNL     1      -0.068   0.163  -0.236  0.00  0.00    +0.093 A 
ATOM     21  C   UNL     1       0.463   0.808  -1.290  0.00  0.00    +0.043 A 
ATOM     22  C   UNL     1       1.835   0.997  -1.005  0.00  0.00    +0.041 A 
ATOM     23  C   UNL     1       2.060   0.457   0.206  0.00  0.00    +0.195 A 
ATOM     24  O   UNL     1       0.902  -0.041   0.669  0.00  0.00    -0.469 OA
ENDBRANCH  19  20
BRANCH  19  26
ATOM     25  C   UNL     1      -1.813   1.411   1.609  0.00  0.00    -0.096 C 
ATOM     26  N   UNL     1      -1.953  -0.016   1.287  0.00  0.00    +0.384 N 
ATOM     27  C   UNL     1      -3.360  -0.413   1.425  0.00  0.00    -0.096 C 
ATOM     28  H   UNL     1      -1.386  -0.560   1.921  0.00  0.00    -0.082 HD
ENDBRANCH  19  26
ENDBRANCH  18  19
ENDBRANCH   1  18
TORSDOF 5
