REMARK  Name = ZINC39534007
REMARK  10 active torsions:
REMARK  status: ('A' for Active; 'I' for Inactive)
REMARK    1  A    between atoms: C_1  and  S_2
REMARK    2  A    between atoms: S_2  and  C_3
REMARK    3  A    between atoms: N_6  and  C_10
REMARK    4  A    between atoms: C_10  and  C_12
REMARK    5  A    between atoms: C_10  and  C_21
REMARK    6  A    between atoms: C_12  and  N_13
REMARK    7  A    between atoms: N_13  and  C_14
REMARK    8  A    between atoms: C_14  and  C_15
REMARK    9  A    between atoms: C_24  and  C_27
REMARK   10  A    between atoms: C_32  and  O_33
REMARK                            x       y       z     vdW  Elec       q    Type
REMARK                         _______ _______ _______ _____ _____    ______ ____
ROOT
ATOM      1  C   UNL     1       3.592  -2.916  -2.228  0.00  0.00    -0.023 C 
ENDROOT
BRANCH   1   4
ATOM      2  C   UNL     1       0.704  -0.532  -2.486  0.00  0.00    +0.095 C 
ATOM      3  C   UNL     1       1.743  -1.441  -1.827  0.00  0.00    -0.048 C 
ATOM      4  N   UNL     1       2.605  -2.030  -2.860  0.00  0.00    +0.387 N 
ATOM      5  C   UNL     1       3.303  -0.960  -3.585  0.00  0.00    -0.062 C 
ATOM      6  C   UNL     1       2.277  -0.047  -4.259  0.00  0.00    +0.063 C 
ATOM      7  N   UNL     1       1.390   0.528  -3.238  0.00  0.00    -0.308 NA
ATOM      8  H   UNL     1       0.727   1.165  -3.651  0.00  0.00    +0.123 HD
ATOM      9  H   UNL     1       2.041  -2.561  -3.506  0.00  0.00    -0.081 HD
BRANCH   2  11
ATOM     10  C   UNL     1      -0.454   1.959  -1.693  0.00  0.00    +0.086 C 
ATOM     11  S   UNL     1      -0.345   0.214  -1.208  0.00  0.00    -0.147 S 
ENDBRANCH   2  11
ENDBRANCH   1   4
BRANCH   1  12
ATOM     12  C   UNL     1       4.571  -3.399  -3.266  0.00  0.00    -0.060 A 
ATOM     13  C   UNL     1       4.124  -3.737  -4.531  0.00  0.00    +0.002 A 
ATOM     14  C   UNL     1       5.016  -4.181  -5.486  0.00  0.00    +0.009 A 
ATOM     15  C   UNL     1       6.371  -4.287  -5.174  0.00  0.00    -0.014 A 
ATOM     16  C   UNL     1       6.816  -3.944  -3.898  0.00  0.00    +0.009 A 
ATOM     17  C   UNL     1       5.915  -3.497  -2.953  0.00  0.00    +0.002 A 
BRANCH  15  18
ATOM     18  C   UNL     1       7.335  -4.763  -6.196  0.00  0.00    +0.024 A 
ATOM     19  C   UNL     1       7.076  -5.930  -6.911  0.00  0.00    +0.012 A 
ATOM     20  C   UNL     1       7.976  -6.369  -7.861  0.00  0.00    +0.001 A 
ATOM     21  C   UNL     1       9.136  -5.654  -8.105  0.00  0.00    +0.004 A 
ATOM     22  C   UNL     1       9.402  -4.495  -7.401  0.00  0.00    +0.046 A 
ATOM     23  C   UNL     1       8.504  -4.040  -6.449  0.00  0.00    +0.125 A 
BRANCH  23  24
ATOM     24  O   UNL     1       8.762  -2.898  -5.760  0.00  0.00    -0.506 OA
ATOM     25  H   UNL     1       9.260  -3.035  -4.943  0.00  0.00    +0.292 HD
ENDBRANCH  23  24
ENDBRANCH  15  18
ENDBRANCH   1  12
BRANCH   1  26
ATOM     26  C   UNL     1       2.874  -4.116  -1.607  0.00  0.00    +0.070 C 
BRANCH  26  27
ATOM     27  N   UNL     1       2.045  -3.663  -0.482  0.00  0.00    -0.313 NA
ATOM     28  H   UNL     1       2.600  -3.163   0.198  0.00  0.00    +0.122 HD
BRANCH  27  29
ATOM     29  C   UNL     1       1.340  -4.791   0.141  0.00  0.00    +0.116 C 
BRANCH  29  30
ATOM     30  C   UNL     1       0.502  -4.288   1.288  0.00  0.00    -0.034 A 
ATOM     31  C   UNL     1       1.042  -4.216   2.559  0.00  0.00    +0.005 A 
ATOM     32  C   UNL     1       0.273  -3.755   3.611  0.00  0.00    +0.000 A 
ATOM     33  C   UNL     1      -1.035  -3.364   3.393  0.00  0.00    +0.000 A 
ATOM     34  C   UNL     1      -1.574  -3.434   2.122  0.00  0.00    +0.000 A 
ATOM     35  C   UNL     1      -0.804  -3.892   1.069  0.00  0.00    +0.005 A 
ENDBRANCH  29  30
ENDBRANCH  27  29
ENDBRANCH  26  27
ENDBRANCH   1  26
TORSDOF 9
