REMARK  Name = ZINC09465260
REMARK  7 active torsions:
REMARK  status: ('A' for Active; 'I' for Inactive)
REMARK    1  A    between atoms: C_1  and  C_2
REMARK    2  A    between atoms: C_2  and  C_3
REMARK    3  A    between atoms: C_9  and  C_13
REMARK    4  A    between atoms: C_13  and  S_14
REMARK    5  A    between atoms: S_14  and  C_15
REMARK    6  A    between atoms: N_20  and  C_21
REMARK    7  A    between atoms: C_24  and  C_27
REMARK                            x       y       z     vdW  Elec       q    Type
REMARK                         _______ _______ _______ _____ _____    ______ ____
ROOT
ATOM      1  S   UNL     1       0.316  -4.943  -1.881  0.00  0.00    -0.091 S 
ENDROOT
BRANCH   1   2
ATOM      2  C   UNL     1       0.822  -6.617  -1.667  0.00  0.00    +0.160 A 
ATOM      3  N   UNL     1       0.864  -7.344  -0.566  0.00  0.00    -0.133 NA
ATOM      4  N   UNL     1       1.294  -8.649  -0.625  0.00  0.00    -0.125 NA
ATOM      5  C   UNL     1       1.673  -9.165  -1.778  0.00  0.00    +0.187 A 
ATOM      6  S   UNL     1       1.423  -7.782  -2.880  0.00  0.00    -0.024 S 
ATOM      7  N   UNL     1       2.141 -10.444  -2.060  0.00  0.00    -0.292 N 
ATOM      8  H   UNL     1       2.466 -10.656  -2.949  0.00  0.00    +0.154 HD
BRANCH   7   9
ATOM      9  C   UNL     1       2.143 -11.422  -1.063  0.00  0.00    +0.033 A 
ATOM     10  C   UNL     1       3.047 -12.476  -1.124  0.00  0.00    +0.023 A 
ATOM     11  C   UNL     1       3.050 -13.439  -0.134  0.00  0.00    +0.005 A 
ATOM     12  C   UNL     1       2.147 -13.362   0.911  0.00  0.00    -0.050 A 
ATOM     13  C   UNL     1       1.242 -12.317   0.972  0.00  0.00    +0.005 A 
ATOM     14  C   UNL     1       1.238 -11.348  -0.012  0.00  0.00    +0.023 A 
ATOM     15  C   UNL     1       2.149 -14.418   1.986  0.00  0.00    +0.044 C 
ENDBRANCH   7   9
ENDBRANCH   1   2
BRANCH   1  16
ATOM     16  C   UNL     1      -0.161  -4.412  -0.213  0.00  0.00    +0.132 C 
BRANCH  16  23
ATOM     17  C   UNL     1      -0.695   1.880  -0.510  0.00  0.00    +0.102 A 
ATOM     18  N   UNL     1      -1.668   1.028  -0.389  0.00  0.00    -0.159 NA
ATOM     19  N   UNL     1      -1.436  -0.342  -0.333  0.00  0.00    -0.171 N 
ATOM     20  C   UNL     1      -2.367  -1.333  -0.208  0.00  0.00    +0.275 A 
ATOM     21  O   UNL     1      -3.553  -1.052  -0.132  0.00  0.00    -0.266 OA
ATOM     22  C   UNL     1      -1.961  -2.667  -0.169  0.00  0.00    +0.096 A 
ATOM     23  C   UNL     1      -0.621  -2.978  -0.255  0.00  0.00    +0.060 A 
ATOM     24  N   UNL     1       0.260  -1.988  -0.376  0.00  0.00    -0.225 NA
ATOM     25  C   UNL     1      -0.129  -0.739  -0.413  0.00  0.00    +0.199 A 
ATOM     26  S   UNL     1       0.734   0.810  -0.563  0.00  0.00    -0.033 S 
BRANCH  17  28
ATOM     27  C   UNL     1      -2.214   3.840  -0.498  0.00  0.00    +0.011 C 
ATOM     28  C   UNL     1      -0.756   3.384  -0.586  0.00  0.00    +0.061 C 
ENDBRANCH  17  28
ENDBRANCH  16  23
ENDBRANCH   1  16
TORSDOF 5
