REMARK  Name = ZINC09612656
REMARK  11 active torsions:
REMARK  status: ('A' for Active; 'I' for Inactive)
REMARK    1  A    between atoms: C_1  and  C_2
REMARK    2  A    between atoms: C_2  and  C_3
REMARK    3  A    between atoms: C_2  and  C_4
REMARK    4  A    between atoms: C_4  and  C_6
REMARK    5  A    between atoms: C_4  and  N_25
REMARK    6  A    between atoms: C_6  and  O_8
REMARK    7  A    between atoms: O_8  and  C_9
REMARK    8  A    between atoms: C_9  and  C_10
REMARK    9  A    between atoms: N_12  and  C_13
REMARK   10  A    between atoms: C_14  and  C_22
REMARK   11  A    between atoms: C_26  and  C_28
REMARK                            x       y       z     vdW  Elec       q    Type
REMARK                         _______ _______ _______ _____ _____    ______ ____
ROOT
ATOM      1  C   UNL     1       5.255  -6.453  -1.377  0.00  0.00    +0.328 C 
ENDROOT
BRANCH   1   2
ATOM      2  C   UNL     1       5.353  -7.956  -1.419  0.00  0.00    +0.255 C 
ATOM      3  O   UNL     1       4.447  -8.636  -0.985  0.00  0.00    -0.272 OA
ATOM      4  N   UNL     1       6.448  -8.545  -1.940  0.00  0.00    -0.277 N 
ATOM      5  H   UNL     1       7.172  -8.002  -2.288  0.00  0.00    +0.155 HD
BRANCH   4   6
ATOM      6  C   UNL     1       6.538  -9.928  -1.980  0.00  0.00    +0.084 A 
ATOM      7  C   UNL     1       7.571 -10.711  -2.477  0.00  0.00    +0.068 A 
ATOM      8  C   UNL     1       7.419 -12.154  -2.395  0.00  0.00    -0.023 A 
ATOM      9  C   UNL     1       6.263 -12.580  -1.842  0.00  0.00    -0.004 A 
ATOM     10  S   UNL     1       5.386 -11.099  -1.427  0.00  0.00    -0.077 S 
ATOM     11  C   UNL     1       5.830 -13.999  -1.634  0.00  0.00    +0.043 C 
ATOM     12  C   UNL     1       6.732 -14.909  -2.482  0.00  0.00    +0.005 C 
ATOM     13  C   UNL     1       8.192 -14.508  -2.253  0.00  0.00    +0.005 C 
ATOM     14  C   UNL     1       8.464 -13.145  -2.892  0.00  0.00    +0.037 C 
BRANCH   7  15
ATOM     15  C   UNL     1       8.772 -10.104  -3.060  0.00  0.00    +0.244 C 
ATOM     16  O   UNL     1       9.729  -9.851  -2.353  0.00  0.00    -0.270 OA
ATOM     17  N   UNL     1       8.815  -9.828  -4.378  0.00  0.00    -0.325 N 
ATOM     18  H   UNL     1       8.052 -10.030  -4.941  0.00  0.00    +0.145 HD
ATOM     19  H   UNL     1       9.610  -9.427  -4.763  0.00  0.00    +0.145 HD
ENDBRANCH   7  15
ENDBRANCH   4   6
ENDBRANCH   1   2
BRANCH   1  20
ATOM     20  O   UNL     1       3.991  -6.068  -0.774  0.00  0.00    -0.454 OA
BRANCH  20  21
ATOM     21  C   UNL     1       3.746  -4.753  -0.661  0.00  0.00    +0.328 C 
ATOM     22  O   UNL     1       4.560  -3.950  -1.052  0.00  0.00    -0.249 OA
BRANCH  21  23
ATOM     23  C   UNL     1       2.455  -4.278  -0.045  0.00  0.00    +0.185 C 
BRANCH  23  24
ATOM     24  N   UNL     1       2.428  -2.813  -0.037  0.00  0.00    -0.298 N 
ATOM     25  C   UNL     1       1.249  -2.160  -0.022  0.00  0.00    +0.245 C 
ATOM     26  O   UNL     1       0.207  -2.787  -0.016  0.00  0.00    -0.270 OA
ATOM     27  H   UNL     1       3.259  -2.313  -0.042  0.00  0.00    +0.150 HD
BRANCH  25  28
ATOM     28  C   UNL     1       1.222  -0.683  -0.013  0.00  0.00    +0.037 A 
ATOM     29  C   UNL     1       0.002  -0.004   0.002  0.00  0.00    +0.014 A 
ATOM     30  C   UNL     1      -0.017   1.375   0.010  0.00  0.00    +0.021 A 
ATOM     31  C   UNL     1       1.172   2.086   0.002  0.00  0.00    +0.041 A 
ATOM     32  C   UNL     1       2.385   1.419  -0.013  0.00  0.00    +0.021 A 
ATOM     33  C   UNL     1       2.417   0.040  -0.021  0.00  0.00    +0.014 A 
ATOM     34 CL   UNL     1       1.140   3.822   0.011  0.00  0.00    -0.084 Cl
ENDBRANCH  25  28
ENDBRANCH  23  24
BRANCH  23  36
ATOM     35  C   UNL     1       2.380  -6.328   1.381  0.00  0.00    +0.009 C 
ATOM     36  C   UNL     1       2.352  -4.798   1.390  0.00  0.00    +0.014 C 
ATOM     37  C   UNL     1       3.532  -4.271   2.209  0.00  0.00    +0.009 C 
ENDBRANCH  23  36
ENDBRANCH  21  23
ENDBRANCH  20  21
ENDBRANCH   1  20
TORSDOF 9
