REMARK  Name = ZINC64084152
REMARK  12 active torsions:
REMARK  status: ('A' for Active; 'I' for Inactive)
REMARK    1  A    between atoms: C_1  and  C_2
REMARK    2  A    between atoms: C_2  and  C_3
REMARK    3  A    between atoms: C_2  and  C_4
REMARK    4  A    between atoms: N_18  and  C_19
REMARK    5  A    between atoms: C_19  and  C_20
REMARK    6  A    between atoms: C_23  and  S_30
REMARK    7  A    between atoms: N_24  and  C_25
REMARK    8  A    between atoms: C_25  and  C_26
REMARK    9  A    between atoms: C_26  and  C_27
REMARK   10  A    between atoms: C_27  and  O_28
REMARK   11  A    between atoms: O_28  and  C_29
REMARK   12  A    between atoms: S_30  and  C_33
REMARK                            x       y       z     vdW  Elec       q    Type
REMARK                         _______ _______ _______ _____ _____    ______ ____
ROOT
ATOM      1  C   UNL     1      -1.581  -0.581   0.092  0.00  0.00    +0.086 C 
ATOM      2  C   UNL     1      -1.390  -2.098   0.043  0.00  0.00    +0.124 C 
ATOM      3  C   UNL     1      -2.725  -2.682  -0.406  0.00  0.00    -0.036 C 
ATOM      4  C   UNL     1      -3.065  -3.583   0.505  0.00  0.00    -0.001 A 
ATOM      5  C   UNL     1      -4.192  -4.527   0.578  0.00  0.00    +0.010 A 
ATOM      6  C   UNL     1      -4.243  -5.315   1.685  0.00  0.00    +0.001 A 
ATOM      7  C   UNL     1      -3.298  -5.259   2.714  0.00  0.00    +0.002 A 
ATOM      8  C   UNL     1      -2.227  -4.426   2.727  0.00  0.00    +0.026 A 
ATOM      9  C   UNL     1      -2.062  -3.552   1.613  0.00  0.00    +0.043 A 
ATOM     10  N   UNL     1      -1.111  -2.673   1.358  0.00  0.00    -0.376 N 
ATOM     11  C   UNL     1      -3.449  -2.158  -1.622  0.00  0.00    +0.049 C 
ATOM     12  C   UNL     1      -3.454  -0.624  -1.492  0.00  0.00    +0.089 C 
ATOM     13  N   UNL     1      -2.100  -0.136  -1.211  0.00  0.00    -0.291 NA
ATOM     14  H   UNL     1      -0.365  -2.441   1.932  0.00  0.00    +0.160 HD
ENDROOT
BRANCH   1  16
ATOM     15  C   UNL     1       0.256  -0.303   1.762  0.00  0.00    +0.009 C 
ATOM     16  C   UNL     1      -0.240   0.100   0.372  0.00  0.00    +0.002 C 
ATOM     17  C   UNL     1       0.782  -0.336  -0.680  0.00  0.00    +0.009 C 
ENDBRANCH   1  16
BRANCH  13  18
ATOM     18  C   UNL     1      -2.031   1.326  -1.335  0.00  0.00    +0.139 C 
BRANCH  18  19
ATOM     19  C   UNL     1      -2.466   1.734  -2.719  0.00  0.00    +0.054 A 
ATOM     20  C   UNL     1      -3.700   2.125  -3.089  0.00  0.00    +0.137 A 
ATOM     21  N   UNL     1      -3.671   2.401  -4.402  0.00  0.00    -0.220 NA
ATOM     22  C   UNL     1      -2.466   2.196  -4.858  0.00  0.00    +0.251 A 
ATOM     23  N   UNL     1      -1.681   1.784  -3.839  0.00  0.00    -0.312 N 
BRANCH  22  24
ATOM     24  S   UNL     1      -1.947   2.424  -6.527  0.00  0.00    +0.027 S 
ATOM     25  O   UNL     1      -0.843   1.544  -6.686  0.00  0.00    -0.167 OA
ATOM     26  O   UNL     1      -3.127   2.253  -7.300  0.00  0.00    -0.167 OA
ATOM     27  C   UNL     1      -1.390   4.148  -6.610  0.00  0.00    +0.204 C 
ENDBRANCH  22  24
BRANCH  23  28
ATOM     28  C   UNL     1      -0.257   1.451  -3.919  0.00  0.00    +0.127 C 
BRANCH  28  29
ATOM     29  C   UNL     1      -0.099  -0.036  -4.244  0.00  0.00    +0.050 C 
BRANCH  29  30
ATOM     30  C   UNL     1       1.389  -0.384  -4.327  0.00  0.00    +0.161 C 
BRANCH  30  31
ATOM     31  O   UNL     1       1.537  -1.773  -4.631  0.00  0.00    -0.383 OA
ATOM     32  C   UNL     1       2.895  -2.204  -4.732  0.00  0.00    +0.193 C 
ENDBRANCH  30  31
ENDBRANCH  29  30
ENDBRANCH  28  29
ENDBRANCH  23  28
ENDBRANCH  18  19
ENDBRANCH  13  18
TORSDOF 8
