REMARK  Name = ZINC39453549
REMARK  4 active torsions:
REMARK  status: ('A' for Active; 'I' for Inactive)
REMARK    1  A    between atoms: C_4  and  C_7
REMARK    2  A    between atoms: C_7  and  C_8
REMARK    3  A    between atoms: N_20  and  C_23
REMARK    4  A    between atoms: C_23  and  C_24
REMARK                            x       y       z     vdW  Elec       q    Type
REMARK                         _______ _______ _______ _____ _____    ______ ____
ROOT
ATOM      1  C   UNL     1       3.481  -0.795   0.137  0.00  0.00    -0.034 A 
ATOM      2  C   UNL     1       4.320   0.205   0.525  0.00  0.00    +0.004 A 
ATOM      3  C   UNL     1       4.920   0.205   1.782  0.00  0.00    +0.002 A 
ATOM      4  C   UNL     1       4.701  -0.791   2.681  0.00  0.00    +0.028 A 
ATOM      5  C   UNL     1       3.846  -1.857   2.343  0.00  0.00    +0.072 A 
ATOM      6  C   UNL     1       3.209  -1.850   1.023  0.00  0.00    +0.005 A 
ATOM      7  C   UNL     1       2.349  -2.904   0.679  0.00  0.00    +0.025 A 
ATOM      8  C   UNL     1       2.144  -3.904   1.618  0.00  0.00    +0.067 A 
ATOM      9  C   UNL     1       2.792  -3.845   2.881  0.00  0.00    +0.100 A 
ATOM     10  N   UNL     1       3.606  -2.854   3.194  0.00  0.00    -0.245 NA
ATOM     11  C   UNL     1       2.541  -4.938   3.837  0.00  0.00    +0.083 A 
ATOM     12  C   UNL     1       1.693  -5.972   3.493  0.00  0.00    +0.111 A 
ATOM     13  N   UNL     1       1.071  -6.004   2.249  0.00  0.00    -0.299 N 
ATOM     14  C   UNL     1       1.256  -5.042   1.329  0.00  0.00    +0.261 A 
ATOM     15  O   UNL     1       0.689  -5.112   0.255  0.00  0.00    -0.267 OA
ATOM     16  C   UNL     1       1.446  -7.014   4.415  0.00  0.00    +0.186 C 
ATOM     17  O   UNL     1       0.740  -7.948   4.093  0.00  0.00    -0.290 OA
ATOM     18  C   UNL     1       2.052  -6.979   5.794  0.00  0.00    +0.138 C 
ATOM     19  C   UNL     1       3.384  -6.221   5.745  0.00  0.00    +0.259 C 
ATOM     20  N   UNL     1       3.154  -4.932   5.074  0.00  0.00    -0.311 N 
ATOM     21  F   UNL     1       4.325  -6.966   5.027  0.00  0.00    -0.224 F 
ATOM     22  H   UNL     1       3.427  -4.099   5.490  0.00  0.00    +0.149 HD
ENDROOT
BRANCH   1  23
ATOM     23  C   UNL     1       2.846  -0.766  -1.229  0.00  0.00    +0.071 C 
BRANCH  23  27
ATOM     24  C   UNL     1      -1.030   1.011  -0.961  0.00  0.00    +0.000 A 
ATOM     25  C   UNL     1       0.078   1.802  -1.204  0.00  0.00    +0.000 A 
ATOM     26  C   UNL     1       1.332   1.227  -1.291  0.00  0.00    +0.004 A 
ATOM     27  C   UNL     1       1.479  -0.139  -1.134  0.00  0.00    -0.043 A 
ATOM     28  C   UNL     1       0.371  -0.929  -0.889  0.00  0.00    +0.004 A 
ATOM     29  C   UNL     1      -0.883  -0.354  -0.804  0.00  0.00    +0.000 A 
ENDBRANCH  23  27
ENDBRANCH   1  23
BRANCH  13  30
ATOM     30  C   UNL     1       0.183  -7.125   1.931  0.00  0.00    +0.160 C 
BRANCH  30  31
ATOM     31  C   UNL     1      -1.227  -6.779   2.334  0.00  0.00    -0.028 A 
ATOM     32  C   UNL     1      -1.721  -7.200   3.554  0.00  0.00    +0.005 A 
ATOM     33  C   UNL     1      -3.015  -6.883   3.923  0.00  0.00    +0.000 A 
ATOM     34  C   UNL     1      -3.815  -6.144   3.072  0.00  0.00    +0.000 A 
ATOM     35  C   UNL     1      -3.321  -5.721   1.852  0.00  0.00    +0.000 A 
ATOM     36  C   UNL     1      -2.025  -6.035   1.485  0.00  0.00    +0.005 A 
ENDBRANCH  30  31
ENDBRANCH  13  30
TORSDOF 4
