REMARK  Name = ZINC16487358
REMARK  7 active torsions:
REMARK  status: ('A' for Active; 'I' for Inactive)
REMARK    1  A    between atoms: C_3  and  N_35
REMARK    2  A    between atoms: C_6  and  C_7
REMARK    3  A    between atoms: C_8  and  C_9
REMARK    4  A    between atoms: N_11  and  C_12
REMARK    5  A    between atoms: N_11  and  C_32
REMARK    6  A    between atoms: C_12  and  C_13
REMARK    7  A    between atoms: C_23  and  C_25
REMARK                            x       y       z     vdW  Elec       q    Type
REMARK                         _______ _______ _______ _____ _____    ______ ____
ROOT
ATOM      1  C   UNL     1       5.258   2.098  -0.092  0.00  0.00    +0.204 C 
ENDROOT
BRANCH   1   2
ATOM      2  C   UNL     1       5.697   1.556  -1.428  0.00  0.00    +0.234 C 
ATOM      3  O   UNL     1       5.143   1.922  -2.443  0.00  0.00    -0.274 OA
ATOM      4  N   UNL     1       6.706   0.664  -1.495  0.00  0.00    -0.289 N 
ATOM      5  C   UNL     1       7.461   0.301  -0.287  0.00  0.00    +0.114 C 
ATOM      6  C   UNL     1       7.205  -1.191   0.005  0.00  0.00    +0.062 C 
ATOM      7  C   UNL     1       7.277  -1.949  -1.281  0.00  0.00    -0.003 A 
ATOM      8  C   UNL     1       7.219  -1.456  -2.547  0.00  0.00    -0.012 A 
ATOM      9  C   UNL     1       7.303  -2.383  -3.585  0.00  0.00    +0.013 A 
ATOM     10  C   UNL     1       7.438  -3.699  -3.306  0.00  0.00    +0.046 A 
ATOM     11  S   UNL     1       7.452  -3.698  -1.520  0.00  0.00    -0.101 S 
ATOM     12  C   UNL     1       7.071   0.047  -2.778  0.00  0.00    +0.137 C 
BRANCH  12  13
ATOM     13  C   UNL     1       5.988   0.304  -3.794  0.00  0.00    -0.023 A 
ATOM     14  C   UNL     1       4.675  -0.013  -3.500  0.00  0.00    +0.007 A 
ATOM     15  C   UNL     1       3.681   0.228  -4.430  0.00  0.00    +0.020 A 
ATOM     16  C   UNL     1       4.002   0.776  -5.659  0.00  0.00    +0.041 A 
ATOM     17  C   UNL     1       5.317   1.089  -5.955  0.00  0.00    +0.020 A 
ATOM     18  C   UNL     1       6.309   0.852  -5.022  0.00  0.00    +0.007 A 
ATOM     19 CL   UNL     1       2.755   1.073  -6.830  0.00  0.00    -0.084 Cl
ENDBRANCH  12  13
ENDBRANCH   1   2
BRANCH   1  22
ATOM     20  C   UNL     1       2.881   2.601  -0.273  0.00  0.00    +0.240 C 
ATOM     21  O   UNL     1       1.970   3.364  -0.538  0.00  0.00    -0.271 OA
ATOM     22  N   UNL     1       4.155   3.041  -0.287  0.00  0.00    -0.286 N 
BRANCH  22  23
ATOM     23  C   UNL     1       4.436   4.464  -0.496  0.00  0.00    +0.077 C 
ATOM     24  C   UNL     1       3.279   5.448  -0.306  0.00  0.00    +0.024 C 
ATOM     25  C   UNL     1       3.797   5.138  -1.712  0.00  0.00    +0.024 C 
ENDBRANCH  22  23
BRANCH  20  27
ATOM     26  C   UNL     1       1.316   0.788   0.175  0.00  0.00    +0.013 C 
ATOM     27  C   UNL     1       2.593   1.204   0.059  0.00  0.00    +0.068 C 
BRANCH  26  33
ATOM     28  C   UNL     1       2.073  -1.521   0.708  0.00  0.00    +0.010 A 
ATOM     29  C   UNL     1       1.794  -2.832   1.032  0.00  0.00    +0.033 A 
ATOM     30  C   UNL     1       0.482  -3.254   1.155  0.00  0.00    +0.126 A 
ATOM     31  C   UNL     1      -0.560  -2.364   0.960  0.00  0.00    +0.033 A 
ATOM     32  C   UNL     1      -0.297  -1.048   0.641  0.00  0.00    +0.010 A 
ATOM     33  C   UNL     1       1.026  -0.614   0.515  0.00  0.00    -0.025 A 
BRANCH  30  34
ATOM     34  N   UNL     1       0.191  -4.664   1.497  0.00  0.00    +0.056 N 
ATOM     35  O   UNL     1      -0.963  -5.039   1.606  0.00  0.00    -0.126 OA
ATOM     36  O   UNL     1       1.105  -5.450   1.670  0.00  0.00    -0.126 OA
ENDBRANCH  30  34
ENDBRANCH  26  33
ENDBRANCH  20  27
ENDBRANCH   1  22
TORSDOF 7
