REMARK  Name = ZINC08719980
REMARK  9 active torsions:
REMARK  status: ('A' for Active; 'I' for Inactive)
REMARK    1  A    between atoms: C_1  and  C_2
REMARK    2  A    between atoms: C_6  and  N_9
REMARK    3  A    between atoms: C_7  and  C_8
REMARK    4  A    between atoms: C_13  and  S_14
REMARK    5  A    between atoms: S_14  and  C_15
REMARK    6  A    between atoms: C_15  and  C_16
REMARK    7  A    between atoms: N_18  and  C_19
REMARK    8  A    between atoms: C_22  and  S_25
REMARK    9  A    between atoms: S_25  and  N_28
REMARK                            x       y       z     vdW  Elec       q    Type
REMARK                         _______ _______ _______ _____ _____    ______ ____
ROOT
ATOM      1  C   UNL     1       4.956   2.155   4.594  0.00  0.00    +0.227 C 
ATOM      2  O   UNL     1       4.072   2.874   5.011  0.00  0.00    -0.275 OA
ATOM      3  N   UNL     1       6.059   1.942   5.338  0.00  0.00    -0.285 N 
ATOM      4  H   UNL     1       6.734   1.315   5.035  0.00  0.00    +0.155 HD
ENDROOT
BRANCH   3   5
ATOM      5  C   UNL     1       6.230   2.624   6.547  0.00  0.00    +0.034 A 
ATOM      6  C   UNL     1       7.500   3.012   6.954  0.00  0.00    +0.025 A 
ATOM      7  C   UNL     1       7.665   3.691   8.145  0.00  0.00    +0.030 A 
ATOM      8  C   UNL     1       6.568   3.974   8.939  0.00  0.00    +0.109 A 
ATOM      9  C   UNL     1       5.303   3.584   8.540  0.00  0.00    +0.030 A 
ATOM     10  C   UNL     1       5.131   2.910   7.347  0.00  0.00    +0.025 A 
BRANCH   8  11
ATOM     11  S   UNL     1       6.783   4.834  10.461  0.00  0.00    +0.074 S 
ATOM     12  O   UNL     1       7.994   5.569  10.345  0.00  0.00    -0.150 OA
ATOM     13  O   UNL     1       5.540   5.457  10.755  0.00  0.00    -0.150 OA
BRANCH  11  14
ATOM     14  N   UNL     1       7.031   3.695  11.637  0.00  0.00    -0.194 N 
ATOM     15  C   UNL     1       8.166   2.899  11.602  0.00  0.00    +0.177 A 
ATOM     16  N   UNL     1       9.149   2.895  10.722  0.00  0.00    -0.232 NA
ATOM     17  C   UNL     1      10.168   2.065  10.841  0.00  0.00    +0.120 A 
ATOM     18  C   UNL     1      10.181   1.203  11.886  0.00  0.00    +0.068 A 
ATOM     19  S   UNL     1       8.655   1.647  12.701  0.00  0.00    -0.059 S 
ATOM     20  H   UNL     1       6.383   3.584  12.350  0.00  0.00    +0.176 HD
ENDBRANCH  11  14
ENDBRANCH   8  11
ENDBRANCH   3   5
BRANCH   1  21
ATOM     21  C   UNL     1       4.819   1.500   3.243  0.00  0.00    +0.173 C 
BRANCH  21  22
ATOM     22  S   UNL     1       3.241   1.978   2.498  0.00  0.00    -0.078 S 
BRANCH  22  27
ATOM     23  N   UNL     1       2.398   1.093  -0.009  0.00  0.00    -0.294 N 
ATOM     24  C   UNL     1       2.871   0.277  -1.015  0.00  0.00    +0.113 A 
ATOM     25  C   UNL     1       4.074  -0.174  -0.621  0.00  0.00    +0.131 A 
ATOM     26  N   UNL     1       4.341   0.335   0.594  0.00  0.00    -0.230 NA
ATOM     27  C   UNL     1       3.343   1.098   0.975  0.00  0.00    +0.174 A 
BRANCH  23  33
ATOM     28  C   UNL     1      -0.062   5.352   0.013  0.00  0.00    +0.044 C 
ATOM     29  C   UNL     1      -0.043   3.845   0.013  0.00  0.00    -0.046 A 
ATOM     30  C   UNL     1      -1.233   3.140   0.026  0.00  0.00    +0.004 A 
ATOM     31  C   UNL     1      -1.220   1.757   0.021  0.00  0.00    +0.002 A 
ATOM     32  C   UNL     1      -0.018   1.076   0.015  0.00  0.00    +0.026 A 
ATOM     33  C   UNL     1       1.177   1.781   0.003  0.00  0.00    +0.052 A 
ATOM     34  C   UNL     1       1.161   3.170   0.002  0.00  0.00    -0.024 A 
ATOM     35  C   UNL     1       2.457   3.939  -0.011  0.00  0.00    +0.046 C 
ENDBRANCH  23  33
ENDBRANCH  22  27
ENDBRANCH  21  22
ENDBRANCH   1  21
TORSDOF 7
