REMARK  Name = ZINC43093218
REMARK  8 active torsions:
REMARK  status: ('A' for Active; 'I' for Inactive)
REMARK    1  A    between atoms: C_1  and  C_2
REMARK    2  A    between atoms: C_2  and  C_4
REMARK    3  A    between atoms: C_2  and  N_23
REMARK    4  A    between atoms: C_4  and  C_6
REMARK    5  A    between atoms: C_4  and  N_13
REMARK    6  A    between atoms: N_13  and  C_14
REMARK    7  A    between atoms: N_13  and  C_18
REMARK    8  A    between atoms: C_14  and  C_15
REMARK                            x       y       z     vdW  Elec       q    Type
REMARK                         _______ _______ _______ _____ _____    ______ ____
ROOT
ATOM      1  C   UNL     1       0.683  -0.137   0.991  0.00  0.00    +0.074 C 
ENDROOT
BRANCH   1   2
ATOM      2  C   UNL     1      -0.042   0.226   2.262  0.00  0.00    -0.018 A 
ATOM      3  C   UNL     1       0.476   1.194   3.101  0.00  0.00    +0.006 A 
ATOM      4  C   UNL     1      -0.189   1.528   4.266  0.00  0.00    +0.000 A 
ATOM      5  C   UNL     1      -1.372   0.892   4.593  0.00  0.00    +0.001 A 
ATOM      6  C   UNL     1      -1.891  -0.077   3.755  0.00  0.00    +0.015 A 
ATOM      7  C   UNL     1      -1.228  -0.407   2.586  0.00  0.00    +0.022 A 
ATOM      8 BR   UNL     1      -1.941  -1.727   1.435  0.00  0.00    -0.050 Br
ENDBRANCH   1   2
BRANCH   1  10
ATOM      9  C   UNL     1       0.240   2.164   0.125  0.00  0.00    -0.012 C 
ATOM     10  C   UNL     1       0.105   0.669  -0.173  0.00  0.00    -0.056 C 
BRANCH  10  11
ATOM     11  N   UNL     1      -1.314   0.331  -0.347  0.00  0.00    +0.381 N 
ATOM     12  H   UNL     1      -1.403  -0.655  -0.544  0.00  0.00    -0.090 HD
ATOM     13  H   UNL     1      -1.818   0.552   0.498  0.00  0.00    -0.090 HD
ATOM     14  H   UNL     1      -1.695   0.863  -1.115  0.00  0.00    -0.090 HD
ENDBRANCH  10  11
ENDBRANCH   1  10
BRANCH   1  15
ATOM     15  N   UNL     1       2.112   0.169   1.138  0.00  0.00    -0.286 NA
BRANCH  15  16
ATOM     16  C   UNL     1       2.857  -0.199  -0.073  0.00  0.00    +0.058 C 
ATOM     17  C   UNL     1       2.664   0.879  -1.160  0.00  0.00    +0.019 C 
ATOM     18  C   UNL     1       2.591   0.076  -2.483  0.00  0.00    +0.002 C 
ATOM     19  C   UNL     1       1.793  -1.186  -2.073  0.00  0.00    +0.002 C 
ATOM     20  C   UNL     1       2.303  -1.512  -0.654  0.00  0.00    +0.019 C 
ENDBRANCH  15  16
BRANCH  15  21
ATOM     21  C   UNL     1       2.674  -0.493   2.323  0.00  0.00    +0.181 C 
BRANCH  21  22
ATOM     22  C   UNL     1       4.082  -0.008   2.549  0.00  0.00    +0.225 C 
ATOM     23  O   UNL     1       4.533   0.886   1.865  0.00  0.00    -0.275 OA
ATOM     24  N   UNL     1       4.841  -0.567   3.513  0.00  0.00    -0.328 N 
ATOM     25  H   UNL     1       4.480  -1.282   4.060  0.00  0.00    +0.145 HD
ATOM     26  H   UNL     1       5.748  -0.255   3.658  0.00  0.00    +0.145 HD
ENDBRANCH  21  22
ENDBRANCH  15  21
ENDBRANCH   1  15
TORSDOF 7
