REMARK  Name = ZINC00569907
REMARK  6 active torsions:
REMARK  status: ('A' for Active; 'I' for Inactive)
REMARK    1  A    between atoms: C_4  and  N_7
REMARK    2  A    between atoms: C_9  and  C_12
REMARK    3  A    between atoms: C_17  and  C_18
REMARK    4  A    between atoms: C_21  and  O_26
REMARK    5  A    between atoms: C_22  and  O_25
REMARK    6  A    between atoms: C_23  and  O_24
REMARK                            x       y       z     vdW  Elec       q    Type
REMARK                         _______ _______ _______ _____ _____    ______ ____
ROOT
ATOM      1  C   UNL     1       5.878  -3.550  -0.003  0.00  0.00    +0.030 A 
ATOM      2  C   UNL     1       5.616  -4.574   0.856  0.00  0.00    +0.114 A 
ATOM      3  N   UNL     1       6.254  -5.672   0.397  0.00  0.00    -0.284 N 
ATOM      4  H   UNL     1       6.244  -6.549   0.811  0.00  0.00    +0.188 HD
ATOM      5  N   UNL     1       6.933  -5.329  -0.778  0.00  0.00    -0.173 NA
ATOM      6  C   UNL     1       6.709  -4.058  -1.032  0.00  0.00    +0.104 A 
ENDROOT
BRANCH   6   7
ATOM      7  C   UNL     1       7.236  -3.292  -2.187  0.00  0.00    +0.048 A 
ATOM      8  C   UNL     1       6.386  -2.473  -2.929  0.00  0.00    +0.017 A 
ATOM      9  C   UNL     1       6.876  -1.761  -4.003  0.00  0.00    +0.050 A 
ATOM     10  C   UNL     1       8.217  -1.855  -4.350  0.00  0.00    +0.162 A 
ATOM     11  C   UNL     1       9.073  -2.668  -3.617  0.00  0.00    +0.201 A 
ATOM     12  C   UNL     1       8.588  -3.383  -2.530  0.00  0.00    +0.171 A 
BRANCH  12  13
ATOM     13  O   UNL     1       9.423  -4.175  -1.807  0.00  0.00    -0.503 OA
ATOM     14  H   UNL     1       9.483  -5.084  -2.132  0.00  0.00    +0.292 HD
ENDBRANCH  12  13
BRANCH  11  15
ATOM     15  O   UNL     1      10.387  -2.759  -3.959  0.00  0.00    -0.501 OA
ATOM     16  H   UNL     1      10.953  -2.107  -3.524  0.00  0.00    +0.292 HD
ENDBRANCH  11  15
BRANCH  10  17
ATOM     17  O   UNL     1       8.694  -1.151  -5.411  0.00  0.00    -0.503 OA
ATOM     18  H   UNL     1       9.018  -0.268  -5.184  0.00  0.00    +0.292 HD
ENDBRANCH  10  17
ENDBRANCH   6   7
BRANCH   1  21
ATOM     19  N   UNL     1       4.048  -0.419   0.301  0.00  0.00    -0.239 N 
ATOM     20  C   UNL     1       4.072  -1.775   0.214  0.00  0.00    +0.123 A 
ATOM     21  C   UNL     1       5.378  -2.156   0.114  0.00  0.00    +0.024 A 
ATOM     22  C   UNL     1       6.166  -0.989   0.143  0.00  0.00    +0.143 A 
ATOM     23  N   UNL     1       5.370   0.042   0.249  0.00  0.00    -0.174 NA
BRANCH  19  27
ATOM     24  C   UNL     1       0.638   1.953   0.647  0.00  0.00    +0.000 A 
ATOM     25  C   UNL     1       1.888   2.543   0.608  0.00  0.00    +0.002 A 
ATOM     26  C   UNL     1       3.020   1.760   0.493  0.00  0.00    +0.028 A 
ATOM     27  C   UNL     1       2.902   0.378   0.418  0.00  0.00    +0.065 A 
ATOM     28  C   UNL     1       1.646  -0.212   0.459  0.00  0.00    +0.028 A 
ATOM     29  C   UNL     1       0.517   0.577   0.573  0.00  0.00    +0.002 A 
ENDBRANCH  19  27
ENDBRANCH   1  21
TORSDOF 6
