REMARK  Name = ZINC66250752
REMARK  8 active torsions:
REMARK  status: ('A' for Active; 'I' for Inactive)
REMARK    1  A    between atoms: C_1  and  C_2
REMARK    2  A    between atoms: C_4  and  S_8
REMARK    3  A    between atoms: N_6  and  C_7
REMARK    4  A    between atoms: S_8  and  N_11
REMARK    5  A    between atoms: C_14  and  C_17
REMARK    6  A    between atoms: C_17  and  N_18
REMARK    7  A    between atoms: C_20  and  C_27
REMARK    8  A    between atoms: C_23  and  C_26
REMARK                            x       y       z     vdW  Elec       q    Type
REMARK                         _______ _______ _______ _____ _____    ______ ____
ROOT
ATOM      1  N   UNL     1       1.628  -3.801  -2.082  0.00  0.00    -0.102 NA
ATOM      2  C   UNL     1       1.929  -4.805  -2.869  0.00  0.00    +0.192 A 
ATOM      3  N   UNL     1       3.167  -5.277  -3.248  0.00  0.00    -0.335 N 
ATOM      4  C   UNL     1       3.224  -6.351  -4.088  0.00  0.00    +0.039 A 
ATOM      5  C   UNL     1       2.102  -6.922  -4.524  0.00  0.00    +0.071 A 
ATOM      6  S   UNL     1       0.845  -5.933  -3.731  0.00  0.00    -0.056 S 
ATOM      7  H   UNL     1       3.979  -4.855  -2.926  0.00  0.00    +0.168 HD
ENDROOT
BRANCH   1   8
ATOM      8  S   UNL     1       0.042  -3.437  -1.774  0.00  0.00    +0.118 S 
ATOM      9  O   UNL     1      -0.490  -4.530  -1.039  0.00  0.00    -0.145 OA
ATOM     10  O   UNL     1      -0.520  -3.000  -3.004  0.00  0.00    -0.145 OA
BRANCH   8  14
ATOM     11  C   UNL     1      -0.018   1.503   0.010  0.00  0.00    +0.084 C 
ATOM     12  C   UNL     1       0.002  -0.004   0.002  0.00  0.00    +0.085 A 
ATOM     13  N   UNL     1       0.008  -0.759  -1.063  0.00  0.00    -0.328 N 
ATOM     14  C   UNL     1       0.028  -2.047  -0.691  0.00  0.00    +0.197 A 
ATOM     15  C   UNL     1       0.034  -2.093   0.655  0.00  0.00    +0.134 A 
ATOM     16  N   UNL     1       0.023  -0.797   1.095  0.00  0.00    -0.337 N 
ATOM     17  C   UNL     1       0.030  -0.353   2.491  0.00  0.00    +0.150 C 
ATOM     18  H   UNL     1      -0.000  -0.438  -1.978  0.00  0.00    +0.168 HD
ENDBRANCH   8  14
ENDBRANCH   1   8
BRANCH   4  19
ATOM     19  C   UNL     1       4.562  -6.893  -4.523  0.00  0.00    +0.138 C 
BRANCH  19  20
ATOM     20  N   UNL     1       5.258  -5.886  -5.335  0.00  0.00    -0.292 NA
ATOM     21  C   UNL     1       4.552  -5.654  -6.604  0.00  0.00    +0.116 C 
ATOM     22  C   UNL     1       5.276  -4.558  -7.390  0.00  0.00    +0.130 C 
ATOM     23  O   UNL     1       6.639  -4.943  -7.591  0.00  0.00    -0.371 OA
ATOM     24  C   UNL     1       7.356  -5.177  -6.376  0.00  0.00    +0.130 C 
ATOM     25  C   UNL     1       6.653  -6.279  -5.579  0.00  0.00    +0.116 C 
ATOM     26  C   UNL     1       7.392  -3.891  -5.548  0.00  0.00    +0.039 C 
ATOM     27  C   UNL     1       4.593  -4.366  -8.746  0.00  0.00    +0.039 C 
ENDBRANCH  19  20
ENDBRANCH   4  19
TORSDOF 4
