REMARK  Name = ZINC06282247
REMARK  8 active torsions:
REMARK  status: ('A' for Active; 'I' for Inactive)
REMARK    1  A    between atoms: C_1  and  C_2
REMARK    2  A    between atoms: C_5  and  C_31
REMARK    3  A    between atoms: C_6  and  C_8
REMARK    4  A    between atoms: N_16  and  C_19
REMARK    5  A    between atoms: C_19  and  C_20
REMARK    6  A    between atoms: C_26  and  C_27
REMARK    7  A    between atoms: C_26  and  C_29
REMARK    8  A    between atoms: C_27  and  O_28
REMARK                            x       y       z     vdW  Elec       q    Type
REMARK                         _______ _______ _______ _____ _____    ______ ____
ROOT
ATOM      1  C   UNL     1       2.486   1.478   0.010  0.00  0.00    -0.026 C 
ATOM      2  C   UNL     1       2.793   0.942   1.399  0.00  0.00    +0.077 C 
ATOM      3  C   UNL     1       3.485   2.226   1.997  0.00  0.00    +0.088 C 
ATOM      4  C   UNL     1       3.455   1.943   3.410  0.00  0.00    +0.225 C 
ATOM      5  O   UNL     1       4.280   2.254   4.242  0.00  0.00    -0.275 OA
ATOM      6  N   UNL     1       2.291   1.243   3.609  0.00  0.00    -0.237 N 
ATOM      7  C   UNL     1       1.726   0.814   2.441  0.00  0.00    +0.225 C 
ATOM      8  O   UNL     1       0.594   0.413   2.281  0.00  0.00    -0.275 OA
ATOM      9  C   UNL     1       4.434   2.586   0.929  0.00  0.00    +0.071 C 
ATOM     10  N   UNL     1       3.600   2.413  -0.301  0.00  0.00    +0.397 N 
ATOM     11  H   UNL     1       3.218   3.321  -0.591  0.00  0.00    -0.083 HD
ATOM     12  H   UNL     1       4.175   2.026  -1.058  0.00  0.00    -0.083 HD
ENDROOT
BRANCH   1  18
ATOM     13  C   UNL     1      -0.116   5.707   0.632  0.00  0.00    +0.044 C 
ATOM     14  C   UNL     1      -0.075   4.235   0.311  0.00  0.00    -0.050 A 
ATOM     15  C   UNL     1      -1.245   3.558   0.021  0.00  0.00    +0.003 A 
ATOM     16  C   UNL     1      -1.206   2.209  -0.278  0.00  0.00    +0.004 A 
ATOM     17  C   UNL     1       0.001   1.535  -0.276  0.00  0.00    -0.049 A 
ATOM     18  C   UNL     1       1.170   2.212   0.014  0.00  0.00    -0.057 A 
ATOM     19  C   UNL     1       1.132   3.562   0.308  0.00  0.00    +0.005 A 
ATOM     20  C   UNL     1       0.042   0.063  -0.597  0.00  0.00    +0.044 C 
ENDBRANCH   1  18
BRANCH   9  21
ATOM     21  C   UNL     1       5.612   1.647   0.915  0.00  0.00    +0.348 C 
ATOM     22  O   UNL     1       5.991   1.137   1.943  0.00  0.00    -0.248 OA
ATOM     23  O   UNL     1       6.241   1.376  -0.240  0.00  0.00    -0.248 OA
ENDBRANCH   9  21
BRANCH   6  24
ATOM     24  C   UNL     1       1.716   0.985   4.932  0.00  0.00    +0.151 C 
BRANCH  24  25
ATOM     25  C   UNL     1       2.259  -0.313   5.471  0.00  0.00    -0.030 A 
ATOM     26  C   UNL     1       1.597  -1.499   5.213  0.00  0.00    +0.005 A 
ATOM     27  C   UNL     1       2.098  -2.691   5.703  0.00  0.00    +0.000 A 
ATOM     28  C   UNL     1       3.255  -2.695   6.460  0.00  0.00    +0.000 A 
ATOM     29  C   UNL     1       3.913  -1.508   6.723  0.00  0.00    +0.000 A 
ATOM     30  C   UNL     1       3.415  -0.317   6.229  0.00  0.00    +0.005 A 
ENDBRANCH  24  25
ENDBRANCH   6  24
BRANCH   9  31
ATOM     31  C   UNL     1       4.899   4.036   1.081  0.00  0.00    +0.155 C 
BRANCH  31  32
ATOM     32  O   UNL     1       5.615   4.431  -0.091  0.00  0.00    -0.396 OA
ATOM     33  H   UNL     1       5.940   5.342  -0.064  0.00  0.00    +0.209 HD
ENDBRANCH  31  32
ENDBRANCH   9  31
TORSDOF 6
