REMARK  Name = ZINC33005911
REMARK  10 active torsions:
REMARK  status: ('A' for Active; 'I' for Inactive)
REMARK    1  A    between atoms: C_1  and  C_2
REMARK    2  A    between atoms: N_5  and  C_13
REMARK    3  A    between atoms: C_13  and  C_14
REMARK    4  A    between atoms: C_17  and  C_20
REMARK    5  A    between atoms: N_22  and  C_23
REMARK    6  A    between atoms: C_23  and  C_24
REMARK    7  A    between atoms: C_24  and  C_25
REMARK    8  A    between atoms: C_25  and  N_26
REMARK    9  A    between atoms: N_26  and  C_27
REMARK   10  A    between atoms: N_26  and  C_28
REMARK                            x       y       z     vdW  Elec       q    Type
REMARK                         _______ _______ _______ _____ _____    ______ ____
ROOT
ATOM      1  C   UNL     1       1.249  -2.606  -1.444  0.00  0.00    -0.028 A 
ATOM      2  C   UNL     1       0.052  -2.882  -2.081  0.00  0.00    +0.006 A 
ATOM      3  C   UNL     1       0.049  -3.330  -3.386  0.00  0.00    +0.013 A 
ATOM      4  C   UNL     1       1.257  -3.516  -4.059  0.00  0.00    +0.037 A 
ATOM      5  C   UNL     1       2.461  -3.241  -3.409  0.00  0.00    +0.013 A 
ATOM      6  C   UNL     1       2.450  -2.788  -2.106  0.00  0.00    +0.006 A 
ENDROOT
BRANCH   4   7
ATOM      7  C   UNL     1       1.262  -4.002  -5.456  0.00  0.00    +0.244 C 
ATOM      8  O   UNL     1       2.315  -4.162  -6.040  0.00  0.00    -0.270 OA
ATOM      9  N   UNL     1       0.097  -4.266  -6.081  0.00  0.00    -0.311 N 
ATOM     10  H   UNL     1      -0.856  -4.121  -5.552  0.00  0.00    +0.149 HD
BRANCH   9  11
ATOM     11  C   UNL     1       0.102  -4.747  -7.465  0.00  0.00    +0.102 C 
BRANCH  11  12
ATOM     12  C   UNL     1      -1.338  -4.968  -7.933  0.00  0.00    +0.000 C 
BRANCH  12  13
ATOM     13  C   UNL     1      -1.334  -5.471  -9.378  0.00  0.00    -0.077 C 
BRANCH  13  14
ATOM     14  N   UNL     1      -2.716  -5.683  -9.827  0.00  0.00    +0.380 N 
ATOM     15  C   UNL     1      -3.351  -6.776  -9.079  0.00  0.00    -0.096 C 
ATOM     16  H   UNL     1      -3.282  -4.762  -9.624  0.00  0.00    -0.082 HD
BRANCH  14  17
ATOM     17  C   UNL     1      -2.767  -5.936 -11.273  0.00  0.00    -0.069 C 
ATOM     18  C   UNL     1      -2.187  -4.734 -12.021  0.00  0.00    -0.015 C 
ATOM     19  C   UNL     1      -2.240  -4.997 -13.528  0.00  0.00    -0.002 C 
ATOM     20  C   UNL     1      -3.693  -5.213 -13.957  0.00  0.00    -0.000 C 
ATOM     21  C   UNL     1      -4.272  -6.414 -13.209  0.00  0.00    -0.002 C 
ATOM     22  C   UNL     1      -4.220  -6.151 -11.702  0.00  0.00    -0.015 C 
ENDBRANCH  14  17
ENDBRANCH  13  14
ENDBRANCH  12  13
ENDBRANCH  11  12
ENDBRANCH   9  11
ENDBRANCH   4   7
BRANCH   1  23
ATOM     23  C   UNL     1       1.244  -2.111  -0.021  0.00  0.00    +0.160 C 
BRANCH  23  28
ATOM     24  C   UNL     1      -1.335   2.196   0.020  0.00  0.00    +0.071 C 
ATOM     25  C   UNL     1      -0.018   1.463   0.010  0.00  0.00    +0.103 A 
ATOM     26  C   UNL     1       0.002  -0.004   0.002  0.00  0.00    +0.273 A 
ATOM     27  O   UNL     1      -1.040  -0.634   0.008  0.00  0.00    -0.266 OA
ATOM     28  N   UNL     1       1.190  -0.647  -0.013  0.00  0.00    -0.301 N 
ATOM     29  C   UNL     1       2.353   0.097  -0.020  0.00  0.00    +0.071 A 
ATOM     30  C   UNL     1       3.592  -0.535  -0.036  0.00  0.00    +0.028 A 
ATOM     31  C   UNL     1       4.746   0.218  -0.044  0.00  0.00    +0.002 A 
ATOM     32  C   UNL     1       4.682   1.605  -0.035  0.00  0.00    +0.002 A 
ATOM     33  C   UNL     1       3.478   2.247  -0.020  0.00  0.00    +0.030 A 
ATOM     34  C   UNL     1       2.288   1.503  -0.012  0.00  0.00    +0.088 A 
ATOM     35  N   UNL     1       1.098   2.134   0.003  0.00  0.00    -0.245 NA
ENDBRANCH  23  28
ENDBRANCH   1  23
TORSDOF 8
