REMARK  Name = ZINC04600951
REMARK  7 active torsions:
REMARK  status: ('A' for Active; 'I' for Inactive)
REMARK    1  A    between atoms: C_1  and  C_2
REMARK    2  A    between atoms: C_8  and  N_10
REMARK    3  A    between atoms: C_11  and  C_13
REMARK    4  A    between atoms: C_13  and  N_14
REMARK    5  A    between atoms: C_17  and  C_21
REMARK    6  A    between atoms: C_17  and  C_28
REMARK    7  A    between atoms: C_21  and  C_22
REMARK                            x       y       z     vdW  Elec       q    Type
REMARK                         _______ _______ _______ _____ _____    ______ ____
ROOT
ATOM      1  N   UNL     1       4.214  -2.317  -1.578  0.00  0.00    -0.215 N 
ATOM      2  C   UNL     1       4.154  -0.976  -1.462  0.00  0.00    +0.252 C 
ATOM      3  O   UNL     1       4.403  -0.155  -2.318  0.00  0.00    -0.272 OA
ATOM      4  C   UNL     1       3.711  -0.707  -0.037  0.00  0.00    +0.142 C 
ATOM      5  N   UNL     1       3.558  -2.055   0.538  0.00  0.00    -0.281 N 
ATOM      6  C   UNL     1       3.874  -2.927  -0.436  0.00  0.00    +0.310 C 
ATOM      7  O   UNL     1       3.852  -4.134  -0.296  0.00  0.00    -0.252 OA
ATOM      8  H   UNL     1       3.284  -2.271   1.443  0.00  0.00    +0.152 HD
ENDROOT
BRANCH   4   9
ATOM      9  C   UNL     1       2.396   0.029  -0.021  0.00  0.00    -0.015 A 
ATOM     10  C   UNL     1       1.208  -0.679  -0.013  0.00  0.00    +0.006 A 
ATOM     11  C   UNL     1       0.002  -0.004   0.002  0.00  0.00    +0.000 A 
ATOM     12  C   UNL     1      -0.017   1.378   0.010  0.00  0.00    +0.000 A 
ATOM     13  C   UNL     1       1.171   2.086   0.002  0.00  0.00    +0.000 A 
ATOM     14  C   UNL     1       2.377   1.411  -0.015  0.00  0.00    +0.006 A 
ENDBRANCH   4   9
BRANCH   1  15
ATOM     15  C   UNL     1       4.603  -3.021  -2.802  0.00  0.00    +0.213 C 
BRANCH  15  17
ATOM     16  N   UNL     1       6.682  -3.870  -3.841  0.00  0.00    -0.311 N 
ATOM     17  C   UNL     1       6.095  -3.238  -2.805  0.00  0.00    +0.231 C 
ATOM     18  O   UNL     1       6.766  -2.843  -1.876  0.00  0.00    -0.274 OA
ATOM     19  H   UNL     1       6.144  -4.185  -4.584  0.00  0.00    +0.149 HD
BRANCH  16  26
ATOM     20  C   UNL     1       7.774  -6.533  -4.164  0.00  0.00    +0.009 C 
ATOM     21  C   UNL     1       8.470  -5.288  -4.720  0.00  0.00    +0.006 C 
ATOM     22  C   UNL     1       7.989  -5.031  -6.149  0.00  0.00    +0.005 C 
ATOM     23  C   UNL     1       8.684  -3.787  -6.705  0.00  0.00    +0.000 C 
ATOM     24  C   UNL     1       8.346  -2.579  -5.829  0.00  0.00    +0.002 C 
ATOM     25  C   UNL     1       8.827  -2.836  -4.399  0.00  0.00    +0.022 C 
ATOM     26  C   UNL     1       8.131  -4.081  -3.843  0.00  0.00    +0.076 C 
ENDBRANCH  16  26
ENDBRANCH  15  17
ENDBRANCH   1  15
BRANCH   4  27
ATOM     27  C   UNL     1       4.779   0.086   0.718  0.00  0.00    +0.075 C 
BRANCH  27  28
ATOM     28  C   UNL     1       6.082  -0.670   0.687  0.00  0.00    -0.045 A 
ATOM     29  C   UNL     1       6.381  -1.573   1.690  0.00  0.00    +0.004 A 
ATOM     30  C   UNL     1       7.575  -2.270   1.659  0.00  0.00    +0.000 A 
ATOM     31  C   UNL     1       8.474  -2.057   0.631  0.00  0.00    +0.000 A 
ATOM     32  C   UNL     1       8.177  -1.149  -0.369  0.00  0.00    +0.000 A 
ATOM     33  C   UNL     1       6.981  -0.456  -0.341  0.00  0.00    +0.004 A 
ENDBRANCH  27  28
ENDBRANCH   4  27
TORSDOF 6
