REMARK  Name = ZINC12804750
REMARK  10 active torsions:
REMARK  status: ('A' for Active; 'I' for Inactive)
REMARK    1  A    between atoms: C_1  and  C_2
REMARK    2  A    between atoms: C_2  and  C_4
REMARK    3  A    between atoms: C_2  and  N_14
REMARK    4  A    between atoms: C_15  and  C_17
REMARK    5  A    between atoms: C_17  and  N_18
REMARK    6  A    between atoms: C_21  and  C_25
REMARK    7  A    between atoms: C_21  and  C_26
REMARK    8  A    between atoms: C_29  and  C_32
REMARK    9  A    between atoms: C_32  and  C_33
REMARK   10  A    between atoms: C_32  and  C_34
REMARK                            x       y       z     vdW  Elec       q    Type
REMARK                         _______ _______ _______ _____ _____    ______ ____
ROOT
ATOM      1  N   UNL     1      -0.150  -1.201   4.706  0.00  0.00    -0.215 N 
ATOM      2  C   UNL     1      -0.377  -0.185   5.562  0.00  0.00    +0.251 C 
ATOM      3  O   UNL     1       0.131   0.916   5.543  0.00  0.00    -0.272 OA
ATOM      4  C   UNL     1      -1.399  -0.705   6.553  0.00  0.00    +0.135 C 
ATOM      5  N   UNL     1      -1.654  -2.082   6.098  0.00  0.00    -0.281 N 
ATOM      6  C   UNL     1      -0.883  -2.277   5.013  0.00  0.00    +0.310 C 
ATOM      7  O   UNL     1      -0.854  -3.316   4.383  0.00  0.00    -0.252 OA
ATOM      8  C   UNL     1      -2.681   0.128   6.491  0.00  0.00    +0.047 C 
ATOM      9  H   UNL     1      -2.261  -2.723   6.500  0.00  0.00    +0.152 HD
ENDROOT
BRANCH   4  10
ATOM     10  C   UNL     1      -0.832  -0.704   7.950  0.00  0.00    -0.015 A 
ATOM     11  C   UNL     1       0.114   0.236   8.311  0.00  0.00    +0.006 A 
ATOM     12  C   UNL     1       0.634   0.237   9.592  0.00  0.00    +0.004 A 
ATOM     13  C   UNL     1       0.208  -0.703  10.511  0.00  0.00    -0.045 A 
ATOM     14  C   UNL     1      -0.739  -1.643  10.150  0.00  0.00    +0.004 A 
ATOM     15  C   UNL     1      -1.263  -1.641   8.871  0.00  0.00    +0.006 A 
BRANCH  13  16
ATOM     16  C   UNL     1       0.775  -0.703  11.907  0.00  0.00    +0.013 C 
ATOM     17  C   UNL     1      -0.355  -0.495  12.918  0.00  0.00    +0.012 C 
ATOM     18  C   UNL     1       1.462  -2.043  12.179  0.00  0.00    +0.012 C 
ENDBRANCH  13  16
ENDBRANCH   4  10
BRANCH   1  19
ATOM     19  C   UNL     1       0.780  -1.133   3.576  0.00  0.00    +0.213 C 
BRANCH  19  21
ATOM     20  N   UNL     1       0.711  -0.489   1.189  0.00  0.00    -0.311 N 
ATOM     21  C   UNL     1       0.051  -0.633   2.355  0.00  0.00    +0.231 C 
ATOM     22  O   UNL     1      -1.129  -0.361   2.423  0.00  0.00    -0.274 OA
ATOM     23  H   UNL     1       1.654  -0.707   1.135  0.00  0.00    +0.149 HD
BRANCH  20  25
ATOM     24  C   UNL     1      -0.019   1.526   0.010  0.00  0.00    +0.028 C 
ATOM     25  C   UNL     1       0.002  -0.004   0.002  0.00  0.00    +0.076 C 
BRANCH  25  26
ATOM     26  C   UNL     1       0.718  -0.497  -1.257  0.00  0.00    -0.010 C 
ATOM     27  C   UNL     1       2.154   0.032  -1.268  0.00  0.00    +0.012 C 
ATOM     28  C   UNL     1       2.870  -0.461  -2.526  0.00  0.00    -0.010 C 
ATOM     29  C   UNL     1       2.130   0.045  -3.766  0.00  0.00    +0.007 C 
ATOM     30  C   UNL     1       0.694  -0.484  -3.755  0.00  0.00    -0.010 C 
ATOM     31  C   UNL     1      -0.022   0.009  -2.496  0.00  0.00    +0.012 C 
ATOM     32  C   UNL     1       0.715  -2.014  -3.764  0.00  0.00    +0.007 C 
ATOM     33  C   UNL     1       1.455  -2.521  -2.524  0.00  0.00    -0.010 C 
ATOM     34  C   UNL     1       2.890  -1.991  -2.535  0.00  0.00    +0.007 C 
ATOM     35  C   UNL     1       0.739  -2.027  -1.265  0.00  0.00    +0.012 C 
ENDBRANCH  25  26
ENDBRANCH  20  25
ENDBRANCH  19  21
ENDBRANCH   1  19
TORSDOF 6
