REMARK  Name = ZINC39652779
REMARK  9 active torsions:
REMARK  status: ('A' for Active; 'I' for Inactive)
REMARK    1  A    between atoms: C_1  and  C_2
REMARK    2  A    between atoms: C_2  and  O_3
REMARK    3  A    between atoms: O_3  and  C_4
REMARK    4  A    between atoms: C_9  and  C_10
REMARK    5  A    between atoms: C_10  and  C_11
REMARK    6  A    between atoms: C_11  and  N_12
REMARK    7  A    between atoms: C_13  and  C_15
REMARK    8  A    between atoms: C_26  and  C_28
REMARK    9  A    between atoms: C_31  and  C_33
REMARK                            x       y       z     vdW  Elec       q    Type
REMARK                         _______ _______ _______ _____ _____    ______ ____
ROOT
ATOM      1  C   UNL     1       5.772   1.369  -4.949  0.00  0.00    +0.100 C 
ATOM      2  C   UNL     1       4.861   2.603  -5.131  0.00  0.00    +0.121 C 
ATOM      3  N   UNL     1       5.445   3.635  -4.242  0.00  0.00    -0.294 N 
ATOM      4  C   UNL     1       6.910   3.465  -4.394  0.00  0.00    +0.115 C 
ATOM      5  C   UNL     1       7.117   1.939  -4.469  0.00  0.00    -0.004 C 
ATOM      6  C   UNL     1       7.463   1.387  -3.089  0.00  0.00    -0.010 C 
ATOM      7  C   UNL     1       8.830   1.923  -2.657  0.00  0.00    -0.082 C 
ATOM      8  N   UNL     1       9.847   1.521  -3.636  0.00  0.00    +0.379 N 
ATOM      9  C   UNL     1       9.558   2.132  -4.939  0.00  0.00    -0.082 C 
ATOM     10  C   UNL     1       8.221   1.605  -5.467  0.00  0.00    -0.010 C 
ATOM     11  C   UNL     1       4.792   4.526  -3.471  0.00  0.00    +0.282 C 
ATOM     12  O   UNL     1       5.420   5.317  -2.791  0.00  0.00    -0.267 OA
ATOM     13  H   UNL     1      10.756   1.823  -3.319  0.00  0.00    -0.086 HD
ATOM     14  H   UNL     1       9.843   0.516  -3.730  0.00  0.00    -0.086 HD
ENDROOT
BRANCH  11  15
ATOM     15  C   UNL     1       3.327   4.544  -3.450  0.00  0.00    +0.190 A 
ATOM     16  C   UNL     1       2.538   5.401  -2.715  0.00  0.00    +0.055 A 
ATOM     17  C   UNL     1       1.210   5.067  -2.995  0.00  0.00    +0.050 A 
ATOM     18  C   UNL     1       1.235   4.029  -3.882  0.00  0.00    +0.136 A 
ATOM     19  O   UNL     1       2.515   3.726  -4.153  0.00  0.00    -0.450 OA
BRANCH  18  20
ATOM     20  C   UNL     1       0.051   3.355  -4.452  0.00  0.00    +0.017 A 
ATOM     21  C   UNL     1      -1.233   3.773  -4.097  0.00  0.00    +0.011 A 
ATOM     22  C   UNL     1      -2.335   3.140  -4.634  0.00  0.00    +0.001 A 
ATOM     23  C   UNL     1      -2.169   2.092  -5.523  0.00  0.00    +0.000 A 
ATOM     24  C   UNL     1      -0.899   1.673  -5.879  0.00  0.00    +0.001 A 
ATOM     25  C   UNL     1       0.211   2.301  -5.354  0.00  0.00    +0.011 A 
ENDBRANCH  18  20
ENDBRANCH  11  15
BRANCH   1  27
ATOM     26  N   UNL     1       5.451  -0.882  -3.977  0.00  0.00    -0.315 N 
ATOM     27  C   UNL     1       5.196   0.439  -3.913  0.00  0.00    +0.218 C 
ATOM     28  O   UNL     1       4.503   0.880  -3.021  0.00  0.00    -0.275 OA
ATOM     29  H   UNL     1       6.006  -1.235  -4.690  0.00  0.00    +0.149 HD
BRANCH  26  30
ATOM     30  C   UNL     1       4.891  -1.786  -2.970  0.00  0.00    +0.109 C 
BRANCH  30  31
ATOM     31  C   UNL     1       5.330  -3.221  -3.271  0.00  0.00    +0.057 C 
BRANCH  31  37
ATOM     32  C   UNL     1       3.470  -4.652  -2.389  0.00  0.00    +0.124 A 
ATOM     33  C   UNL     1       2.944  -5.513  -1.436  0.00  0.00    +0.046 A 
ATOM     34  C   UNL     1       3.698  -5.863  -0.333  0.00  0.00    +0.004 A 
ATOM     35  C   UNL     1       4.976  -5.357  -0.178  0.00  0.00    +0.000 A 
ATOM     36  C   UNL     1       5.501  -4.500  -1.126  0.00  0.00    +0.007 A 
ATOM     37  C   UNL     1       4.753  -4.151  -2.234  0.00  0.00    -0.004 A 
BRANCH  32  38
ATOM     38  O   UNL     1       2.730  -4.307  -3.475  0.00  0.00    -0.492 OA
BRANCH  38  40
ATOM     39  C   UNL     1       0.742  -4.362  -4.849  0.00  0.00    +0.048 C 
ATOM     40  C   UNL     1       1.416  -4.861  -3.569  0.00  0.00    +0.225 C 
ENDBRANCH  38  40
ENDBRANCH  32  38
ENDBRANCH  31  37
ENDBRANCH  30  31
ENDBRANCH  26  30
ENDBRANCH   1  27
TORSDOF 8
