REMARK  Name = ZINC43766997
REMARK  11 active torsions:
REMARK  status: ('A' for Active; 'I' for Inactive)
REMARK    1  A    between atoms: C_1  and  C_2
REMARK    2  A    between atoms: C_2  and  C_3
REMARK    3  A    between atoms: C_2  and  C_4
REMARK    4  A    between atoms: C_4  and  O_32
REMARK    5  A    between atoms: C_6  and  O_31
REMARK    6  A    between atoms: C_8  and  C_30
REMARK    7  A    between atoms: C_11  and  O_20
REMARK    8  A    between atoms: C_14  and  C_19
REMARK    9  A    between atoms: O_20  and  C_21
REMARK   10  A    between atoms: C_21  and  C_23
REMARK   11  A    between atoms: C_26  and  O_29
REMARK                            x       y       z     vdW  Elec       q    Type
REMARK                         _______ _______ _______ _____ _____    ______ ____
ROOT
ATOM      1  C   UNL     1      -0.730  -0.733  -0.865  0.00  0.00    +0.077 C 
ATOM      2  C   UNL     1      -1.698   0.206  -0.084  0.00  0.00    +0.067 C 
ATOM      3  C   UNL     1      -2.971  -0.666   0.107  0.00  0.00    +0.124 C 
ATOM      4  C   UNL     1      -2.349  -2.037   0.564  0.00  0.00    +0.005 C 
ATOM      5  C   UNL     1      -1.161  -2.094  -0.513  0.00  0.00    +0.070 C 
ATOM      6  C   UNL     1      -0.541  -3.451  -0.469  0.00  0.00    +0.186 C 
ATOM      7  C   UNL     1       0.797  -3.587   0.325  0.00  0.00    +0.082 C 
ATOM      8  C   UNL     1       0.587  -2.987   1.714  0.00  0.00    +0.097 C 
ATOM      9  C   UNL     1      -0.835  -2.994   2.223  0.00  0.00    +0.151 C 
ATOM     10  C   UNL     1      -1.639  -1.789   1.908  0.00  0.00    +0.044 C 
ATOM     11  O   UNL     1       0.174  -3.582   2.914  0.00  0.00    -0.365 OA
ATOM     12  C   UNL     1       1.535  -1.826   2.041  0.00  0.00    +0.044 C 
ATOM     13  C   UNL     1      -3.378  -3.200   0.539  0.00  0.00    +0.014 C 
ENDROOT
BRANCH   1  15
ATOM     14  C   UNL     1       1.629  -1.209  -1.505  0.00  0.00    +0.010 C 
ATOM     15  C   UNL     1       0.723  -0.392  -0.582  0.00  0.00    +0.015 C 
ATOM     16  C   UNL     1       0.955   1.100  -0.830  0.00  0.00    +0.010 C 
ENDBRANCH   1  15
BRANCH   3  17
ATOM     17  O   UNL     1      -3.819  -0.116   1.117  0.00  0.00    -0.391 OA
ATOM     18  H   UNL     1      -4.147   0.771   0.915  0.00  0.00    +0.210 HD
ENDBRANCH   3  17
BRANCH   1  19
ATOM     19  O   UNL     1      -0.966  -0.519  -2.281  0.00  0.00    -0.388 OA
ATOM     20  H   UNL     1      -0.797   0.387  -2.576  0.00  0.00    +0.210 HD
ENDBRANCH   1  19
BRANCH   6  21
ATOM     21  O   UNL     1      -0.275  -3.856  -1.826  0.00  0.00    -0.457 OA
BRANCH  21  22
ATOM     22  C   UNL     1      -0.315  -5.177  -2.088  0.00  0.00    +0.339 C 
ATOM     23  O   UNL     1      -0.566  -5.966  -1.199  0.00  0.00    -0.245 OA
BRANCH  22  24
ATOM     24  C   UNL     1      -0.052  -5.666  -3.455  0.00  0.00    +0.059 A 
ATOM     25  C   UNL     1       0.243  -4.760  -4.478  0.00  0.00    +0.018 A 
ATOM     26  C   UNL     1       0.487  -5.221  -5.753  0.00  0.00    +0.046 A 
ATOM     27  C   UNL     1       0.440  -6.583  -6.023  0.00  0.00    +0.117 A 
ATOM     28  C   UNL     1       0.147  -7.487  -5.008  0.00  0.00    +0.046 A 
ATOM     29  C   UNL     1      -0.093  -7.036  -3.730  0.00  0.00    +0.018 A 
BRANCH  27  30
ATOM     30  O   UNL     1       0.681  -7.033  -7.280  0.00  0.00    -0.507 OA
ATOM     31  H   UNL     1       1.611  -7.230  -7.456  0.00  0.00    +0.292 HD
ENDBRANCH  27  30
ENDBRANCH  22  24
ENDBRANCH  21  22
ENDBRANCH   6  21
TORSDOF 7
