REMARK  Name = ZINC40844578
REMARK  9 active torsions:
REMARK  status: ('A' for Active; 'I' for Inactive)
REMARK    1  A    between atoms: C_1  and  C_2
REMARK    2  A    between atoms: C_2  and  O_3
REMARK    3  A    between atoms: O_3  and  C_4
REMARK    4  A    between atoms: C_4  and  C_6
REMARK    5  A    between atoms: C_7  and  N_27
REMARK    6  A    between atoms: C_19  and  C_21
REMARK    7  A    between atoms: C_28  and  C_30
REMARK    8  A    between atoms: C_30  and  O_31
REMARK    9  A    between atoms: O_31  and  C_32
REMARK                            x       y       z     vdW  Elec       q    Type
REMARK                         _______ _______ _______ _____ _____    ______ ____
ROOT
ATOM      1  C   UNL     1      -2.789  -2.394   0.009  0.00  0.00    +0.106 C 
ATOM      2  C   UNL     1      -2.940  -3.738  -0.087  0.00  0.00    +0.204 C 
ATOM      3  O   UNL     1      -4.152  -4.312  -0.074  0.00  0.00    -0.441 OA
ATOM      4  C   UNL     1      -5.256  -3.579  -0.368  0.00  0.00    +0.135 A 
ATOM      5  C   UNL     1      -6.426  -4.248  -0.758  0.00  0.00    +0.047 A 
ATOM      6  C   UNL     1      -7.559  -3.565  -1.064  0.00  0.00    +0.012 A 
ATOM      7  C   UNL     1      -7.567  -2.161  -0.991  0.00  0.00    -0.017 A 
ATOM      8  C   UNL     1      -8.721  -1.420  -1.301  0.00  0.00    +0.008 A 
ATOM      9  C   UNL     1      -8.690  -0.062  -1.219  0.00  0.00    +0.001 A 
ATOM     10  C   UNL     1      -7.531   0.608  -0.833  0.00  0.00    +0.001 A 
ATOM     11  C   UNL     1      -6.396  -0.076  -0.525  0.00  0.00    +0.009 A 
ATOM     12  C   UNL     1      -6.389  -1.480  -0.598  0.00  0.00    -0.010 A 
ATOM     13  C   UNL     1      -5.232  -2.217  -0.287  0.00  0.00    +0.015 A 
ATOM     14  C   UNL     1      -3.983  -1.490   0.139  0.00  0.00    +0.095 C 
ENDROOT
BRANCH  14  15
ATOM     15  C   UNL     1      -4.120  -1.048   1.573  0.00  0.00    -0.035 A 
ATOM     16  C   UNL     1      -4.293  -1.987   2.572  0.00  0.00    +0.004 A 
ATOM     17  C   UNL     1      -4.420  -1.581   3.887  0.00  0.00    +0.000 A 
ATOM     18  C   UNL     1      -4.372  -0.236   4.203  0.00  0.00    +0.000 A 
ATOM     19  C   UNL     1      -4.198   0.703   3.204  0.00  0.00    +0.000 A 
ATOM     20  C   UNL     1      -4.068   0.297   1.889  0.00  0.00    +0.004 A 
ENDBRANCH  14  15
BRANCH   2  21
ATOM     21  N   UNL     1      -1.822  -4.532  -0.201  0.00  0.00    -0.253 N 
ATOM     22  C   UNL     1      -1.955  -5.858  -0.405  0.00  0.00    +0.257 C 
ATOM     23  O   UNL     1      -3.060  -6.350  -0.489  0.00  0.00    -0.272 OA
ATOM     24  H   UNL     1      -0.938  -4.139  -0.134  0.00  0.00    +0.158 HD
BRANCH  22  25
ATOM     25  C   UNL     1      -0.731  -6.728  -0.529  0.00  0.00    +0.325 C 
BRANCH  25  26
ATOM     26  O   UNL     1      -1.130  -8.084  -0.741  0.00  0.00    -0.481 OA
BRANCH  26  27
ATOM     27  C   UNL     1      -0.139  -9.005  -0.875  0.00  0.00    +0.139 A 
ATOM     28  C   UNL     1       1.189  -8.613  -0.798  0.00  0.00    +0.047 A 
ATOM     29  C   UNL     1       2.194  -9.551  -0.934  0.00  0.00    +0.004 A 
ATOM     30  C   UNL     1       1.878 -10.880  -1.147  0.00  0.00    +0.002 A 
ATOM     31  C   UNL     1       0.555 -11.274  -1.223  0.00  0.00    +0.023 A 
ATOM     32  C   UNL     1      -0.455 -10.341  -1.082  0.00  0.00    +0.083 A 
ATOM     33 CL   UNL     1      -2.116 -10.837  -1.171  0.00  0.00    -0.080 Cl
ENDBRANCH  26  27
ENDBRANCH  25  26
ENDBRANCH  22  25
ENDBRANCH   2  21
BRANCH   1  34
ATOM     34  C   UNL     1      -1.498  -1.839  -0.008  0.00  0.00    +0.341 C 
ATOM     35  O   UNL     1      -1.059  -1.348  -1.033  0.00  0.00    -0.245 OA
BRANCH  34  36
ATOM     36  O   UNL     1      -0.744  -1.849   1.112  0.00  0.00    -0.462 OA
BRANCH  36  38
ATOM     37  C   UNL     1       1.257  -1.371   2.380  0.00  0.00    +0.048 C 
ATOM     38  C   UNL     1       0.558  -1.267   1.023  0.00  0.00    +0.229 C 
ENDBRANCH  36  38
ENDBRANCH  34  36
ENDBRANCH   1  34
TORSDOF 8
