REMARK  Name = ZINC21010780
REMARK  6 active torsions:
REMARK  status: ('A' for Active; 'I' for Inactive)
REMARK    1  A    between atoms: C_1  and  C_2
REMARK    2  A    between atoms: C_2  and  C_4
REMARK    3  A    between atoms: C_2  and  N_12
REMARK    4  A    between atoms: N_12  and  C_13
REMARK    5  A    between atoms: C_13  and  C_14
REMARK    6  A    between atoms: C_18  and  N_20
REMARK                            x       y       z     vdW  Elec       q    Type
REMARK                         _______ _______ _______ _____ _____    ______ ____
ROOT
ATOM      1  N   UNL     1      -2.107   1.071   1.277  0.00  0.00    +0.386 N 
ATOM      2  H   UNL     1      -2.739   1.738   1.882  0.00  0.00    -0.085 HD
ATOM      3  H   UNL     1      -2.492   1.034   0.247  0.00  0.00    -0.085 HD
ENDROOT
BRANCH   1   5
ATOM      4  C   UNL     1      -0.013   1.086   0.008  0.00  0.00    -0.009 C 
ATOM      5  C   UNL     1      -0.729   1.579   1.267  0.00  0.00    -0.044 C 
BRANCH   5   6
ATOM      6  C   UNL     1      -0.749   3.086   1.275  0.00  0.00    -0.060 A 
ATOM      7  C   UNL     1      -1.680   3.769   0.513  0.00  0.00    +0.003 A 
ATOM      8  C   UNL     1      -1.703   5.151   0.524  0.00  0.00    +0.021 A 
ATOM      9  C   UNL     1      -0.787   5.852   1.289  0.00  0.00    +0.059 A 
ATOM     10  C   UNL     1       0.147   5.168   2.047  0.00  0.00    +0.059 A 
ATOM     11  C   UNL     1       0.166   3.785   2.040  0.00  0.00    +0.023 A 
ATOM     12 CL   UNL     1       1.297   6.047   3.007  0.00  0.00    -0.082 Cl
ATOM     13 CL   UNL     1      -0.811   7.588   1.296  0.00  0.00    -0.082 Cl
ENDBRANCH   5   6
ENDBRANCH   1   5
BRANCH   1  14
ATOM     14  C   UNL     1      -2.165  -0.281   1.850  0.00  0.00    -0.046 C 
BRANCH  14  15
ATOM     15  C   UNL     1      -3.591  -0.768   1.844  0.00  0.00    -0.062 A 
ATOM     16  C   UNL     1      -4.081  -1.460   0.752  0.00  0.00    +0.002 A 
ATOM     17  C   UNL     1      -5.388  -1.907   0.747  0.00  0.00    +0.002 A 
ATOM     18  C   UNL     1      -6.207  -1.662   1.833  0.00  0.00    +0.033 A 
ATOM     19  C   UNL     1      -5.718  -0.970   2.925  0.00  0.00    +0.126 A 
ATOM     20  C   UNL     1      -4.408  -0.527   2.933  0.00  0.00    +0.034 A 
BRANCH  19  21
ATOM     21  N   UNL     1      -6.595  -0.708   4.089  0.00  0.00    +0.056 N 
ATOM     22  O   UNL     1      -7.747  -1.103   4.084  0.00  0.00    -0.126 OA
ATOM     23  O   UNL     1      -6.163  -0.098   5.051  0.00  0.00    -0.126 OA
ENDBRANCH  19  21
ENDBRANCH  14  15
ENDBRANCH   1  14
TORSDOF 5
