REMARK  Name = ZINC17026637
REMARK  11 active torsions:
REMARK  status: ('A' for Active; 'I' for Inactive)
REMARK    1  A    between atoms: C_1  and  C_2
REMARK    2  A    between atoms: C_5  and  C_37
REMARK    3  A    between atoms: C_6  and  N_8
REMARK    4  A    between atoms: C_9  and  C_26
REMARK    5  A    between atoms: C_12  and  S_13
REMARK    6  A    between atoms: S_13  and  C_14
REMARK    7  A    between atoms: C_14  and  C_15
REMARK    8  A    between atoms: N_17  and  C_18
REMARK    9  A    between atoms: C_18  and  C_19
REMARK   10  A    between atoms: C_19  and  C_20
REMARK   11  A    between atoms: C_26  and  C_27
REMARK                            x       y       z     vdW  Elec       q    Type
REMARK                         _______ _______ _______ _____ _____    ______ ____
ROOT
ATOM      1  N   UNL     1      -0.220  12.854  -4.904  0.00  0.00    -0.274 N 
ATOM      2  C   UNL     1      -0.230  14.032  -4.206  0.00  0.00    +0.144 A 
ATOM      3  N   UNL     1      -0.214  13.732  -2.938  0.00  0.00    -0.133 NA
ATOM      4  N   UNL     1      -0.200  12.456  -2.786  0.00  0.00    -0.122 NA
ATOM      5  C   UNL     1      -0.197  11.865  -3.959  0.00  0.00    +0.197 A 
ENDROOT
BRANCH   1  11
ATOM      6  C   UNL     1      -2.752  12.338  -9.089  0.00  0.00    +0.044 C 
ATOM      7  C   UNL     1      -1.443  12.441  -8.350  0.00  0.00    -0.048 A 
ATOM      8  C   UNL     1      -0.250  12.379  -9.046  0.00  0.00    +0.004 A 
ATOM      9  C   UNL     1       0.953  12.474  -8.371  0.00  0.00    +0.005 A 
ATOM     10  C   UNL     1       0.966  12.632  -6.999  0.00  0.00    -0.026 A 
ATOM     11  C   UNL     1      -0.230  12.694  -6.298  0.00  0.00    +0.053 A 
ATOM     12  C   UNL     1      -1.436  12.593  -6.977  0.00  0.00    +0.030 A 
ATOM     13  C   UNL     1       2.278  12.735  -6.264  0.00  0.00    +0.046 C 
ENDBRANCH   1  11
BRANCH   5  14
ATOM     14  S   UNL     1      -0.176  10.129  -4.258  0.00  0.00    -0.076 S 
BRANCH  14  15
ATOM     15  C   UNL     1      -0.152   9.517  -2.555  0.00  0.00    +0.173 C 
BRANCH  15  16
ATOM     16  C   UNL     1      -0.131   8.010  -2.564  0.00  0.00    +0.223 C 
ATOM     17  O   UNL     1      -0.133   7.409  -3.617  0.00  0.00    -0.275 OA
ATOM     18  N   UNL     1      -0.111   7.330  -1.400  0.00  0.00    -0.314 N 
ATOM     19  H   UNL     1      -0.110   7.810  -0.558  0.00  0.00    +0.149 HD
BRANCH  18  20
ATOM     20  C   UNL     1      -0.091   5.865  -1.409  0.00  0.00    +0.109 C 
BRANCH  20  21
ATOM     21  C   UNL     1      -0.070   5.347   0.031  0.00  0.00    +0.054 C 
BRANCH  21  22
ATOM     22  C   UNL     1      -0.050   3.840   0.023  0.00  0.00    -0.046 A 
ATOM     23  C   UNL     1       1.156   3.165   0.008  0.00  0.00    +0.004 A 
ATOM     24  C   UNL     1       1.175   1.783   0.000  0.00  0.00    +0.000 A 
ATOM     25  C   UNL     1      -0.013   1.076   0.008  0.00  0.00    +0.000 A 
ATOM     26  C   UNL     1      -1.219   1.751   0.017  0.00  0.00    +0.000 A 
ATOM     27  C   UNL     1      -1.238   3.133   0.030  0.00  0.00    +0.004 A 
ENDBRANCH  21  22
ENDBRANCH  20  21
ENDBRANCH  18  20
ENDBRANCH  15  16
ENDBRANCH  14  15
ENDBRANCH   5  14
BRANCH   2  28
ATOM     28  C   UNL     1      -0.253  15.419  -4.795  0.00  0.00    +0.130 C 
BRANCH  28  29
ATOM     29  C   UNL     1      -1.682  15.862  -4.979  0.00  0.00    +0.033 A 
ATOM     30  C   UNL     1      -2.289  16.605  -4.029  0.00  0.00    +0.091 A 
ATOM     31  C   UNL     1      -3.632  17.009  -4.224  0.00  0.00    +0.254 A 
ATOM     32  O   UNL     1      -4.201  17.680  -3.382  0.00  0.00    -0.268 OA
ATOM     33  N   UNL     1      -4.275  16.645  -5.352  0.00  0.00    -0.275 N 
ATOM     34  H   UNL     1      -5.223  16.927  -5.498  0.00  0.00    +0.173 HD
ATOM     35  C   UNL     1      -3.645  15.904  -6.283  0.00  0.00    +0.327 A 
ATOM     36  O   UNL     1      -4.238  15.584  -7.295  0.00  0.00    -0.247 OA
ATOM     37  N   UNL     1      -2.368  15.519  -6.112  0.00  0.00    -0.311 N 
ATOM     38  H   UNL     1      -1.915  14.976  -6.819  0.00  0.00    +0.170 HD
ENDBRANCH  28  29
ENDBRANCH   2  28
TORSDOF 9
