REMARK  Name = ZINC12542719
REMARK  11 active torsions:
REMARK  status: ('A' for Active; 'I' for Inactive)
REMARK    1  A    between atoms: C_1  and  C_2
REMARK    2  A    between atoms: C_2  and  C_3
REMARK    3  A    between atoms: C_3  and  C_5
REMARK    4  A    between atoms: C_3  and  N_65
REMARK    5  A    between atoms: C_8  and  S_16
REMARK    6  A    between atoms: N_9  and  C_10
REMARK    7  A    between atoms: S_16  and  C_17
REMARK    8  A    between atoms: C_17  and  C_18
REMARK    9  A    between atoms: C_23  and  C_26
REMARK   10  A    between atoms: C_33  and  N_65
REMARK   11  A    between atoms: C_34  and  N_65
REMARK                            x       y       z     vdW  Elec       q    Type
REMARK                         _______ _______ _______ _____ _____    ______ ____
ROOT
ATOM      1  C   UNL     1      -1.849   2.855  -1.175  0.00  0.00    +0.121 A 
ATOM      2  N   UNL     1      -2.282   3.071  -2.385  0.00  0.00    -0.135 NA
ATOM      3  N   UNL     1      -1.494   2.521  -3.240  0.00  0.00    -0.123 NA
ATOM      4  C   UNL     1      -0.505   1.925  -2.615  0.00  0.00    +0.192 A 
ATOM      5  N   UNL     1      -0.699   2.123  -1.278  0.00  0.00    -0.304 N 
ENDROOT
BRANCH   5   6
ATOM      6  C   UNL     1       0.147   1.645  -0.182  0.00  0.00    +0.091 C 
ATOM      7  C   UNL     1       1.556   2.222  -0.336  0.00  0.00    +0.025 C 
ATOM      8  C   UNL     1       2.439   1.723   0.810  0.00  0.00    +0.002 C 
ATOM      9  C   UNL     1       2.507   0.195   0.773  0.00  0.00    +0.000 C 
ATOM     10  C   UNL     1       1.098  -0.382   0.927  0.00  0.00    +0.002 C 
ATOM     11  C   UNL     1       0.215   0.117  -0.218  0.00  0.00    +0.025 C 
ENDBRANCH   5   6
BRANCH   1  12
ATOM     12  C   UNL     1      -2.495   3.329   0.101  0.00  0.00    +0.000 C 
BRANCH  12  15
ATOM     13  C   UNL     1      -3.516   5.236   1.189  0.00  0.00    -0.096 C 
ATOM     14  C   UNL     1      -1.753   5.570  -0.437  0.00  0.00    -0.096 C 
ATOM     15  N   UNL     1      -2.916   4.736  -0.066  0.00  0.00    +0.383 N 
ATOM     16  H   UNL     1      -3.616   4.788  -0.815  0.00  0.00    -0.082 HD
ENDBRANCH  12  15
BRANCH  12  18
ATOM     17  C   UNL     1      -3.297   1.033   0.676  0.00  0.00    +0.002 C 
ATOM     18  C   UNL     1      -3.729   2.474   0.396  0.00  0.00    -0.011 C 
ENDBRANCH  12  18
ENDBRANCH   1  12
BRANCH   4  19
ATOM     19  S   UNL     1       0.821   1.036  -3.361  0.00  0.00    -0.077 S 
BRANCH  19  20
ATOM     20  C   UNL     1       0.380   1.220  -5.107  0.00  0.00    +0.173 C 
BRANCH  20  21
ATOM     21  C   UNL     1       1.404   0.519  -5.961  0.00  0.00    +0.229 C 
ATOM     22  O   UNL     1       2.341  -0.050  -5.441  0.00  0.00    -0.275 OA
ATOM     23  N   UNL     1       1.280   0.523  -7.303  0.00  0.00    -0.264 N 
ATOM     24  C   UNL     1       2.224  -0.124  -8.090  0.00  0.00    +0.165 A 
ATOM     25  N   UNL     1       2.282  -0.235  -9.404  0.00  0.00    -0.225 NA
ATOM     26  C   UNL     1       3.266  -0.895  -9.996  0.00  0.00    +0.080 A 
ATOM     27  C   UNL     1       4.241  -1.474  -9.232  0.00  0.00    +0.076 A 
ATOM     28  S   UNL     1       3.688  -1.021  -7.593  0.00  0.00    -0.060 S 
ATOM     29  H   UNL     1       0.531   0.977  -7.719  0.00  0.00    +0.157 HD
BRANCH  26  30
ATOM     30  C   UNL     1       3.310  -1.006 -11.475  0.00  0.00    +0.001 A 
ATOM     31  C   UNL     1       4.350  -1.696 -12.094  0.00  0.00    +0.013 A 
ATOM     32  C   UNL     1       4.384  -1.801 -13.469  0.00  0.00    +0.039 A 
ATOM     33  C   UNL     1       3.392  -1.212 -14.236  0.00  0.00    +0.123 A 
ATOM     34  C   UNL     1       2.359  -0.519 -13.625  0.00  0.00    +0.039 A 
ATOM     35  C   UNL     1       2.314  -0.414 -12.250  0.00  0.00    +0.013 A 
ATOM     36  F   UNL     1       3.433  -1.311 -15.582  0.00  0.00    -0.205 F 
ENDBRANCH  26  30
ENDBRANCH  20  21
ENDBRANCH  19  20
ENDBRANCH   4  19
TORSDOF 8
