REMARK  Name = ZINC22633527
REMARK  4 active torsions:
REMARK  status: ('A' for Active; 'I' for Inactive)
REMARK    1  A    between atoms: C_4  and  C_7
REMARK    2  A    between atoms: C_7  and  N_8
REMARK    3  A    between atoms: C_19  and  C_22
REMARK    4  A    between atoms: C_26  and  N_28
REMARK                            x       y       z     vdW  Elec       q    Type
REMARK                         _______ _______ _______ _____ _____    ______ ____
ROOT
ATOM      1  N   UNL     1       2.858   4.194  -1.389  0.00  0.00    -0.293 NA
ATOM      2  C   UNL     1       4.221   4.740  -1.445  0.00  0.00    +0.090 C 
ATOM      3  C   UNL     1       4.766   4.650  -2.873  0.00  0.00    +0.052 C 
ATOM      4  C   UNL     1       3.742   5.277  -3.814  0.00  0.00    -0.021 A 
ATOM      5  C   UNL     1       2.467   5.461  -3.399  0.00  0.00    +0.010 A 
ATOM      6  S   UNL     1       1.643   6.213  -4.776  0.00  0.00    -0.076 S 
ATOM      7  C   UNL     1       2.958   6.278  -5.871  0.00  0.00    +0.080 A 
ATOM      8  C   UNL     1       4.033   5.712  -5.168  0.00  0.00    +0.068 A 
ATOM      9  C   UNL     1       5.336   5.626  -5.866  0.00  0.00    +0.248 C 
ATOM     10  O   UNL     1       6.343   5.264  -5.286  0.00  0.00    -0.270 OA
ATOM     11  N   UNL     1       5.362   5.967  -7.171  0.00  0.00    -0.289 N 
ATOM     12  C   UNL     1       4.161   6.184  -7.971  0.00  0.00    +0.190 C 
ATOM     13  N   UNL     1       3.070   6.746  -7.155  0.00  0.00    -0.316 N 
ATOM     14  C   UNL     1       1.906   5.099  -2.060  0.00  0.00    +0.127 C 
ATOM     15  H   UNL     1       6.356   6.081  -7.629  0.00  0.00    +0.151 HD
ATOM     16  H   UNL     1       2.395   7.502  -7.583  0.00  0.00    +0.149 HD
ENDROOT
BRANCH  12  17
ATOM     17  C   UNL     1       3.714   4.869  -8.556  0.00  0.00    -0.007 A 
ATOM     18  C   UNL     1       2.372   4.643  -8.803  0.00  0.00    +0.007 A 
ATOM     19  C   UNL     1       1.962   3.437  -9.340  0.00  0.00    +0.003 A 
ATOM     20  C   UNL     1       2.893   2.457  -9.630  0.00  0.00    +0.033 A 
ATOM     21  C   UNL     1       4.234   2.683  -9.382  0.00  0.00    +0.127 A 
ATOM     22  C   UNL     1       4.645   3.891  -8.850  0.00  0.00    +0.039 A 
BRANCH  21  23
ATOM     23  N   UNL     1       5.231   1.633  -9.693  0.00  0.00    +0.056 N 
ATOM     24  O   UNL     1       4.869   0.571 -10.166  0.00  0.00    -0.126 OA
ATOM     25  O   UNL     1       6.413   1.833  -9.475  0.00  0.00    -0.126 OA
ENDBRANCH  21  23
ENDBRANCH  12  17
BRANCH   1  26
ATOM     26  C   UNL     1       2.451   3.937  -0.001  0.00  0.00    +0.120 C 
BRANCH  26  30
ATOM     27  C   UNL     1      -1.219   1.751   0.017  0.00  0.00    +0.000 A 
ATOM     28  C   UNL     1      -0.013   1.076   0.008  0.00  0.00    +0.000 A 
ATOM     29  C   UNL     1       1.175   1.783   0.000  0.00  0.00    +0.005 A 
ATOM     30  C   UNL     1       1.156   3.165   0.008  0.00  0.00    -0.033 A 
ATOM     31  C   UNL     1      -0.050   3.840   0.022  0.00  0.00    +0.005 A 
ATOM     32  C   UNL     1      -1.238   3.133   0.030  0.00  0.00    +0.000 A 
ENDBRANCH  26  30
ENDBRANCH   1  26
TORSDOF 4
