REMARK  Name = ZINC09520267
REMARK  10 active torsions:
REMARK  status: ('A' for Active; 'I' for Inactive)
REMARK    1  A    between atoms: C_1  and  C_2
REMARK    2  A    between atoms: C_7  and  C_8
REMARK    3  A    between atoms: N_11  and  C_12
REMARK    4  A    between atoms: C_12  and  C_14
REMARK    5  A    between atoms: N_19  and  S_20
REMARK    6  A    between atoms: S_20  and  C_23
REMARK    7  A    between atoms: N_29  and  C_30
REMARK    8  A    between atoms: C_30  and  C_31
REMARK    9  A    between atoms: C_31  and  O_32
REMARK   10  A    between atoms: O_32  and  C_33
REMARK                            x       y       z     vdW  Elec       q    Type
REMARK                         _______ _______ _______ _____ _____    ______ ____
ROOT
ATOM      1  C   UNL     1       0.571   0.238  -3.348  0.00  0.00    +0.044 C 
ATOM      2  C   UNL     1       1.560   0.851  -2.390  0.00  0.00    -0.046 A 
ATOM      3  C   UNL     1       1.434   2.177  -2.048  0.00  0.00    +0.030 A 
ATOM      4  C   UNL     1       2.339   2.778  -1.159  0.00  0.00    +0.058 A 
ATOM      5  C   UNL     1       3.360   1.961  -0.650  0.00  0.00    +0.039 A 
ATOM      6  C   UNL     1       3.485   0.636  -0.993  0.00  0.00    +0.020 A 
ATOM      7  C   UNL     1       2.578   0.069  -1.872  0.00  0.00    -0.046 A 
ATOM      8  C   UNL     1       2.697  -1.382  -2.259  0.00  0.00    +0.044 C 
ATOM      9  S   UNL     1       4.270   3.059   0.406  0.00  0.00    -0.052 S 
ATOM     10  C   UNL     1       3.325   4.492   0.157  0.00  0.00    +0.167 A 
ATOM     11  N   UNL     1       3.501   5.700   0.688  0.00  0.00    -0.155 NA
ATOM     12  N   UNL     1       2.362   4.085  -0.711  0.00  0.00    -0.319 N 
ENDROOT
BRANCH  11  13
ATOM     13  C   UNL     1       2.559   6.628   0.555  0.00  0.00    +0.257 C 
ATOM     14  O   UNL     1       1.462   6.456   1.049  0.00  0.00    -0.272 OA
BRANCH  13  15
ATOM     15  C   UNL     1       2.852   7.893  -0.209  0.00  0.00    +0.168 C 
ATOM     16  C   UNL     1       2.923   7.601  -1.729  0.00  0.00    +0.031 C 
ATOM     17  C   UNL     1       3.811   8.771  -2.230  0.00  0.00    +0.019 C 
ATOM     18  C   UNL     1       4.809   8.969  -1.069  0.00  0.00    +0.110 C 
ATOM     19  N   UNL     1       4.189   8.406   0.139  0.00  0.00    -0.164 NA
BRANCH  19  20
ATOM     20  S   UNL     1       4.880   8.356   1.644  0.00  0.00    +0.068 S 
ATOM     21  O   UNL     1       5.692   9.517   1.756  0.00  0.00    -0.152 OA
ATOM     22  O   UNL     1       3.834   8.066   2.561  0.00  0.00    -0.152 OA
BRANCH  20  23
ATOM     23  C   UNL     1       5.971   6.973   1.671  0.00  0.00    +0.144 A 
ATOM     24  C   UNL     1       7.258   6.893   1.251  0.00  0.00    +0.038 A 
ATOM     25  C   UNL     1       7.930   5.691   1.375  0.00  0.00    +0.030 A 
ATOM     26  C   UNL     1       7.277   4.625   1.901  0.00  0.00    +0.080 A 
ATOM     27  S   UNL     1       5.667   5.312   2.250  0.00  0.00    -0.057 S 
ATOM     28 CL   UNL     1       7.858   3.011   2.168  0.00  0.00    -0.076 Cl
ENDBRANCH  20  23
ENDBRANCH  19  20
ENDBRANCH  13  15
ENDBRANCH  11  13
BRANCH  12  29
ATOM     29  C   UNL     1       1.346   5.034  -1.173  0.00  0.00    +0.152 C 
BRANCH  29  30
ATOM     30  C   UNL     1       1.274   5.001  -2.701  0.00  0.00    +0.181 C 
BRANCH  30  31
ATOM     31  O   UNL     1       0.382   6.020  -3.158  0.00  0.00    -0.381 OA
ATOM     32  C   UNL     1       0.155   6.004  -4.569  0.00  0.00    +0.194 C 
ENDBRANCH  30  31
ENDBRANCH  29  30
ENDBRANCH  12  29
TORSDOF 7
