REMARK  Name = ZINC19955693
REMARK  10 active torsions:
REMARK  status: ('A' for Active; 'I' for Inactive)
REMARK    1  A    between atoms: C_1  and  C_2
REMARK    2  A    between atoms: C_3  and  C_32
REMARK    3  A    between atoms: C_4  and  C_23
REMARK    4  A    between atoms: C_10  and  C_15
REMARK    5  A    between atoms: C_20  and  O_21
REMARK    6  A    between atoms: O_21  and  C_22
REMARK    7  A    between atoms: C_27  and  N_29
REMARK    8  A    between atoms: C_32  and  O_34
REMARK    9  A    between atoms: O_34  and  C_35
REMARK   10  A    between atoms: C_35  and  C_36
REMARK                            x       y       z     vdW  Elec       q    Type
REMARK                         _______ _______ _______ _____ _____    ______ ____
ROOT
ATOM      1  C   UNL     1       5.031   2.439   2.462  0.00  0.00    +0.061 C 
ATOM      2  C   UNL     1       4.277   2.759   1.197  0.00  0.00    +0.016 C 
ATOM      3  C   UNL     1       3.231   3.602   1.238  0.00  0.00    +0.065 C 
ATOM      4  C   UNL     1       2.451   3.937   0.001  0.00  0.00    +0.092 C 
ATOM      5  C   UNL     1       3.230   3.585  -1.242  0.00  0.00    +0.024 C 
ATOM      6  C   UNL     1       4.282   2.741  -1.180  0.00  0.00    +0.016 C 
ATOM      7  N   UNL     1       4.662   2.191   0.015  0.00  0.00    -0.321 N 
ATOM      8  C   UNL     1       5.067   2.386  -2.418  0.00  0.00    +0.060 C 
ATOM      9  C   UNL     1       4.148   2.430  -3.640  0.00  0.00    +0.035 C 
ATOM     10  C   UNL     1       3.545   3.835  -3.745  0.00  0.00    +0.088 C 
ATOM     11  C   UNL     1       2.829   4.157  -2.462  0.00  0.00    +0.162 C 
ATOM     12  O   UNL     1       1.887   4.924  -2.480  0.00  0.00    -0.292 OA
ATOM     13  H   UNL     1       5.283   1.283   0.017  0.00  0.00    +0.152 HD
ENDROOT
BRANCH   9  14
ATOM     14  C   UNL     1       4.942   2.122  -4.883  0.00  0.00    -0.002 A 
ATOM     15  C   UNL     1       6.007   2.927  -5.241  0.00  0.00    +0.007 A 
ATOM     16  C   UNL     1       6.736   2.644  -6.381  0.00  0.00    +0.001 A 
ATOM     17  C   UNL     1       6.403   1.556  -7.166  0.00  0.00    +0.004 A 
ATOM     18  C   UNL     1       5.340   0.747  -6.812  0.00  0.00    +0.046 A 
ATOM     19  C   UNL     1       4.609   1.026  -5.666  0.00  0.00    +0.124 A 
BRANCH  19  20
ATOM     20  O   UNL     1       3.567   0.229  -5.313  0.00  0.00    -0.495 OA
ATOM     21  C   UNL     1       3.281  -0.881  -6.166  0.00  0.00    +0.277 C 
ENDBRANCH  19  20
ENDBRANCH   9  14
BRANCH   4  22
ATOM     22  C   UNL     1       1.156   3.166   0.008  0.00  0.00    -0.033 A 
ATOM     23  C   UNL     1       1.175   1.783   0.000  0.00  0.00    +0.005 A 
ATOM     24  C   UNL     1      -0.013   1.076   0.008  0.00  0.00    +0.003 A 
ATOM     25  C   UNL     1      -1.219   1.751   0.017  0.00  0.00    +0.033 A 
ATOM     26  C   UNL     1      -1.238   3.133   0.029  0.00  0.00    +0.126 A 
ATOM     27  C   UNL     1      -0.050   3.840   0.023  0.00  0.00    +0.037 A 
BRANCH  26  28
ATOM     28  N   UNL     1      -2.530   3.855   0.044  0.00  0.00    +0.056 N 
ATOM     29  O   UNL     1      -2.546   5.073   0.051  0.00  0.00    -0.126 OA
ATOM     30  O   UNL     1      -3.576   3.232   0.050  0.00  0.00    -0.126 OA
ENDBRANCH  26  28
ENDBRANCH   4  22
BRANCH   3  31
ATOM     31  C   UNL     1       2.857   4.184   2.472  0.00  0.00    +0.338 C 
ATOM     32  O   UNL     1       3.481   3.920   3.483  0.00  0.00    -0.245 OA
BRANCH  31  33
ATOM     33  O   UNL     1       1.808   5.031   2.529  0.00  0.00    -0.459 OA
BRANCH  33  34
ATOM     34  C   UNL     1       1.487   5.582   3.808  0.00  0.00    +0.264 C 
BRANCH  34  35
ATOM     35  C   UNL     1       0.280   6.512   3.674  0.00  0.00    +0.156 C 
ATOM     36  C   UNL     1      -0.032   7.186   5.028  0.00  0.00    +0.037 C 
ATOM     37  C   UNL     1      -1.576   7.245   5.071  0.00  0.00    +0.031 C 
ATOM     38  C   UNL     1      -2.013   6.600   3.738  0.00  0.00    +0.160 C 
ATOM     39  O   UNL     1      -0.907   5.753   3.355  0.00  0.00    -0.373 OA
ENDBRANCH  34  35
ENDBRANCH  33  34
ENDBRANCH  31  33
ENDBRANCH   3  31
TORSDOF 8
