REMARK  Name = ZINC49963668
REMARK  6 active torsions:
REMARK  status: ('A' for Active; 'I' for Inactive)
REMARK    1  A    between atoms: C_1  and  C_2
REMARK    2  A    between atoms: C_2  and  C_4
REMARK    3  A    between atoms: C_2  and  N_11
REMARK    4  A    between atoms: N_11  and  C_12
REMARK    5  A    between atoms: C_12  and  C_13
REMARK    6  A    between atoms: C_16  and  N_20
REMARK                            x       y       z     vdW  Elec       q    Type
REMARK                         _______ _______ _______ _____ _____    ______ ____
ROOT
ATOM      1  N   UNL     1       0.690  -0.478  -1.207  0.00  0.00    +0.386 N 
ATOM      2  H   UNL     1       1.608  -0.063  -1.256  0.00  0.00    -0.085 HD
ATOM      3  H   UNL     1       0.776  -1.482  -1.172  0.00  0.00    -0.085 HD
ENDROOT
BRANCH   1   5
ATOM      4  C   UNL     1      -0.019   1.526   0.010  0.00  0.00    -0.009 C 
ATOM      5  C   UNL     1       0.002  -0.004   0.002  0.00  0.00    -0.042 C 
BRANCH   5   6
ATOM      6  C   UNL     1       0.731  -0.503   1.223  0.00  0.00    -0.043 A 
ATOM      7  C   UNL     1       2.077  -0.808   1.148  0.00  0.00    +0.003 A 
ATOM      8  C   UNL     1       2.746  -1.266   2.268  0.00  0.00    +0.000 A 
ATOM      9  C   UNL     1       2.069  -1.419   3.463  0.00  0.00    +0.001 A 
ATOM     10  C   UNL     1       0.723  -1.115   3.539  0.00  0.00    +0.020 A 
ATOM     11  C   UNL     1       0.054  -0.651   2.420  0.00  0.00    +0.043 A 
ATOM     12 CL   UNL     1      -1.635  -0.263   2.517  0.00  0.00    -0.083 Cl
ENDBRANCH   5   6
ENDBRANCH   1   5
BRANCH   1  13
ATOM     13  C   UNL     1      -0.086  -0.093  -2.394  0.00  0.00    -0.044 C 
BRANCH  13  14
ATOM     14  C   UNL     1       0.620  -0.579  -3.634  0.00  0.00    -0.046 A 
ATOM     15  C   UNL     1       1.392   0.294  -4.376  0.00  0.00    +0.005 A 
ATOM     16  C   UNL     1       2.039  -0.152  -5.514  0.00  0.00    +0.033 A 
ATOM     17  C   UNL     1       1.913  -1.470  -5.909  0.00  0.00    +0.128 A 
ATOM     18  C   UNL     1       1.142  -2.344  -5.167  0.00  0.00    +0.053 A 
ATOM     19  C   UNL     1       0.499  -1.900  -4.025  0.00  0.00    +0.044 A 
ATOM     20 CL   UNL     1      -0.465  -2.999  -3.089  0.00  0.00    -0.083 Cl
BRANCH  17  21
ATOM     21  N   UNL     1       2.605  -1.946  -7.128  0.00  0.00    +0.056 N 
ATOM     22  O   UNL     1       3.280  -1.182  -7.778  0.00  0.00    -0.126 OA
ATOM     23  O   UNL     1       2.496  -3.100  -7.474  0.00  0.00    -0.126 OA
ENDBRANCH  17  21
ENDBRANCH  13  14
ENDBRANCH   1  13
TORSDOF 5
