REMARK  Name = ZINC22536567
REMARK  12 active torsions:
REMARK  status: ('A' for Active; 'I' for Inactive)
REMARK    1  A    between atoms: C_1  and  C_2
REMARK    2  A    between atoms: C_2  and  O_3
REMARK    3  A    between atoms: O_3  and  C_4
REMARK    4  A    between atoms: C_9  and  S_10
REMARK    5  A    between atoms: S_10  and  N_13
REMARK    6  A    between atoms: C_17  and  C_20
REMARK    7  A    between atoms: N_22  and  C_23
REMARK    8  A    between atoms: C_23  and  C_25
REMARK    9  A    between atoms: C_23  and  C_26
REMARK   10  A    between atoms: C_28  and  C_34
REMARK   11  A    between atoms: C_29  and  C_33
REMARK   12  A    between atoms: C_31  and  C_32
REMARK                            x       y       z     vdW  Elec       q    Type
REMARK                         _______ _______ _______ _____ _____    ______ ____
ROOT
ATOM      1  N   UNL     1       7.755   2.656  -3.040  0.00  0.00    -0.176 NA
ATOM      2  C   UNL     1       8.409   3.556  -2.080  0.00  0.00    +0.109 C 
ATOM      3  C   UNL     1       7.336   4.406  -1.392  0.00  0.00    +0.018 C 
ATOM      4  C   UNL     1       6.280   3.487  -0.774  0.00  0.00    +0.015 C 
ATOM      5  C   UNL     1       5.611   2.662  -1.876  0.00  0.00    +0.091 C 
ATOM      6  C   UNL     1       6.664   1.792  -2.569  0.00  0.00    +0.122 C 
ENDROOT
BRANCH   5   7
ATOM      7  C   UNL     1       4.549   1.781  -1.270  0.00  0.00    +0.218 C 
ATOM      8  O   UNL     1       4.625   0.576  -1.383  0.00  0.00    -0.275 OA
ATOM      9  N   UNL     1       3.516   2.332  -0.602  0.00  0.00    -0.308 N 
ATOM     10  H   UNL     1       3.447   3.425  -0.500  0.00  0.00    +0.149 HD
BRANCH   9  11
ATOM     11  C   UNL     1       2.484   1.474  -0.013  0.00  0.00    +0.100 C 
ATOM     12  C   UNL     1       2.890   1.094   1.412  0.00  0.00    +0.033 C 
BRANCH  11  13
ATOM     13  C   UNL     1       1.173   2.216   0.018  0.00  0.00    -0.024 A 
ATOM     14  C   UNL     1       1.161   3.598   0.074  0.00  0.00    +0.009 A 
ATOM     15  C   UNL     1      -0.042   4.278   0.103  0.00  0.00    -0.047 A 
ATOM     16  C   UNL     1      -1.233   3.577   0.076  0.00  0.00    -0.047 A 
ATOM     17  C   UNL     1      -1.221   2.196   0.016  0.00  0.00    +0.007 A 
ATOM     18  C   UNL     1      -0.018   1.516  -0.008  0.00  0.00    -0.045 A 
ATOM     19  C   UNL     1      -0.006   0.010  -0.069  0.00  0.00    +0.044 C 
ATOM     20  C   UNL     1      -2.544   4.319   0.108  0.00  0.00    +0.044 C 
ATOM     21  C   UNL     1      -0.054   5.784   0.165  0.00  0.00    +0.044 C 
ENDBRANCH  11  13
ENDBRANCH   9  11
ENDBRANCH   5   7
BRANCH   1  22
ATOM     22  S   UNL     1       8.240   2.615  -4.623  0.00  0.00    +0.064 S 
ATOM     23  O   UNL     1       7.135   2.131  -5.374  0.00  0.00    -0.153 OA
ATOM     24  O   UNL     1       8.854   3.868  -4.892  0.00  0.00    -0.153 OA
BRANCH  22  30
ATOM     25  C   UNL     1      10.714   1.580  -4.091  0.00  0.00    +0.147 A 
ATOM     26  C   UNL     1      11.710   0.619  -4.191  0.00  0.00    +0.049 A 
ATOM     27  C   UNL     1      11.497  -0.519  -4.945  0.00  0.00    +0.024 A 
ATOM     28  C   UNL     1      10.291  -0.700  -5.600  0.00  0.00    +0.043 A 
ATOM     29  C   UNL     1       9.296   0.255  -5.497  0.00  0.00    +0.052 A 
ATOM     30  C   UNL     1       9.507   1.396  -4.748  0.00  0.00    +0.148 A 
ATOM     31 CL   UNL     1      10.026  -2.131  -6.547  0.00  0.00    -0.083 Cl
BRANCH  25  32
ATOM     32  O   UNL     1      10.922   2.700  -3.349  0.00  0.00    -0.490 OA
BRANCH  32  34
ATOM     33  C   UNL     1      12.236   4.138  -1.919  0.00  0.00    +0.048 C 
ATOM     34  C   UNL     1      12.188   2.823  -2.700  0.00  0.00    +0.226 C 
ENDBRANCH  32  34
ENDBRANCH  25  32
ENDBRANCH  22  30
ENDBRANCH   1  22
TORSDOF 7
