REMARK  Name = ZINC03321851
REMARK  10 active torsions:
REMARK  status: ('A' for Active; 'I' for Inactive)
REMARK    1  A    between atoms: C_1  and  C_2
REMARK    2  A    between atoms: C_2  and  C_3
REMARK    3  A    between atoms: C_3  and  C_4
REMARK    4  A    between atoms: C_4  and  O_5
REMARK    5  A    between atoms: O_5  and  C_6
REMARK    6  A    between atoms: C_6  and  C_8
REMARK    7  A    between atoms: N_19  and  C_22
REMARK    8  A    between atoms: C_20  and  N_21
REMARK    9  A    between atoms: C_26  and  C_28
REMARK   10  A    between atoms: C_28  and  C_30
REMARK                            x       y       z     vdW  Elec       q    Type
REMARK                         _______ _______ _______ _____ _____    ______ ____
ROOT
ATOM      1  C   UNL     1      -2.929   3.390   0.740  0.00  0.00    +0.126 A 
ATOM      2  C   UNL     1      -3.290   2.883  -0.595  0.00  0.00    +0.125 A 
ATOM      3  C   UNL     1      -2.163   2.043  -1.009  0.00  0.00    +0.167 A 
ATOM      4  N   UNL     1      -2.202   1.438  -2.177  0.00  0.00    -0.225 NA
ATOM      5  C   UNL     1      -3.262   1.602  -2.978  0.00  0.00    +0.092 A 
ATOM      6  C   UNL     1      -3.310   0.963  -4.231  0.00  0.00    +0.030 A 
ATOM      7  C   UNL     1      -4.391   1.135  -5.038  0.00  0.00    +0.002 A 
ATOM      8  C   UNL     1      -5.460   1.938  -4.644  0.00  0.00    +0.002 A 
ATOM      9  C   UNL     1      -5.450   2.572  -3.440  0.00  0.00    +0.030 A 
ATOM     10  C   UNL     1      -4.349   2.418  -2.577  0.00  0.00    +0.090 A 
ATOM     11  N   UNL     1      -4.329   3.037  -1.390  0.00  0.00    -0.241 NA
ATOM     12  N   UNL     1      -1.240   2.070   0.019  0.00  0.00    -0.280 N 
ATOM     13  C   UNL     1      -1.680   2.856   1.041  0.00  0.00    +0.119 A 
ENDROOT
BRANCH  12  14
ATOM     14  C   UNL     1      -0.017   1.386   0.010  0.00  0.00    +0.050 A 
ATOM     15  C   UNL     1       0.002  -0.004   0.002  0.00  0.00    +0.026 A 
ATOM     16  C   UNL     1       1.205  -0.685  -0.014  0.00  0.00    +0.003 A 
ATOM     17  C   UNL     1       2.397   0.010  -0.022  0.00  0.00    +0.011 A 
ATOM     18  C   UNL     1       2.390   1.409  -0.014  0.00  0.00    +0.019 A 
ATOM     19  C   UNL     1       1.173   2.095   0.002  0.00  0.00    +0.037 A 
BRANCH  18  20
ATOM     20  C   UNL     1       3.659   2.154  -0.022  0.00  0.00    +0.160 C 
ATOM     21  O   UNL     1       3.650   3.366  -0.015  0.00  0.00    -0.292 OA
ATOM     22  C   UNL     1       4.970   1.410  -0.039  0.00  0.00    +0.091 C 
ENDBRANCH  18  20
ENDBRANCH  12  14
BRANCH  13  23
ATOM     23  N   UNL     1      -0.990   3.088   2.202  0.00  0.00    -0.343 N 
ATOM     24  H   UNL     1      -0.121   2.679   2.339  0.00  0.00    +0.144 HD
ATOM     25  H   UNL     1      -1.369   3.662   2.885  0.00  0.00    +0.144 HD
ENDBRANCH  13  23
BRANCH   1  26
ATOM     26  C   UNL     1      -3.702   4.251   1.556  0.00  0.00    +0.345 C 
ATOM     27  O   UNL     1      -3.570   5.458   1.464  0.00  0.00    -0.245 OA
BRANCH  26  28
ATOM     28  O   UNL     1      -4.584   3.735   2.437  0.00  0.00    -0.461 OA
BRANCH  28  29
ATOM     29  C   UNL     1      -5.330   4.662   3.228  0.00  0.00    +0.232 C 
BRANCH  29  30
ATOM     30  C   UNL     1      -6.271   3.896   4.160  0.00  0.00    +0.041 C 
BRANCH  30  32
ATOM     31  C   UNL     1      -8.011   4.123   5.939  0.00  0.00    +0.004 C 
ATOM     32  C   UNL     1      -7.070   4.889   5.007  0.00  0.00    -0.000 C 
ENDBRANCH  30  32
ENDBRANCH  29  30
ENDBRANCH  28  29
ENDBRANCH  26  28
ENDBRANCH   1  26
TORSDOF 8
