REMARK  Name = ZINC59409934
REMARK  4 active torsions:
REMARK  status: ('A' for Active; 'I' for Inactive)
REMARK    1  A    between atoms: C_3  and  S_17
REMARK    2  A    between atoms: C_6  and  N_7
REMARK    3  A    between atoms: N_7  and  C_8
REMARK    4  A    between atoms: C_14  and  O_16
REMARK                            x       y       z     vdW  Elec       q    Type
REMARK                         _______ _______ _______ _____ _____    ______ ____
ROOT
ATOM      1  C   UNL     1      -0.017   1.385   0.010  0.00  0.00    +0.025 A 
ATOM      2  C   UNL     1       1.171   2.090   0.002  0.00  0.00    +0.031 A 
ATOM      3  C   UNL     1       2.377   1.415  -0.013  0.00  0.00    +0.120 A 
ATOM      4  C   UNL     1       2.400   0.032  -0.021  0.00  0.00    +0.031 A 
ATOM      5  C   UNL     1       1.216  -0.679  -0.014  0.00  0.00    +0.025 A 
ATOM      6  C   UNL     1       0.002  -0.004   0.002  0.00  0.00    +0.028 A 
ENDROOT
BRANCH   3   7
ATOM      7  S   UNL     1       3.890   2.319  -0.024  0.00  0.00    +0.140 S 
ATOM      8  O   UNL     1       4.864   1.504  -0.734  0.00  0.00    -0.140 OA
ATOM      9  O   UNL     1       3.627   3.574  -0.711  0.00  0.00    -0.140 OA
ATOM     10  O   UNL     1       4.267   2.528   1.365  0.00  0.00    -0.043 OA
ENDBRANCH   3   7
BRANCH   6  11
ATOM     11  N   UNL     1      -1.197  -0.720   0.010  0.00  0.00    -0.339 N 
ATOM     12  H   UNL     1      -2.044  -0.248   0.021  0.00  0.00    +0.146 HD
BRANCH  11  13
ATOM     13  C   UNL     1      -1.175  -2.185   0.002  0.00  0.00    +0.099 C 
ATOM     14  C   UNL     1      -1.028  -2.701   1.435  0.00  0.00    +0.025 C 
ATOM     15  C   UNL     1      -1.005  -4.231   1.426  0.00  0.00    +0.002 C 
ATOM     16  C   UNL     1      -2.311  -4.757   0.827  0.00  0.00    +0.003 C 
ATOM     17  C   UNL     1      -2.458  -4.241  -0.606  0.00  0.00    +0.033 C 
ATOM     18  C   UNL     1      -2.481  -2.711  -0.598  0.00  0.00    +0.135 C 
BRANCH  18  19
ATOM     19  O   UNL     1      -3.584  -2.256   0.189  0.00  0.00    -0.390 OA
ATOM     20  H   UNL     1      -4.446  -2.552  -0.134  0.00  0.00    +0.210 HD
ENDBRANCH  18  19
ENDBRANCH  11  13
ENDBRANCH   6  11
TORSDOF 4
