REMARK  Name = ZINC65213763
REMARK  7 active torsions:
REMARK  status: ('A' for Active; 'I' for Inactive)
REMARK    1  A    between atoms: C_1  and  C_2
REMARK    2  A    between atoms: C_2  and  C_3
REMARK    3  A    between atoms: C_2  and  N_22
REMARK    4  A    between atoms: N_5  and  C_6
REMARK    5  A    between atoms: C_6  and  C_7
REMARK    6  A    between atoms: C_10  and  N_13
REMARK    7  A    between atoms: C_16  and  C_18
REMARK                            x       y       z     vdW  Elec       q    Type
REMARK                         _______ _______ _______ _____ _____    ______ ____
ROOT
ATOM      1  C   UNL     1       0.281  -0.190   4.880  0.00  0.00    -0.030 A 
ATOM      2  C   UNL     1       0.633   1.023   5.443  0.00  0.00    +0.007 A 
ATOM      3  C   UNL     1      -0.012   1.471   6.580  0.00  0.00    +0.028 A 
ATOM      4  C   UNL     1      -1.014   0.702   7.156  0.00  0.00    +0.065 A 
ATOM      5  C   UNL     1      -1.365  -0.515   6.588  0.00  0.00    +0.028 A 
ATOM      6  C   UNL     1      -0.721  -0.955   5.449  0.00  0.00    +0.007 A 
ENDROOT
BRANCH   4   7
ATOM      7  N   UNL     1      -1.669   1.154   8.310  0.00  0.00    -0.239 N 
ATOM      8  C   UNL     1      -2.653   0.504   8.972  0.00  0.00    +0.115 A 
ATOM      9  C   UNL     1      -3.015   1.271  10.027  0.00  0.00    +0.054 A 
ATOM     10  C   UNL     1      -2.227   2.427  10.010  0.00  0.00    +0.166 A 
ATOM     11  N   UNL     1      -1.417   2.355   8.985  0.00  0.00    -0.162 NA
BRANCH  10  12
ATOM     12  C   UNL     1      -2.296   3.557  11.005  0.00  0.00    +0.436 C 
ATOM     13  F   UNL     1      -1.415   3.303  12.061  0.00  0.00    -0.164 F 
ATOM     14  F   UNL     1      -1.936   4.754  10.376  0.00  0.00    -0.164 F 
ATOM     15  F   UNL     1      -3.600   3.664  11.500  0.00  0.00    -0.164 F 
ENDBRANCH  10  12
ENDBRANCH   4   7
BRANCH   1  16
ATOM     16  C   UNL     1       0.986  -0.676   3.640  0.00  0.00    +0.139 C 
BRANCH  16  19
ATOM     17  C   UNL     1       0.731  -0.503   1.223  0.00  0.00    +0.233 C 
ATOM     18  O   UNL     1       1.725  -1.187   1.099  0.00  0.00    -0.274 OA
ATOM     19  N   UNL     1       0.278  -0.191   2.453  0.00  0.00    -0.310 N 
ATOM     20  H   UNL     1      -0.517   0.356   2.553  0.00  0.00    +0.149 HD
BRANCH  17  22
ATOM     21  C   UNL     1      -0.019   1.526   0.010  0.00  0.00    +0.038 C 
ATOM     22  C   UNL     1       0.002  -0.004   0.002  0.00  0.00    +0.157 C 
BRANCH  22  23
ATOM     23  N   UNL     1       0.688  -0.476  -1.203  0.00  0.00    -0.289 N 
ATOM     24  C   UNL     1       0.006  -0.608  -2.358  0.00  0.00    +0.298 C 
ATOM     25  O   UNL     1      -1.178  -0.335  -2.400  0.00  0.00    -0.253 OA
ATOM     26  N   UNL     1       0.637  -1.043  -3.467  0.00  0.00    -0.313 N 
ATOM     27  H   UNL     1       1.632  -0.695  -1.170  0.00  0.00    +0.151 HD
ATOM     28  H   UNL     1       1.582  -1.261  -3.434  0.00  0.00    +0.146 HD
ATOM     29  H   UNL     1       0.146  -1.137  -4.299  0.00  0.00    +0.146 HD
ENDBRANCH  22  23
ENDBRANCH  17  22
ENDBRANCH  16  19
ENDBRANCH   1  16
TORSDOF 6
