REMARK  Name = ZINC35174165
REMARK  11 active torsions:
REMARK  status: ('A' for Active; 'I' for Inactive)
REMARK    1  A    between atoms: C_1  and  C_2
REMARK    2  A    between atoms: C_3  and  C_28
REMARK    3  A    between atoms: C_4  and  C_9
REMARK    4  A    between atoms: C_6  and  C_8
REMARK    5  A    between atoms: C_15  and  C_18
REMARK    6  A    between atoms: C_19  and  C_21
REMARK    7  A    between atoms: C_28  and  O_30
REMARK    8  A    between atoms: O_30  and  C_31
REMARK    9  A    between atoms: C_31  and  C_32
REMARK   10  A    between atoms: C_32  and  C_33
REMARK   11  A    between atoms: C_32  and  C_34
REMARK                            x       y       z     vdW  Elec       q    Type
REMARK                         _______ _______ _______ _____ _____    ______ ____
ROOT
ATOM      1  C   UNL     1       2.336  -2.718  -2.020  0.00  0.00    +0.266 C 
ATOM      2  O   UNL     1       2.286  -2.061  -3.040  0.00  0.00    -0.268 OA
ATOM      3  N   UNL     1       1.846  -3.974  -2.002  0.00  0.00    -0.293 N 
ATOM      4  C   UNL     1       1.786  -4.736  -0.747  0.00  0.00    +0.127 C 
ATOM      5  C   UNL     1       2.530  -6.063  -0.944  0.00  0.00    +0.127 C 
ATOM      6  N   UNL     1       2.047  -6.694  -2.179  0.00  0.00    -0.292 N 
ATOM      7  C   UNL     1       2.107  -5.932  -3.435  0.00  0.00    +0.091 C 
ATOM      8  C   UNL     1       1.358  -4.603  -3.237  0.00  0.00    +0.130 C 
ATOM      9  C   UNL     1       1.445  -6.736  -4.556  0.00  0.00    +0.029 C 
ATOM     10  C   UNL     1       1.558  -7.950  -2.162  0.00  0.00    +0.247 C 
ATOM     11  O   UNL     1       1.260  -8.501  -3.204  0.00  0.00    -0.270 OA
ENDROOT
BRANCH   1  15
ATOM     12  C   UNL     1       4.821   0.945   0.386  0.00  0.00    +0.066 C 
ATOM     13  C   UNL     1       4.122  -0.390   0.362  0.00  0.00    +0.056 A 
ATOM     14  C   UNL     1       3.576  -0.885  -0.828  0.00  0.00    +0.110 A 
ATOM     15  C   UNL     1       2.936  -2.138  -0.791  0.00  0.00    +0.143 A 
ATOM     16  N   UNL     1       2.878  -2.792   0.364  0.00  0.00    -0.227 NA
ATOM     17  C   UNL     1       3.408  -2.282   1.457  0.00  0.00    +0.127 A 
ATOM     18  N   UNL     1       4.021  -1.114   1.463  0.00  0.00    -0.237 NA
ATOM     19  C   UNL     1       3.317  -3.063   2.743  0.00  0.00    +0.088 C 
BRANCH  14  20
ATOM     20  C   UNL     1       3.669  -0.115  -2.086  0.00  0.00    +0.343 C 
ATOM     21  O   UNL     1       4.619  -0.272  -2.826  0.00  0.00    -0.245 OA
BRANCH  20  22
ATOM     22  O   UNL     1       2.698   0.760  -2.413  0.00  0.00    -0.461 OA
BRANCH  22  23
ATOM     23  C   UNL     1       2.852   1.470  -3.644  0.00  0.00    +0.235 C 
BRANCH  23  24
ATOM     24  C   UNL     1       1.662   2.410  -3.843  0.00  0.00    +0.020 C 
ATOM     25  C   UNL     1       1.887   3.260  -5.095  0.00  0.00    +0.010 C 
ATOM     26  C   UNL     1       0.383   1.586  -4.008  0.00  0.00    +0.010 C 
ENDBRANCH  23  24
ENDBRANCH  22  23
ENDBRANCH  20  22
ENDBRANCH  14  20
ENDBRANCH   1  15
BRANCH  10  27
ATOM     27  C   UNL     1       1.383  -8.658  -0.877  0.00  0.00    +0.037 A 
ATOM     28  C   UNL     1       1.035  -7.946   0.273  0.00  0.00    +0.014 A 
ATOM     29  C   UNL     1       0.874  -8.612   1.470  0.00  0.00    +0.016 A 
ATOM     30  C   UNL     1       1.056  -9.983   1.533  0.00  0.00    +0.018 A 
ATOM     31  C   UNL     1       1.401 -10.694   0.396  0.00  0.00    +0.016 A 
ATOM     32  C   UNL     1       1.560 -10.041  -0.808  0.00  0.00    +0.014 A 
ATOM     33 BR   UNL     1       0.833 -10.889   3.178  0.00  0.00    -0.050 Br
ENDBRANCH  10  27
TORSDOF 6
