REMARK  Name = ZINC01853945
REMARK  11 active torsions:
REMARK  status: ('A' for Active; 'I' for Inactive)
REMARK    1  A    between atoms: C_1  and  C_2
REMARK    2  A    between atoms: C_2  and  C_3
REMARK    3  A    between atoms: C_3  and  C_4
REMARK    4  A    between atoms: C_4  and  C_5
REMARK    5  A    between atoms: C_5  and  C_6
REMARK    6  A    between atoms: C_6  and  C_7
REMARK    7  A    between atoms: C_7  and  N_8
REMARK    8  A    between atoms: C_9  and  C_11
REMARK    9  A    between atoms: N_22  and  C_25
REMARK   10  A    between atoms: C_23  and  N_24
REMARK   11  A    between atoms: C_29  and  N_31
REMARK                            x       y       z     vdW  Elec       q    Type
REMARK                         _______ _______ _______ _____ _____    ______ ____
ROOT
ATOM      1  C   UNL     1       2.815  -8.130  -4.827  0.00  0.00    +0.104 A 
ATOM      2  C   UNL     1       1.802  -9.022  -5.417  0.00  0.00    +0.123 A 
ATOM      3  C   UNL     1       2.284 -10.382  -5.160  0.00  0.00    +0.166 A 
ATOM      4  N   UNL     1       1.576 -11.409  -5.578  0.00  0.00    -0.225 NA
ATOM      5  C   UNL     1       0.426 -11.204  -6.233  0.00  0.00    +0.092 A 
ATOM      6  C   UNL     1      -0.338 -12.297  -6.683  0.00  0.00    +0.030 A 
ATOM      7  C   UNL     1      -1.505 -12.079  -7.347  0.00  0.00    +0.002 A 
ATOM      8  C   UNL     1      -1.962 -10.785  -7.590  0.00  0.00    +0.002 A 
ATOM      9  C   UNL     1      -1.251  -9.703  -7.170  0.00  0.00    +0.030 A 
ATOM     10  C   UNL     1      -0.038  -9.888  -6.480  0.00  0.00    +0.090 A 
ATOM     11  N   UNL     1       0.669  -8.831  -6.063  0.00  0.00    -0.241 NA
ATOM     12  N   UNL     1       3.479 -10.263  -4.476  0.00  0.00    -0.280 N 
ATOM     13  C   UNL     1       3.796  -8.952  -4.284  0.00  0.00    +0.117 A 
ENDROOT
BRANCH  12  14
ATOM     14  C   UNL     1       4.260 -11.344  -4.043  0.00  0.00    +0.052 A 
ATOM     15  C   UNL     1       3.766 -12.219  -3.085  0.00  0.00    +0.028 A 
ATOM     16  C   UNL     1       4.537 -13.283  -2.660  0.00  0.00    +0.024 A 
ATOM     17  C   UNL     1       5.801 -13.477  -3.189  0.00  0.00    +0.071 A 
ATOM     18  C   UNL     1       6.295 -12.607  -4.145  0.00  0.00    +0.146 A 
ATOM     19  C   UNL     1       5.525 -11.545  -4.577  0.00  0.00    +0.060 A 
ATOM     20 CL   UNL     1       6.769 -14.815  -2.653  0.00  0.00    -0.081 Cl
BRANCH  18  21
ATOM     21  N   UNL     1       7.648 -12.818  -4.709  0.00  0.00    +0.058 N 
ATOM     22  O   UNL     1       8.080 -12.058  -5.544  0.00  0.00    -0.126 OA
ATOM     23  O   UNL     1       8.320 -13.750  -4.334  0.00  0.00    -0.126 OA
ENDBRANCH  18  21
ENDBRANCH  12  14
BRANCH   1  25
ATOM     24  N   UNL     1       2.212  -6.009  -3.799  0.00  0.00    -0.311 N 
ATOM     25  C   UNL     1       2.795  -6.669  -4.819  0.00  0.00    +0.250 C 
ATOM     26  O   UNL     1       3.305  -6.048  -5.734  0.00  0.00    -0.270 OA
ATOM     27  H   UNL     1       1.805  -6.503  -3.071  0.00  0.00    +0.149 HD
BRANCH  24  28
ATOM     28  C   UNL     1       2.192  -4.544  -3.791  0.00  0.00    +0.104 C 
BRANCH  28  29
ATOM     29  C   UNL     1       1.476  -4.051  -2.532  0.00  0.00    +0.019 C 
BRANCH  29  30
ATOM     30  C   UNL     1       1.455  -2.521  -2.524  0.00  0.00    +0.002 C 
BRANCH  30  31
ATOM     31  C   UNL     1       0.739  -2.027  -1.265  0.00  0.00    +0.000 C 
BRANCH  31  32
ATOM     32  C   UNL     1       0.718  -0.497  -1.257  0.00  0.00    -0.000 C 
BRANCH  32  34
ATOM     33  C   UNL     1      -0.019   1.526   0.010  0.00  0.00    +0.004 C 
ATOM     34  C   UNL     1       0.002  -0.004   0.002  0.00  0.00    -0.003 C 
ENDBRANCH  32  34
ENDBRANCH  31  32
ENDBRANCH  30  31
ENDBRANCH  29  30
ENDBRANCH  28  29
ENDBRANCH  24  28
ENDBRANCH   1  25
BRANCH  13  35
ATOM     35  N   UNL     1       4.923  -8.506  -3.643  0.00  0.00    -0.343 N 
ATOM     36  H   UNL     1       5.078  -7.554  -3.542  0.00  0.00    +0.144 HD
ATOM     37  H   UNL     1       5.564  -9.142  -3.290  0.00  0.00    +0.144 HD
ENDBRANCH  13  35
TORSDOF 10
