REMARK  Name = ZINC39545471
REMARK  5 active torsions:
REMARK  status: ('A' for Active; 'I' for Inactive)
REMARK    1  A    between atoms: C_1  and  S_2
REMARK    2  A    between atoms: S_2  and  N_3
REMARK    3  A    between atoms: N_3  and  C_4
REMARK    4  A    between atoms: C_9  and  O_10
REMARK    5  A    between atoms: C_11  and  C_13
REMARK                            x       y       z     vdW  Elec       q    Type
REMARK                         _______ _______ _______ _____ _____    ______ ____
ROOT
ATOM      1  C   UNL     1      -1.498  -0.419   2.487  0.00  0.00    +0.150 C 
ATOM      2  C   UNL     1      -0.364  -1.455   2.614  0.00  0.00    +0.075 C 
ATOM      3  C   UNL     1      -0.710  -2.228   3.866  0.00  0.00    +0.027 C 
ATOM      4  C   UNL     1      -1.822  -1.760   4.374  0.00  0.00    +0.084 C 
ATOM      5  N   UNL     1      -2.440  -2.201   5.559  0.00  0.00    -0.303 N 
ATOM      6  C   UNL     1      -3.047  -1.188   6.321  0.00  0.00    +0.037 A 
ATOM      7  C   UNL     1      -3.586  -1.489   7.564  0.00  0.00    +0.023 A 
ATOM      8  C   UNL     1      -4.192  -0.495   8.308  0.00  0.00    +0.002 A 
ATOM      9  C   UNL     1      -4.258   0.794   7.810  0.00  0.00    +0.000 A 
ATOM     10  C   UNL     1      -3.718   1.094   6.574  0.00  0.00    +0.007 A 
ATOM     11  C   UNL     1      -3.104   0.106   5.823  0.00  0.00    -0.010 A 
ATOM     12  C   UNL     1      -2.501   0.469   4.491  0.00  0.00    +0.124 C 
ATOM     13  N   UNL     1      -2.380  -0.709   3.629  0.00  0.00    -0.369 NA
ATOM     14  I   UNL     1       0.415  -3.805   4.664  0.00  0.00    -0.045 I 
ATOM     15  H   UNL     1      -2.447  -3.133   5.829  0.00  0.00    +0.153 HD
ATOM     16  H   UNL     1      -3.294  -0.976   3.295  0.00  0.00    +0.129 HD
ENDROOT
BRANCH   1  18
ATOM     17  N   UNL     1      -1.599  -0.426   0.015  0.00  0.00    -0.209 N 
ATOM     18  C   UNL     1      -2.240  -0.605   1.188  0.00  0.00    +0.249 C 
ATOM     19  O   UNL     1      -3.412  -0.914   1.197  0.00  0.00    -0.272 OA
BRANCH  17  20
ATOM     20  C   UNL     1      -2.288  -0.599  -1.193  0.00  0.00    +0.089 A 
ATOM     21  C   UNL     1      -3.018   0.450  -1.733  0.00  0.00    +0.028 A 
ATOM     22  C   UNL     1      -3.696   0.278  -2.925  0.00  0.00    +0.002 A 
ATOM     23  C   UNL     1      -3.651  -0.938  -3.581  0.00  0.00    +0.004 A 
ATOM     24  C   UNL     1      -2.926  -1.988  -3.048  0.00  0.00    +0.047 A 
ATOM     25  C   UNL     1      -2.238  -1.822  -1.857  0.00  0.00    +0.139 A 
BRANCH  25  26
ATOM     26  O   UNL     1      -1.520  -2.852  -1.336  0.00  0.00    -0.505 OA
ATOM     27  H   UNL     1      -2.025  -3.421  -0.739  0.00  0.00    +0.292 HD
ENDBRANCH  25  26
ENDBRANCH  17  20
BRANCH  17  29
ATOM     28  C   UNL     1      -0.022   1.810   0.012  0.00  0.00    +0.107 C 
ATOM     29  S   UNL     1       0.002  -0.004   0.002  0.00  0.00    -0.055 S 
ENDBRANCH  17  29
ENDBRANCH   1  18
TORSDOF 4
