REMARK  Name = ZINC48171400
REMARK  5 active torsions:
REMARK  status: ('A' for Active; 'I' for Inactive)
REMARK    1  A    between atoms: C_3  and  N_12
REMARK    2  A    between atoms: N_15  and  C_16
REMARK    3  A    between atoms: N_15  and  C_23
REMARK    4  A    between atoms: C_16  and  C_17
REMARK    5  A    between atoms: C_23  and  C_24
REMARK                            x       y       z     vdW  Elec       q    Type
REMARK                         _______ _______ _______ _____ _____    ______ ____
ROOT
ATOM      1  N   UNL     1       3.638   1.996  -0.002  0.00  0.00    -0.266 N 
ATOM      2  C   UNL     1       3.705   3.339  -0.087  0.00  0.00    +0.307 C 
ATOM      3  O   UNL     1       2.685   4.001  -0.074  0.00  0.00    -0.252 OA
ATOM      4  N   UNL     1       4.903   3.949  -0.186  0.00  0.00    -0.280 N 
ATOM      5  H   UNL     1       4.452   1.473   0.071  0.00  0.00    +0.156 HD
ENDROOT
BRANCH   1   8
ATOM      6  C   UNL     1       0.080   1.288  -0.602  0.00  0.00    +0.019 A 
ATOM      7  C   UNL     1       1.293   1.963  -0.609  0.00  0.00    +0.028 A 
ATOM      8  C   UNL     1       2.392   1.353  -0.019  0.00  0.00    +0.073 A 
ATOM      9  C   UNL     1       2.237   0.090   0.557  0.00  0.00    +0.121 A 
ATOM     10  N   UNL     1       1.062  -0.516   0.540  0.00  0.00    -0.348 N 
ATOM     11  C   UNL     1       0.001   0.042  -0.015  0.00  0.00    +0.084 A 
ATOM     12  N   UNL     1       3.329  -0.536   1.153  0.00  0.00    -0.315 N 
ATOM     13  C   UNL     1       4.340  -1.343   0.455  0.00  0.00    +0.106 C 
ATOM     14  C   UNL     1       5.335  -1.851   1.519  0.00  0.00    +0.020 C 
ATOM     15  C   UNL     1       4.511  -1.771   2.831  0.00  0.00    +0.020 C 
ATOM     16  C   UNL     1       3.665  -0.494   2.587  0.00  0.00    +0.106 C 
ATOM     17  H   UNL     1       0.977  -1.394   0.945  0.00  0.00    +0.167 HD
ENDBRANCH   1   8
BRANCH   4  18
ATOM     18  C   UNL     1       4.975   5.410  -0.279  0.00  0.00    +0.141 C 
BRANCH  18  19
ATOM     19  C   UNL     1       5.076   6.005   1.127  0.00  0.00    +0.136 C 
ATOM     20  C   UNL     1       5.119   7.552   1.054  0.00  0.00    +0.035 C 
ATOM     21  C   UNL     1       4.575   7.929   2.459  0.00  0.00    +0.031 C 
ATOM     22  C   UNL     1       3.552   6.804   2.727  0.00  0.00    +0.160 C 
ATOM     23  O   UNL     1       3.895   5.696   1.885  0.00  0.00    -0.375 OA
ENDBRANCH  18  19
ENDBRANCH   4  18
BRANCH   4  24
ATOM     24  C   UNL     1       6.132   3.152  -0.202  0.00  0.00    +0.141 C 
BRANCH  24  25
ATOM     25  C   UNL     1       6.485   2.788  -1.646  0.00  0.00    +0.136 C 
ATOM     26  C   UNL     1       7.764   1.914  -1.683  0.00  0.00    +0.035 C 
ATOM     27  C   UNL     1       7.568   1.161  -3.026  0.00  0.00    +0.031 C 
ATOM     28  C   UNL     1       6.035   0.983  -3.082  0.00  0.00    +0.160 C 
ATOM     29  O   UNL     1       5.453   1.970  -2.220  0.00  0.00    -0.375 OA
ENDBRANCH  24  25
ENDBRANCH   4  24
TORSDOF 5
