REMARK  Name = ZINC03154957
REMARK  6 active torsions:
REMARK  status: ('A' for Active; 'I' for Inactive)
REMARK    1  A    between atoms: C_1  and  C_2
REMARK    2  A    between atoms: C_2  and  O_4
REMARK    3  A    between atoms: O_4  and  C_5
REMARK    4  A    between atoms: C_5  and  C_6
REMARK    5  A    between atoms: C_5  and  C_7
REMARK    6  A    between atoms: C_5  and  C_8
REMARK                            x       y       z     vdW  Elec       q    Type
REMARK                         _______ _______ _______ _____ _____    ______ ____
ROOT
ATOM      1  C   UNL     1      -2.463  -2.721   0.011  0.00  0.00    +0.221 C 
ATOM      2  C   UNL     1      -3.261  -2.230   1.242  0.00  0.00    +0.087 C 
ATOM      3  C   UNL     1      -4.662  -2.098   0.675  0.00  0.00    -0.001 A 
ATOM      4  C   UNL     1      -5.877  -1.978   1.276  0.00  0.00    +0.019 A 
ATOM      5  C   UNL     1      -7.033  -1.879   0.493  0.00  0.00    +0.018 A 
ATOM      6  C   UNL     1      -8.354  -1.749   1.109  0.00  0.00    +0.018 A 
ATOM      7  C   UNL     1      -9.436  -1.659   0.291  0.00  0.00    +0.092 A 
ATOM      8  C   UNL     1      -9.262  -1.693  -1.107  0.00  0.00    +0.337 A 
ATOM      9  O   UNL     1     -10.240  -1.609  -1.829  0.00  0.00    -0.245 OA
ATOM     10  O   UNL     1      -8.048  -1.814  -1.665  0.00  0.00    -0.422 OA
ATOM     11  C   UNL     1      -6.931  -1.906  -0.910  0.00  0.00    +0.143 A 
ATOM     12  C   UNL     1      -5.685  -2.026  -1.503  0.00  0.00    +0.093 A 
ATOM     13  C   UNL     1      -4.542  -2.119  -0.716  0.00  0.00    +0.128 A 
ATOM     14  O   UNL     1      -3.237  -2.227  -1.095  0.00  0.00    -0.484 OA
ENDROOT
BRANCH   1  15
ATOM     15  C   UNL     1      -1.057  -2.117   0.001  0.00  0.00    +0.145 C 
ATOM     16  C   UNL     1      -0.316  -2.571  -1.258  0.00  0.00    +0.059 C 
ATOM     17  C   UNL     1      -0.292  -2.585   1.240  0.00  0.00    +0.059 C 
BRANCH  15  18
ATOM     18  O   UNL     1      -1.151  -0.691   0.009  0.00  0.00    -0.455 OA
BRANCH  18  20
ATOM     19  C   UNL     1      -0.018   1.503   0.010  0.00  0.00    +0.136 C 
ATOM     20  C   UNL     1       0.002  -0.004   0.002  0.00  0.00    +0.305 C 
ATOM     21  O   UNL     1       1.056  -0.594  -0.011  0.00  0.00    -0.251 OA
ENDBRANCH  18  20
ENDBRANCH  15  18
ENDBRANCH   1  15
TORSDOF 3
