REMARK  Name = ZINC04546375
REMARK  8 active torsions:
REMARK  status: ('A' for Active; 'I' for Inactive)
REMARK    1  A    between atoms: C_1  and  C_2
REMARK    2  A    between atoms: C_2  and  C_3
REMARK    3  A    between atoms: C_2  and  C_4
REMARK    4  A    between atoms: C_4  and  C_6
REMARK    5  A    between atoms: C_4  and  O_12
REMARK    6  A    between atoms: O_12  and  C_13
REMARK    7  A    between atoms: C_13  and  C_15
REMARK    8  A    between atoms: C_15  and  C_16
REMARK                            x       y       z     vdW  Elec       q    Type
REMARK                         _______ _______ _______ _____ _____    ______ ____
ROOT
ATOM      1  C   UNL     1       2.852  -1.846  -1.601  0.00  0.00    +0.309 C 
ATOM      2  O   UNL     1       3.427  -2.368  -0.675  0.00  0.00    -0.251 OA
ENDROOT
BRANCH   1   3
ATOM      3  O   UNL     1       3.285  -2.041  -2.856  0.00  0.00    -0.452 OA
BRANCH   3   4
ATOM      4  C   UNL     1       4.449  -2.891  -3.027  0.00  0.00    +0.264 C 
BRANCH   4   5
ATOM      5  C   UNL     1       5.218  -2.451  -4.247  0.00  0.00    +0.261 C 
ATOM      6  O   UNL     1       6.308  -2.927  -4.481  0.00  0.00    -0.271 OA
ATOM      7  N   UNL     1       4.693  -1.529  -5.078  0.00  0.00    -0.237 N 
ATOM      8  C   UNL     1       5.328  -1.215  -6.224  0.00  0.00    +0.303 C 
ATOM      9  O   UNL     1       6.374  -1.765  -6.509  0.00  0.00    -0.253 OA
ATOM     10  N   UNL     1       4.803  -0.293  -7.055  0.00  0.00    -0.313 N 
ATOM     11  H   UNL     1       3.858  -1.091  -4.850  0.00  0.00    +0.159 HD
ATOM     12  H   UNL     1       3.968   0.145  -6.828  0.00  0.00    +0.146 HD
ATOM     13  H   UNL     1       5.260  -0.067  -7.880  0.00  0.00    +0.146 HD
ENDBRANCH   4   5
BRANCH   4  15
ATOM     14  C   UNL     1       5.227  -5.256  -3.245  0.00  0.00    +0.011 C 
ATOM     15  C   UNL     1       4.000  -4.343  -3.204  0.00  0.00    +0.033 C 
ATOM     16  C   UNL     1       3.103  -4.745  -2.031  0.00  0.00    +0.011 C 
ENDBRANCH   4  15
ENDBRANCH   3   4
ENDBRANCH   1   3
BRANCH   1  17
ATOM     17  C   UNL     1       1.649  -0.975  -1.345  0.00  0.00    +0.144 C 
BRANCH  17  18
ATOM     18  C   UNL     1       1.369  -0.919   0.158  0.00  0.00    +0.148 C 
ATOM     19  C   UNL     1       0.097  -0.152   0.408  0.00  0.00    +0.231 C 
ATOM     20  O   UNL     1      -0.927  -0.775   0.590  0.00  0.00    -0.274 OA
ATOM     21  N   UNL     1       0.043   1.176   0.440  0.00  0.00    -0.284 N 
ATOM     22  C   UNL     1       1.123   2.052   0.368  0.00  0.00    +0.047 A 
ATOM     23  C   UNL     1       0.892   3.389   0.058  0.00  0.00    +0.024 A 
ATOM     24  C   UNL     1       1.946   4.276  -0.026  0.00  0.00    +0.002 A 
ATOM     25  C   UNL     1       3.243   3.848   0.196  0.00  0.00    +0.001 A 
ATOM     26  C   UNL     1       3.486   2.523   0.508  0.00  0.00    +0.016 A 
ATOM     27  C   UNL     1       2.432   1.630   0.597  0.00  0.00    +0.030 A 
ATOM     28  S   UNL     1       2.734  -0.062   1.002  0.00  0.00    -0.110 S 
ATOM     29  H   UNL     1      -0.837   1.575   0.516  0.00  0.00    +0.155 HD
ENDBRANCH  17  18
ENDBRANCH   1  17
TORSDOF 6
