REMARK  Name = ZINC09892104
REMARK  6 active torsions:
REMARK  status: ('A' for Active; 'I' for Inactive)
REMARK    1  A    between atoms: C_3  and  C_10
REMARK    2  A    between atoms: C_5  and  N_7
REMARK    3  A    between atoms: N_15  and  C_16
REMARK    4  A    between atoms: C_16  and  N_18
REMARK    5  A    between atoms: C_19  and  C_21
REMARK    6  A    between atoms: C_22  and  C_23
REMARK                            x       y       z     vdW  Elec       q    Type
REMARK                         _______ _______ _______ _____ _____    ______ ____
ROOT
ATOM      1  C   UNL     1       3.640   2.143  -0.004  0.00  0.00    +0.055 A 
ATOM      2  C   UNL     1       4.943   1.454  -0.026  0.00  0.00    +0.074 A 
ATOM      3  S   UNL     1       6.040   2.729  -0.036  0.00  0.00    -0.060 S 
ATOM      4  C   UNL     1       4.891   4.090  -0.013  0.00  0.00    +0.162 A 
ATOM      5  N   UNL     1       3.667   3.470  -0.003  0.00  0.00    -0.335 N 
ATOM      6  N   UNL     1       5.153   5.381  -0.011  0.00  0.00    -0.169 NA
ATOM      7  H   UNL     1       2.845   3.987   0.007  0.00  0.00    +0.168 HD
ENDROOT
BRANCH   1  10
ATOM      8  C   UNL     1      -0.018   1.385   0.040  0.00  0.00    +0.003 A 
ATOM      9  C   UNL     1       1.153   2.089   0.026  0.00  0.00    +0.010 A 
ATOM     10  C   UNL     1       2.381   1.401   0.011  0.00  0.00    +0.001 A 
ATOM     11  C   UNL     1       2.388  -0.008   0.010  0.00  0.00    +0.042 A 
ATOM     12  C   UNL     1       1.205  -0.691   0.024  0.00  0.00    +0.127 A 
ATOM     13  C   UNL     1       0.000  -0.002   0.038  0.00  0.00    +0.033 A 
BRANCH  12  14
ATOM     14  N   UNL     1       1.209  -2.171   0.022  0.00  0.00    +0.056 N 
ATOM     15  O   UNL     1       2.351  -2.827   0.008  0.00  0.00    -0.126 OA
ATOM     16  O   UNL     1       0.070  -2.832   0.035  0.00  0.00    -0.126 OA
ENDBRANCH  12  14
ENDBRANCH   1  10
BRANCH   6  17
ATOM     17  C   UNL     1       6.424   5.809   0.078  0.00  0.00    +0.163 C 
ATOM     18  S   UNL     1       7.710   4.679   0.051  0.00  0.00    -0.016 S 
BRANCH  17  19
ATOM     19  N   UNL     1       6.686   7.126   0.188  0.00  0.00    -0.263 N 
ATOM     20  C   UNL     1       7.960   7.555   0.277  0.00  0.00    +0.242 C 
ATOM     21  O   UNL     1       8.875   6.752   0.258  0.00  0.00    -0.270 OA
ATOM     22  H   UNL     1       5.957   7.766   0.203  0.00  0.00    +0.157 HD
BRANCH  20  23
ATOM     23  C   UNL     1       8.244   8.985   0.396  0.00  0.00    +0.068 C 
ATOM     24  C   UNL     1       9.520   9.414   0.486  0.00  0.00    +0.013 C 
BRANCH  24  25
ATOM     25  C   UNL     1       9.806  10.852   0.606  0.00  0.00    -0.025 A 
ATOM     26  C   UNL     1       8.757  11.777   0.634  0.00  0.00    +0.009 A 
ATOM     27  C   UNL     1       9.033  13.123   0.747  0.00  0.00    +0.020 A 
ATOM     28  C   UNL     1      10.344  13.560   0.833  0.00  0.00    +0.041 A 
ATOM     29  C   UNL     1      11.388  12.650   0.806  0.00  0.00    +0.020 A 
ATOM     30  C   UNL     1      11.128  11.300   0.699  0.00  0.00    +0.009 A 
ATOM     31 CL   UNL     1      10.682  15.257   0.976  0.00  0.00    -0.084 Cl
ENDBRANCH  24  25
ENDBRANCH  20  23
ENDBRANCH  17  19
ENDBRANCH   6  17
TORSDOF 6
