REMARK  Name = ZINC59086843
REMARK  5 active torsions:
REMARK  status: ('A' for Active; 'I' for Inactive)
REMARK    1  A    between atoms: C_1  and  C_2
REMARK    2  A    between atoms: C_2  and  O_3
REMARK    3  A    between atoms: O_3  and  C_4
REMARK    4  A    between atoms: C_4  and  C_6
REMARK    5  A    between atoms: C_8  and  C_24
REMARK                            x       y       z     vdW  Elec       q    Type
REMARK                         _______ _______ _______ _____ _____    ______ ____
ROOT
ATOM      1  C   UNL     1      -2.881  -2.427   0.017  0.00  0.00    +0.195 C 
ATOM      2  C   UNL     1      -2.790  -3.956   0.031  0.00  0.00    +0.082 C 
ATOM      3  C   UNL     1      -2.407  -4.434   1.408  0.00  0.00    +0.088 A 
ATOM      4  C   UNL     1      -2.582  -3.661   2.514  0.00  0.00    +0.151 A 
ATOM      5  C   UNL     1      -2.194  -4.216   3.822  0.00  0.00    +0.060 A 
ATOM      6  C   UNL     1      -2.356  -3.474   4.994  0.00  0.00    +0.015 A 
ATOM      7  C   UNL     1      -1.983  -4.022   6.202  0.00  0.00    +0.001 A 
ATOM      8  C   UNL     1      -1.451  -5.302   6.256  0.00  0.00    +0.004 A 
ATOM      9  C   UNL     1      -1.285  -6.044   5.106  0.00  0.00    +0.047 A 
ATOM     10  C   UNL     1      -1.653  -5.511   3.878  0.00  0.00    +0.143 A 
ATOM     11  O   UNL     1      -1.497  -6.220   2.740  0.00  0.00    -0.422 OA
ATOM     12  C   UNL     1      -1.853  -5.723   1.546  0.00  0.00    +0.345 A 
ATOM     13  O   UNL     1      -1.693  -6.407   0.551  0.00  0.00    -0.245 OA
ATOM     14  O   UNL     1      -3.084  -2.408   2.453  0.00  0.00    -0.440 OA
ATOM     15  C   UNL     1      -3.616  -2.000   1.272  0.00  0.00    +0.204 C 
ATOM     16  N   UNL     1      -4.690  -1.288   1.221  0.00  0.00    -0.270 NA
ATOM     17  H   UNL     1      -5.140  -1.029   2.040  0.00  0.00    +0.190 HD
ENDROOT
BRANCH   2  18
ATOM     18  C   UNL     1      -4.127  -4.540  -0.346  0.00  0.00    -0.037 A 
ATOM     19  C   UNL     1      -5.244  -4.259   0.418  0.00  0.00    +0.006 A 
ATOM     20  C   UNL     1      -6.471  -4.794   0.074  0.00  0.00    +0.022 A 
ATOM     21  C   UNL     1      -6.581  -5.612  -1.036  0.00  0.00    +0.059 A 
ATOM     22  C   UNL     1      -5.463  -5.894  -1.802  0.00  0.00    +0.060 A 
ATOM     23  C   UNL     1      -4.237  -5.353  -1.458  0.00  0.00    +0.025 A 
ATOM     24 CL   UNL     1      -5.600  -6.921  -3.195  0.00  0.00    -0.082 Cl
ATOM     25 CL   UNL     1      -8.122  -6.286  -1.469  0.00  0.00    -0.082 Cl
ENDBRANCH   2  18
BRANCH   1  26
ATOM     26  C   UNL     1      -1.496  -1.832   0.006  0.00  0.00    +0.320 C 
ATOM     27  O   UNL     1      -0.528  -2.555  -0.007  0.00  0.00    -0.250 OA
BRANCH  26  28
ATOM     28  O   UNL     1      -1.339  -0.499   0.012  0.00  0.00    -0.464 OA
BRANCH  28  30
ATOM     29  C   UNL     1      -0.019   1.526   0.010  0.00  0.00    +0.048 C 
ATOM     30  C   UNL     1       0.002  -0.004   0.002  0.00  0.00    +0.229 C 
ENDBRANCH  28  30
ENDBRANCH  26  28
ENDBRANCH   1  26
TORSDOF 4
