REMARK  Name = ZINC02769567
REMARK  11 active torsions:
REMARK  status: ('A' for Active; 'I' for Inactive)
REMARK    1  A    between atoms: C_1  and  C_2
REMARK    2  A    between atoms: C_2  and  O_3
REMARK    3  A    between atoms: O_3  and  C_4
REMARK    4  A    between atoms: C_4  and  C_6
REMARK    5  A    between atoms: C_7  and  N_34
REMARK    6  A    between atoms: C_11  and  C_13
REMARK    7  A    between atoms: C_16  and  C_18
REMARK    8  A    between atoms: C_18  and  O_19
REMARK    9  A    between atoms: O_19  and  C_20
REMARK   10  A    between atoms: C_30  and  C_32
REMARK   11  A    between atoms: C_30  and  C_33
REMARK                            x       y       z     vdW  Elec       q    Type
REMARK                         _______ _______ _______ _____ _____    ______ ____
ROOT
ATOM      1  C   UNL     1       0.005  -0.009   0.022  0.00  0.00    +0.108 C 
ATOM      2  C   UNL     1      -0.016   1.336  -0.164  0.00  0.00    +0.195 C 
ATOM      3  O   UNL     1       1.117   2.054  -0.196  0.00  0.00    -0.446 OA
ATOM      4  C   UNL     1       2.285   1.449  -0.482  0.00  0.00    +0.115 C 
ATOM      5  C   UNL     1       2.449   0.124  -0.311  0.00  0.00    +0.048 C 
ATOM      6  C   UNL     1       1.312  -0.732   0.194  0.00  0.00    +0.133 C 
ATOM      7  C   UNL     1       3.677  -0.504  -0.594  0.00  0.00    +0.164 C 
ATOM      8  O   UNL     1       3.782  -1.704  -0.442  0.00  0.00    -0.292 OA
ATOM      9  C   UNL     1       4.862   0.285  -1.081  0.00  0.00    +0.086 C 
ATOM     10  C   UNL     1       4.755   1.718  -0.549  0.00  0.00    -0.021 C 
ATOM     11  C   UNL     1       3.416   2.304  -1.002  0.00  0.00    +0.081 C 
ATOM     12  C   UNL     1       4.821   1.706   0.979  0.00  0.00    +0.012 C 
ATOM     13  C   UNL     1       5.905   2.561  -1.107  0.00  0.00    +0.012 C 
ENDROOT
BRANCH   6  14
ATOM     14  C   UNL     1       1.528  -1.033   1.655  0.00  0.00    +0.118 A 
ATOM     15  C   UNL     1       1.673  -2.257   2.192  0.00  0.00    +0.046 A 
ATOM     16  C   UNL     1       1.851  -2.075   3.583  0.00  0.00    +0.048 A 
ATOM     17  C   UNL     1       1.805  -0.751   3.812  0.00  0.00    +0.142 A 
ATOM     18  O   UNL     1       1.615  -0.124   2.639  0.00  0.00    -0.460 OA
BRANCH  17  19
ATOM     19  C   UNL     1       1.949  -0.083   5.155  0.00  0.00    +0.303 C 
BRANCH  19  20
ATOM     20  O   UNL     1       3.327   0.206   5.398  0.00  0.00    -0.484 OA
BRANCH  20  21
ATOM     21  C   UNL     1       3.632   0.813   6.575  0.00  0.00    +0.122 A 
ATOM     22  C   UNL     1       2.625   1.130   7.475  0.00  0.00    +0.046 A 
ATOM     23  C   UNL     1       2.938   1.743   8.672  0.00  0.00    +0.005 A 
ATOM     24  C   UNL     1       4.252   2.051   8.971  0.00  0.00    +0.015 A 
ATOM     25  C   UNL     1       5.258   1.741   8.073  0.00  0.00    +0.021 A 
ATOM     26  C   UNL     1       4.950   1.123   6.875  0.00  0.00    +0.061 A 
ATOM     27 BR   UNL     1       7.055   2.164   8.484  0.00  0.00    -0.050 Br
ENDBRANCH  20  21
ENDBRANCH  19  20
ENDBRANCH  17  19
ENDBRANCH   6  14
BRANCH   2  28
ATOM     28  N   UNL     1      -1.218   1.972  -0.328  0.00  0.00    -0.329 N 
ATOM     29  H   UNL     1      -2.035   1.454  -0.396  0.00  0.00    +0.145 HD
ATOM     30  H   UNL     1      -1.252   2.940  -0.377  0.00  0.00    +0.145 HD
ENDBRANCH   2  28
BRANCH   1  31
ATOM     31  C   UNL     1      -1.199  -0.729   0.053  0.00  0.00    +0.341 C 
ATOM     32  O   UNL     1      -1.558  -1.359  -0.926  0.00  0.00    -0.245 OA
BRANCH  31  33
ATOM     33  O   UNL     1      -1.961  -0.722   1.168  0.00  0.00    -0.462 OA
BRANCH  33  35
ATOM     34  C   UNL     1      -3.897  -1.349   2.472  0.00  0.00    +0.048 C 
ATOM     35  C   UNL     1      -3.175  -1.476   1.129  0.00  0.00    +0.229 C 
ENDBRANCH  33  35
ENDBRANCH  31  33
ENDBRANCH   1  31
TORSDOF 8
