REMARK  Name = ZINC55412235
REMARK  4 active torsions:
REMARK  status: ('A' for Active; 'I' for Inactive)
REMARK    1  A    between atoms: C_1  and  C_2
REMARK    2  A    between atoms: C_3  and  C_26
REMARK    3  A    between atoms: C_4  and  C_19
REMARK    4  A    between atoms: C_9  and  C_11
REMARK                            x       y       z     vdW  Elec       q    Type
REMARK                         _______ _______ _______ _____ _____    ______ ____
ROOT
ATOM      1  C   UNL     1       0.068   0.335  -1.286  0.00  0.00    +0.062 C 
ATOM      2  C   UNL     1      -0.564   1.519  -1.971  0.00  0.00    +0.034 C 
ATOM      3  C   UNL     1      -0.492   2.859  -1.298  0.00  0.00    +0.148 C 
ATOM      4  C   UNL     1      -0.413   3.995  -2.325  0.00  0.00    +0.161 C 
ATOM      5  N   UNL     1      -1.352   3.694  -3.405  0.00  0.00    -0.220 N 
ATOM      6  C   UNL     1      -1.671   2.413  -3.764  0.00  0.00    +0.250 A 
ATOM      7  N   UNL     1      -2.514   2.477  -4.761  0.00  0.00    -0.189 NA
ATOM      8  C   UNL     1      -2.763   3.761  -5.059  0.00  0.00    +0.185 A 
ATOM      9  N   UNL     1      -2.070   4.537  -4.246  0.00  0.00    -0.147 NA
ATOM     10  N   UNL     1      -1.139   1.336  -3.114  0.00  0.00    -0.220 NA
ENDROOT
BRANCH   8  11
ATOM     11  C   UNL     1      -3.673   4.234  -6.131  0.00  0.00    +0.039 A 
ATOM     12  C   UNL     1      -3.847   5.599  -6.349  0.00  0.00    +0.013 A 
ATOM     13  C   UNL     1      -4.694   6.034  -7.348  0.00  0.00    +0.001 A 
ATOM     14  C   UNL     1      -5.372   5.117  -8.132  0.00  0.00    +0.001 A 
ATOM     15  C   UNL     1      -5.204   3.761  -7.921  0.00  0.00    +0.021 A 
ATOM     16  C   UNL     1      -4.353   3.314  -6.928  0.00  0.00    +0.052 A 
ATOM     17 CL   UNL     1      -4.137   1.612  -6.669  0.00  0.00    -0.083 Cl
ENDBRANCH   8  11
BRANCH   4  18
ATOM     18  C   UNL     1      -0.789   5.300  -1.671  0.00  0.00    +0.013 A 
ATOM     19  C   UNL     1      -1.450   6.272  -2.397  0.00  0.00    +0.008 A 
ATOM     20  C   UNL     1      -1.795   7.469  -1.798  0.00  0.00    +0.001 A 
ATOM     21  C   UNL     1      -1.479   7.695  -0.471  0.00  0.00    +0.003 A 
ATOM     22  C   UNL     1      -0.819   6.724   0.257  0.00  0.00    +0.039 A 
ATOM     23  C   UNL     1      -0.477   5.523  -0.341  0.00  0.00    +0.129 A 
ATOM     24  F   UNL     1       0.165   4.571   0.372  0.00  0.00    -0.205 F 
ENDBRANCH   4  18
BRANCH   3  25
ATOM     25  C   UNL     1      -1.719   3.050  -0.445  0.00  0.00    +0.221 C 
ATOM     26  O   UNL     1      -2.737   3.490  -0.936  0.00  0.00    -0.275 OA
ATOM     27  N   UNL     1      -1.687   2.731   0.864  0.00  0.00    -0.329 N 
ATOM     28  H   UNL     1      -0.873   2.378   1.257  0.00  0.00    +0.145 HD
ATOM     29  H   UNL     1      -2.477   2.853   1.413  0.00  0.00    +0.145 HD
ENDBRANCH   3  25
TORSDOF 3
