REMARK  Name = ZINC64502737
REMARK  9 active torsions:
REMARK  status: ('A' for Active; 'I' for Inactive)
REMARK    1  A    between atoms: C_1  and  O_2
REMARK    2  A    between atoms: O_2  and  C_3
REMARK    3  A    between atoms: C_3  and  C_4
REMARK    4  A    between atoms: C_8  and  C_11
REMARK    5  A    between atoms: N_13  and  C_14
REMARK    6  A    between atoms: C_17  and  C_20
REMARK    7  A    between atoms: N_22  and  C_23
REMARK    8  A    between atoms: C_23  and  C_24
REMARK    9  A    between atoms: C_24  and  C_25
REMARK                            x       y       z     vdW  Elec       q    Type
REMARK                         _______ _______ _______ _____ _____    ______ ____
ROOT
ATOM      1  C   UNL     1      -2.663  -4.700  -3.656  0.00  0.00    +0.034 A 
ATOM      2  C   UNL     1      -3.720  -3.796  -3.619  0.00  0.00    +0.024 A 
ATOM      3  C   UNL     1      -4.690  -3.828  -4.595  0.00  0.00    +0.015 A 
ATOM      4  C   UNL     1      -4.612  -4.769  -5.625  0.00  0.00    +0.037 A 
ATOM      5  C   UNL     1      -3.549  -5.676  -5.660  0.00  0.00    +0.015 A 
ATOM      6  C   UNL     1      -2.580  -5.635  -4.683  0.00  0.00    +0.024 A 
ENDROOT
BRANCH   1   9
ATOM      7  C   UNL     1      -2.017  -4.357  -1.397  0.00  0.00    +0.254 C 
ATOM      8  O   UNL     1      -3.154  -4.029  -1.132  0.00  0.00    -0.272 OA
ATOM      9  N   UNL     1      -1.683  -4.666  -2.666  0.00  0.00    -0.283 N 
ATOM     10  H   UNL     1      -0.760  -4.863  -2.890  0.00  0.00    +0.155 HD
BRANCH   7  14
ATOM     11  C   UNL     1      -0.317  -2.891   1.852  0.00  0.00    +0.213 C 
ATOM     12  N   UNL     1       0.298  -2.638   0.529  0.00  0.00    -0.174 NA
ATOM     13  N   UNL     1       0.004  -3.319  -0.433  0.00  0.00    -0.167 NA
ATOM     14  C   UNL     1      -0.978  -4.421  -0.307  0.00  0.00    +0.272 C 
ATOM     15  S   UNL     1      -1.703  -4.005   1.343  0.00  0.00    -0.093 S 
BRANCH  11  16
ATOM     16  C   UNL     1      -0.843  -1.598   2.479  0.00  0.00    +0.199 C 
BRANCH  16  18
ATOM     17  C   UNL     1      -2.284   0.270   2.057  0.00  0.00    +0.194 C 
ATOM     18  O   UNL     1      -1.734  -0.954   1.566  0.00  0.00    -0.380 OA
ENDBRANCH  16  18
ENDBRANCH  11  16
ENDBRANCH   7  14
ENDBRANCH   1   9
BRANCH   4  19
ATOM     19  C   UNL     1      -5.650  -4.806  -6.674  0.00  0.00    +0.244 C 
ATOM     20  O   UNL     1      -6.575  -4.017  -6.642  0.00  0.00    -0.270 OA
ATOM     21  N   UNL     1      -5.574  -5.715  -7.666  0.00  0.00    -0.311 N 
ATOM     22  H   UNL     1      -4.836  -6.344  -7.692  0.00  0.00    +0.149 HD
BRANCH  21  23
ATOM     23  C   UNL     1      -6.604  -5.751  -8.707  0.00  0.00    +0.109 C 
BRANCH  23  24
ATOM     24  C   UNL     1      -6.282  -6.866  -9.704  0.00  0.00    +0.052 C 
BRANCH  24  25
ATOM     25  C   UNL     1      -7.343  -6.904 -10.774  0.00  0.00    -0.040 C 
ATOM     26  C   UNL     1      -7.296  -6.306 -11.987  0.00  0.00    +0.000 A 
ATOM     27  C   UNL     1      -6.283  -5.474 -12.646  0.00  0.00    +0.030 A 
ATOM     28  C   UNL     1      -6.526  -5.008 -13.893  0.00  0.00    +0.042 A 
ATOM     29  C   UNL     1      -7.720  -5.301 -14.569  0.00  0.00    +0.022 A 
ATOM     30  C   UNL     1      -8.697  -6.058 -14.028  0.00  0.00    +0.027 A 
ATOM     31  C   UNL     1      -8.547  -6.601 -12.722  0.00  0.00    +0.043 A 
ATOM     32  N   UNL     1      -9.336  -7.351 -11.992  0.00  0.00    -0.380 N 
ATOM     33  C   UNL     1      -8.672  -7.623 -10.713  0.00  0.00    +0.144 C 
ATOM     34 CL   UNL     1      -5.331  -4.023 -14.677  0.00  0.00    -0.084 Cl
ATOM     35  H   UNL     1     -10.211  -7.675 -12.256  0.00  0.00    +0.160 HD
ENDBRANCH  24  25
ENDBRANCH  23  24
ENDBRANCH  21  23
ENDBRANCH   4  19
TORSDOF 8
