REMARK  Name = ZINC23622634
REMARK  7 active torsions:
REMARK  status: ('A' for Active; 'I' for Inactive)
REMARK    1  A    between atoms: C_1  and  C_2
REMARK    2  A    between atoms: C_5  and  N_25
REMARK    3  A    between atoms: C_7  and  N_8
REMARK    4  A    between atoms: N_8  and  C_9
REMARK    5  A    between atoms: C_9  and  C_10
REMARK    6  A    between atoms: N_12  and  C_13
REMARK    7  A    between atoms: C_13  and  C_14
REMARK                            x       y       z     vdW  Elec       q    Type
REMARK                         _______ _______ _______ _____ _____    ______ ____
ROOT
ATOM      1  C   UNL     1       4.860  -2.969  -0.062  0.00  0.00    +0.230 C 
ATOM      2  O   UNL     1       4.652  -4.164  -0.066  0.00  0.00    -0.274 OA
ATOM      3  N   UNL     1       6.125  -2.505  -0.072  0.00  0.00    -0.310 N 
ATOM      4  H   UNL     1       6.314  -1.422  -0.068  0.00  0.00    +0.149 HD
ENDROOT
BRANCH   1   5
ATOM      5  C   UNL     1       3.703  -2.003  -0.045  0.00  0.00    +0.197 C 
BRANCH   5   6
ATOM      6  N   UNL     1       2.443  -2.751  -0.036  0.00  0.00    -0.335 N 
ATOM      7  H   UNL     1       2.456  -3.851  -0.043  0.00  0.00    +0.147 HD
BRANCH   6  14
ATOM      8  C   UNL     1       0.044  -4.280  -0.021  0.00  0.00    +0.045 C 
ATOM      9  C   UNL     1       0.030  -2.773  -0.013  0.00  0.00    -0.029 A 
ATOM     10  C   UNL     1      -1.172  -2.094   0.002  0.00  0.00    +0.007 A 
ATOM     11  C   UNL     1      -1.187  -0.711   0.015  0.00  0.00    +0.033 A 
ATOM     12  C   UNL     1       0.002  -0.004   0.002  0.00  0.00    +0.128 A 
ATOM     13  C   UNL     1       1.208  -0.677  -0.013  0.00  0.00    +0.056 A 
ATOM     14  C   UNL     1       1.226  -2.067  -0.021  0.00  0.00    +0.033 A 
BRANCH  12  15
ATOM     15  N   UNL     1      -0.018   1.476   0.010  0.00  0.00    +0.056 N 
ATOM     16  O   UNL     1       1.028   2.099   0.004  0.00  0.00    -0.126 OA
ATOM     17  O   UNL     1      -1.081   2.070   0.018  0.00  0.00    -0.126 OA
ENDBRANCH  12  15
ENDBRANCH   6  14
ENDBRANCH   5   6
ENDBRANCH   1   5
BRANCH   3  18
ATOM     18  C   UNL     1       7.250  -3.444  -0.088  0.00  0.00    +0.152 C 
BRANCH  18  19
ATOM     19  C   UNL     1       8.566  -2.664  -0.097  0.00  0.00    +0.228 C 
ATOM     20  C   UNL     1       9.747  -3.642  -0.144  0.00  0.00    +0.275 C 
ATOM     21  O   UNL     1      10.959  -2.880  -0.165  0.00  0.00    -0.485 OA
ATOM     22  C   UNL     1      11.006  -1.829  -1.028  0.00  0.00    +0.162 A 
ATOM     23  C   UNL     1      12.234  -1.279  -1.365  0.00  0.00    +0.049 A 
ATOM     24  C   UNL     1      12.297  -0.209  -2.237  0.00  0.00    +0.004 A 
ATOM     25  C   UNL     1      11.138   0.315  -2.777  0.00  0.00    +0.004 A 
ATOM     26  C   UNL     1       9.911  -0.230  -2.448  0.00  0.00    +0.049 A 
ATOM     27  C   UNL     1       9.840  -1.304  -1.573  0.00  0.00    +0.163 A 
ATOM     28  O   UNL     1       8.626  -1.832  -1.260  0.00  0.00    -0.480 OA
ENDBRANCH  18  19
ENDBRANCH   3  18
TORSDOF 6
