REMARK  Name = ZINC53113019
REMARK  7 active torsions:
REMARK  status: ('A' for Active; 'I' for Inactive)
REMARK    1  A    between atoms: C_1  and  C_2
REMARK    2  A    between atoms: C_5  and  C_8
REMARK    3  A    between atoms: C_5  and  N_10
REMARK    4  A    between atoms: C_8  and  O_9
REMARK    5  A    between atoms: N_10  and  S_11
REMARK    6  A    between atoms: S_11  and  C_14
REMARK    7  A    between atoms: C_17  and  N_21
REMARK                            x       y       z     vdW  Elec       q    Type
REMARK                         _______ _______ _______ _____ _____    ______ ____
ROOT
ATOM      1  S   UNL     1      -1.077  -2.272   3.914  0.00  0.00    +0.060 S 
ATOM      2  O   UNL     1       0.312  -2.466   3.688  0.00  0.00    -0.153 OA
ATOM      3  O   UNL     1      -1.571  -1.329   4.855  0.00  0.00    -0.153 OA
ENDROOT
BRANCH   1   4
ATOM      4  C   UNL     1      -1.735  -3.839   4.380  0.00  0.00    +0.124 A 
ATOM      5  C   UNL     1      -0.884  -4.908   4.595  0.00  0.00    +0.032 A 
ATOM      6  C   UNL     1      -1.396  -6.138   4.960  0.00  0.00    +0.025 A 
ATOM      7  C   UNL     1      -2.768  -6.301   5.111  0.00  0.00    +0.026 A 
ATOM      8  C   UNL     1      -3.620  -5.226   4.895  0.00  0.00    +0.044 A 
ATOM      9  C   UNL     1      -3.101  -3.996   4.535  0.00  0.00    +0.069 A 
ATOM     10 CL   UNL     1      -4.164  -2.650   4.270  0.00  0.00    -0.081 Cl
BRANCH   7  11
ATOM     11  N   UNL     1      -3.288  -7.543   5.480  0.00  0.00    -0.358 N 
ATOM     12  H   UNL     1      -2.692  -8.293   5.630  0.00  0.00    +0.142 HD
ATOM     13  H   UNL     1      -4.246  -7.656   5.585  0.00  0.00    +0.142 HD
ENDBRANCH   7  11
ENDBRANCH   1   4
BRANCH   1  14
ATOM     14  N   UNL     1      -1.744  -1.876   2.451  0.00  0.00    -0.182 NA
ATOM     15  H   UNL     1      -2.532  -1.312   2.415  0.00  0.00    +0.149 HD
BRANCH  14  20
ATOM     16  C   UNL     1      -0.725   1.681  -0.228  0.00  0.00    +0.007 C 
ATOM     17  C   UNL     1      -0.655   0.154  -0.179  0.00  0.00    -0.014 C 
ATOM     18  C   UNL     1      -2.067  -0.416  -0.029  0.00  0.00    +0.005 C 
ATOM     19  C   UNL     1      -1.998  -1.944   0.020  0.00  0.00    +0.026 C 
ATOM     20  C   UNL     1      -1.144  -2.378   1.213  0.00  0.00    +0.063 C 
ATOM     21  C   UNL     1       0.268  -1.808   1.063  0.00  0.00    +0.026 C 
ATOM     22  C   UNL     1       0.199  -0.280   1.014  0.00  0.00    +0.005 C 
BRANCH  20  23
ATOM     23  C   UNL     1      -1.074  -3.905   1.262  0.00  0.00    +0.179 C 
BRANCH  23  24
ATOM     24  O   UNL     1      -0.145  -4.308   2.270  0.00  0.00    -0.393 OA
ATOM     25  H   UNL     1      -0.049  -5.266   2.357  0.00  0.00    +0.209 HD
ENDBRANCH  23  24
ENDBRANCH  20  23
ENDBRANCH  14  20
ENDBRANCH   1  14
TORSDOF 6
