REMARK  Name = ZINC64052837
REMARK  11 active torsions:
REMARK  status: ('A' for Active; 'I' for Inactive)
REMARK    1  A    between atoms: C_1  and  C_2
REMARK    2  A    between atoms: C_4  and  C_12
REMARK    3  A    between atoms: C_12  and  C_14
REMARK    4  A    between atoms: C_14  and  O_15
REMARK    5  A    between atoms: O_15  and  C_16
REMARK    6  A    between atoms: C_16  and  C_18
REMARK    7  A    between atoms: C_20  and  S_25
REMARK    8  A    between atoms: S_25  and  N_28
REMARK    9  A    between atoms: N_28  and  C_29
REMARK   10  A    between atoms: C_29  and  C_30
REMARK   11  A    between atoms: C_29  and  C_31
REMARK                            x       y       z     vdW  Elec       q    Type
REMARK                         _______ _______ _______ _____ _____    ______ ____
ROOT
ATOM      1  C   UNL     1       1.311  -0.953  -6.043  0.00  0.00    +0.341 C 
ATOM      2  O   UNL     1       2.312  -1.630  -5.928  0.00  0.00    -0.245 OA
ENDROOT
BRANCH   1   3
ATOM      3  C   UNL     1       0.796  -0.617  -7.385  0.00  0.00    +0.075 A 
ATOM      4  C   UNL     1      -0.353   0.166  -7.521  0.00  0.00    +0.044 A 
ATOM      5  C   UNL     1      -0.828   0.475  -8.778  0.00  0.00    +0.106 A 
ATOM      6  C   UNL     1      -0.171   0.011  -9.904  0.00  0.00    +0.029 A 
ATOM      7  C   UNL     1       0.967  -0.765  -9.778  0.00  0.00    +0.018 A 
ATOM      8  C   UNL     1       1.458  -1.078  -8.526  0.00  0.00    +0.032 A 
ATOM      9 BR   UNL     1       3.018  -2.133  -8.356  0.00  0.00    -0.049 Br
BRANCH   5  10
ATOM     10  S   UNL     1      -2.277   1.463  -8.951  0.00  0.00    +0.059 S 
ATOM     11  O   UNL     1      -2.828   1.157 -10.224  0.00  0.00    -0.153 OA
ATOM     12  O   UNL     1      -3.015   1.316  -7.745  0.00  0.00    -0.153 OA
BRANCH  10  13
ATOM     13  N   UNL     1      -1.787   3.044  -9.015  0.00  0.00    -0.187 NA
ATOM     14  H   UNL     1      -2.039   3.659  -8.309  0.00  0.00    +0.148 HD
BRANCH  13  15
ATOM     15  C   UNL     1      -0.973   3.513 -10.139  0.00  0.00    +0.070 C 
ATOM     16  C   UNL     1      -1.882   4.133 -11.203  0.00  0.00    +0.025 C 
ATOM     17  C   UNL     1       0.022   4.564  -9.644  0.00  0.00    +0.025 C 
ENDBRANCH  13  15
ENDBRANCH  10  13
ENDBRANCH   5  10
ENDBRANCH   1   3
BRANCH   1  18
ATOM     18  O   UNL     1       0.670  -0.507  -4.945  0.00  0.00    -0.453 OA
BRANCH  18  19
ATOM     19  C   UNL     1       1.223  -0.869  -3.678  0.00  0.00    +0.311 C 
BRANCH  19  20
ATOM     20  C   UNL     1       0.379  -0.286  -2.575  0.00  0.00    +0.199 C 
ATOM     21  O   UNL     1      -0.602   0.376  -2.847  0.00  0.00    -0.289 OA
BRANCH  20  24
ATOM     22  C   UNL     1      -0.019   1.526   0.010  0.00  0.00    +0.035 C 
ATOM     23  C   UNL     1       0.002  -0.004   0.002  0.00  0.00    +0.111 C 
ATOM     24  C   UNL     1       0.728  -0.508  -1.226  0.00  0.00    +0.029 C 
ATOM     25  C   UNL     1       1.805  -1.234  -0.750  0.00  0.00    +0.007 A 
ATOM     26  C   UNL     1       2.845  -1.946  -1.391  0.00  0.00    +0.010 A 
ATOM     27  C   UNL     1       3.789  -2.580  -0.660  0.00  0.00    +0.001 A 
ATOM     28  C   UNL     1       3.790  -2.566   0.744  0.00  0.00    +0.002 A 
ATOM     29  C   UNL     1       2.842  -1.915   1.453  0.00  0.00    +0.026 A 
ATOM     30  C   UNL     1       1.776  -1.199   0.733  0.00  0.00    +0.043 A 
ATOM     31  N   UNL     1       0.756  -0.505   1.155  0.00  0.00    -0.377 N 
ATOM     32  H   UNL     1       0.532  -0.344   2.085  0.00  0.00    +0.160 HD
ENDBRANCH  20  24
ENDBRANCH  19  20
ENDBRANCH  18  19
ENDBRANCH   1  18
TORSDOF 8
