REMARK  Name = ZINC36647921
REMARK  11 active torsions:
REMARK  status: ('A' for Active; 'I' for Inactive)
REMARK    1  A    between atoms: C_1  and  C_2
REMARK    2  A    between atoms: C_2  and  C_3
REMARK    3  A    between atoms: C_3  and  N_4
REMARK    4  A    between atoms: C_10  and  N_17
REMARK    5  A    between atoms: C_11  and  C_12
REMARK    6  A    between atoms: C_12  and  O_14
REMARK    7  A    between atoms: O_14  and  C_15
REMARK    8  A    between atoms: C_15  and  C_16
REMARK    9  A    between atoms: C_18  and  C_20
REMARK   10  A    between atoms: N_25  and  S_27
REMARK   11  A    between atoms: S_27  and  C_30
REMARK                            x       y       z     vdW  Elec       q    Type
REMARK                         _______ _______ _______ _____ _____    ______ ____
ROOT
ATOM      1  N   UNL     1       0.738  -1.966  -1.265  0.00  0.00    +0.383 N 
ATOM      2  C   UNL     1       1.532  -2.438  -2.407  0.00  0.00    -0.074 C 
ATOM      3  C   UNL     1       1.827  -3.935  -2.263  0.00  0.00    +0.018 C 
ATOM      4  C   UNL     1       0.507  -4.650  -2.013  0.00  0.00    -0.025 A 
ATOM      5  C   UNL     1      -0.580  -3.951  -1.616  0.00  0.00    -0.021 A 
ATOM      6  S   UNL     1      -1.856  -5.162  -1.455  0.00  0.00    -0.079 S 
ATOM      7  C   UNL     1      -1.000  -6.541  -1.889  0.00  0.00    +0.086 A 
ATOM      8  C   UNL     1       0.279  -6.074  -2.162  0.00  0.00    +0.091 A 
ATOM      9  C   UNL     1      -0.641  -2.475  -1.376  0.00  0.00    -0.035 C 
ATOM     10  H   UNL     1       1.152  -2.301  -0.408  0.00  0.00    -0.081 HD
ENDROOT
BRANCH   7  11
ATOM     11  N   UNL     1      -1.463  -7.845  -1.957  0.00  0.00    -0.279 N 
ATOM     12  C   UNL     1      -2.747  -8.121  -1.653  0.00  0.00    +0.222 C 
ATOM     13  O   UNL     1      -3.497  -7.228  -1.321  0.00  0.00    -0.275 OA
ATOM     14  H   UNL     1      -0.864  -8.560  -2.223  0.00  0.00    +0.155 HD
BRANCH  12  15
ATOM     15  C   UNL     1      -3.251  -9.539  -1.728  0.00  0.00    +0.091 C 
ATOM     16  C   UNL     1      -2.449 -10.418  -0.765  0.00  0.00    +0.015 C 
ATOM     17  C   UNL     1      -2.938 -11.864  -0.864  0.00  0.00    +0.018 C 
ATOM     18  C   UNL     1      -4.414 -11.929  -0.461  0.00  0.00    +0.109 C 
ATOM     19  N   UNL     1      -5.172 -10.978  -1.286  0.00  0.00    -0.175 NA
ATOM     20  C   UNL     1      -4.731  -9.577  -1.335  0.00  0.00    +0.122 C 
BRANCH  19  21
ATOM     21  S   UNL     1      -6.497 -11.476  -2.145  0.00  0.00    +0.067 S 
ATOM     22  O   UNL     1      -6.655 -10.557  -3.216  0.00  0.00    -0.152 OA
ATOM     23  O   UNL     1      -6.343 -12.873  -2.356  0.00  0.00    -0.152 OA
BRANCH  21  24
ATOM     24  C   UNL     1      -7.901 -11.277  -1.099  0.00  0.00    +0.143 A 
ATOM     25  C   UNL     1      -8.716 -10.203  -0.960  0.00  0.00    +0.036 A 
ATOM     26  C   UNL     1      -9.770 -10.273  -0.068  0.00  0.00    +0.010 A 
ATOM     27  C   UNL     1      -9.957 -11.413   0.641  0.00  0.00    +0.047 A 
ATOM     28  S   UNL     1      -8.623 -12.440   0.048  0.00  0.00    -0.077 S 
ENDBRANCH  21  24
ENDBRANCH  19  21
ENDBRANCH  12  15
ENDBRANCH   7  11
BRANCH   8  29
ATOM     29  C   UNL     1       1.349  -6.980  -2.584  0.00  0.00    +0.342 C 
ATOM     30  O   UNL     1       2.064  -7.505  -1.752  0.00  0.00    -0.245 OA
BRANCH  29  31
ATOM     31  O   UNL     1       1.542  -7.232  -3.895  0.00  0.00    -0.461 OA
BRANCH  31  32
ATOM     32  C   UNL     1       2.605  -8.125  -4.234  0.00  0.00    +0.229 C 
ATOM     33  C   UNL     1       2.670  -8.287  -5.754  0.00  0.00    +0.048 C 
ENDBRANCH  31  32
ENDBRANCH  29  31
ENDBRANCH   8  29
BRANCH   1  34
ATOM     34  C   UNL     1       0.718  -0.497  -1.257  0.00  0.00    -0.079 C 
BRANCH  34  36
ATOM     35  C   UNL     1      -0.019   1.526   0.010  0.00  0.00    +0.002 C 
ATOM     36  C   UNL     1       0.002  -0.004   0.002  0.00  0.00    -0.022 C 
ENDBRANCH  34  36
ENDBRANCH   1  34
TORSDOF 9
