REMARK  Name = ZINC38604449
REMARK  9 active torsions:
REMARK  status: ('A' for Active; 'I' for Inactive)
REMARK    1  A    between atoms: C_1  and  C_2
REMARK    2  A    between atoms: C_2  and  C_3
REMARK    3  A    between atoms: C_6  and  S_9
REMARK    4  A    between atoms: S_9  and  N_12
REMARK    5  A    between atoms: N_12  and  C_13
REMARK    6  A    between atoms: C_13  and  C_14
REMARK    7  A    between atoms: C_14  and  C_16
REMARK    8  A    between atoms: C_14  and  N_21
REMARK    9  A    between atoms: N_24  and  C_27
REMARK                            x       y       z     vdW  Elec       q    Type
REMARK                         _______ _______ _______ _____ _____    ______ ____
ROOT
ATOM      1  C   UNL     1       4.914   1.147  -6.372  0.00  0.00    +0.015 C 
ENDROOT
BRANCH   1   2
ATOM      2  N   UNL     1       5.298   0.509  -7.639  0.00  0.00    +0.389 N 
ATOM      3  C   UNL     1       6.494  -0.316  -7.426  0.00  0.00    -0.059 C 
ATOM      4  C   UNL     1       6.828  -1.071  -8.717  0.00  0.00    +0.086 C 
ATOM      5  N   UNL     1       6.950  -0.094  -9.810  0.00  0.00    -0.333 N 
ATOM      6  C   UNL     1       5.864   0.882  -9.993  0.00  0.00    +0.086 C 
ATOM      7  C   UNL     1       5.576   1.545  -8.642  0.00  0.00    -0.059 C 
ATOM      8  H   UNL     1       4.542  -0.076  -7.962  0.00  0.00    -0.081 HD
BRANCH   5   9
ATOM      9  C   UNL     1       8.066  -0.094 -10.653  0.00  0.00    +0.030 A 
ATOM     10  C   UNL     1       9.021  -1.096 -10.542  0.00  0.00    +0.026 A 
ATOM     11  C   UNL     1      10.122  -1.095 -11.376  0.00  0.00    +0.040 A 
ATOM     12  C   UNL     1      10.274  -0.095 -12.322  0.00  0.00    +0.124 A 
ATOM     13  C   UNL     1       9.323   0.905 -12.434  0.00  0.00    +0.040 A 
ATOM     14  C   UNL     1       8.217   0.904 -11.606  0.00  0.00    +0.026 A 
ATOM     15  F   UNL     1      11.352  -0.095 -13.136  0.00  0.00    -0.205 F 
ENDBRANCH   5   9
ENDBRANCH   1   2
BRANCH   1  16
ATOM     16  C   UNL     1       6.003   2.092  -5.936  0.00  0.00    +0.093 A 
ATOM     17  C   UNL     1       5.826   3.362  -5.529  0.00  0.00    +0.043 A 
ATOM     18  C   UNL     1       7.107   3.875  -5.217  0.00  0.00    +0.041 A 
ATOM     19  C   UNL     1       7.989   2.887  -5.451  0.00  0.00    +0.195 A 
ATOM     20  O   UNL     1       7.315   1.808  -5.881  0.00  0.00    -0.469 OA
ENDBRANCH   1  16
BRANCH   1  21
ATOM     21  C   UNL     1       4.711   0.073  -5.301  0.00  0.00    +0.098 C 
BRANCH  21  22
ATOM     22  N   UNL     1       3.704  -0.888  -5.758  0.00  0.00    -0.191 NA
ATOM     23  H   UNL     1       3.145  -0.678  -6.523  0.00  0.00    +0.148 HD
BRANCH  22  24
ATOM     24  S   UNL     1       3.521  -2.333  -4.970  0.00  0.00    +0.058 S 
ATOM     25  O   UNL     1       4.822  -2.888  -4.832  0.00  0.00    -0.153 OA
ATOM     26  O   UNL     1       2.465  -3.022  -5.625  0.00  0.00    -0.153 OA
BRANCH  24  30
ATOM     27  C   UNL     1       2.061  -1.403  -0.788  0.00  0.00    -0.048 A 
ATOM     28  C   UNL     1       1.151  -1.608  -1.808  0.00  0.00    +0.005 A 
ATOM     29  C   UNL     1       1.597  -1.892  -3.085  0.00  0.00    +0.029 A 
ATOM     30  C   UNL     1       2.953  -1.970  -3.342  0.00  0.00    +0.105 A 
ATOM     31  C   UNL     1       3.863  -1.764  -2.323  0.00  0.00    +0.029 A 
ATOM     32  C   UNL     1       3.417  -1.476  -1.046  0.00  0.00    +0.005 A 
BRANCH  27  34
ATOM     33  C   UNL     1       1.428   0.421   0.769  0.00  0.00    +0.009 C 
ATOM     34  C   UNL     1       1.575  -1.093   0.605  0.00  0.00    +0.032 C 
ENDBRANCH  27  34
ENDBRANCH  24  30
ENDBRANCH  22  24
ENDBRANCH  21  22
ENDBRANCH   1  21
TORSDOF 8
