REMARK  Name = ZINC20573494
REMARK  1 active torsions:
REMARK  status: ('A' for Active; 'I' for Inactive)
REMARK    1  A    between atoms: C_3  and  C_6
REMARK                            x       y       z     vdW  Elec       q    Type
REMARK                         _______ _______ _______ _____ _____    ______ ____
ROOT
ATOM      1  C   UNL     1       3.561   0.619  -0.029  0.00  0.00    +0.282 C 
ATOM      2  O   UNL     1       2.353   0.644   0.118  0.00  0.00    -0.267 OA
ATOM      3  N   UNL     1       4.201  -0.561  -0.143  0.00  0.00    -0.295 N 
ATOM      4  C   UNL     1       3.445  -1.815  -0.260  0.00  0.00    +0.110 C 
ATOM      5  C   UNL     1       3.931  -2.786   0.821  0.00  0.00    +0.047 C 
ATOM      6  C   UNL     1       5.447  -2.952   0.708  0.00  0.00    +0.064 C 
ATOM      7  C   UNL     1       6.133  -1.602   0.925  0.00  0.00    +0.047 C 
ATOM      8  C   UNL     1       5.670  -0.618  -0.160  0.00  0.00    +0.110 C 
ATOM      9  C   UNL     1       5.929  -3.939   1.736  0.00  0.00    +0.057 A 
ATOM     10  C   UNL     1       6.270  -5.216   1.448  0.00  0.00    +0.039 A 
ATOM     11  N   UNL     1       6.650  -5.808   2.580  0.00  0.00    -0.349 N 
ATOM     12  C   UNL     1       6.558  -4.950   3.564  0.00  0.00    +0.171 A 
ATOM     13  N   UNL     1       6.109  -3.771   3.073  0.00  0.00    -0.348 N 
ATOM     14  H   UNL     1       5.947  -2.960   3.579  0.00  0.00    +0.166 HD
ATOM     15  C   UNL     1       6.199  -5.791   0.054  0.00  0.00    +0.070 C 
ATOM     16  C   UNL     1       5.334  -4.854  -0.800  0.00  0.00    +0.088 C 
ATOM     17  N   UNL     1       5.787  -3.467  -0.628  0.00  0.00    -0.305 NA
ATOM     18  H   UNL     1       5.412  -2.872  -1.352  0.00  0.00    +0.123 HD
ATOM     19  H   UNL     1       6.948  -6.728   2.662  0.00  0.00    +0.166 HD
ENDROOT
BRANCH   1  22
ATOM     20  C   UNL     1       4.891   4.019  -0.000  0.00  0.00    +0.042 A 
ATOM     21  C   UNL     1       3.824   3.122   0.163  0.00  0.00    +0.054 A 
ATOM     22  C   UNL     1       4.319   1.873  -0.083  0.00  0.00    +0.189 A 
ATOM     23  O   UNL     1       5.629   1.995  -0.382  0.00  0.00    -0.458 OA
ATOM     24  C   UNL     1       5.977   3.288  -0.333  0.00  0.00    +0.196 A 
ENDBRANCH   1  22
TORSDOF 1
