REMARK  Name = ZINC38655445
REMARK  9 active torsions:
REMARK  status: ('A' for Active; 'I' for Inactive)
REMARK    1  A    between atoms: C_1  and  C_2
REMARK    2  A    between atoms: C_2  and  C_4
REMARK    3  A    between atoms: C_2  and  O_29
REMARK    4  A    between atoms: C_4  and  O_6
REMARK    5  A    between atoms: O_6  and  C_7
REMARK    6  A    between atoms: C_14  and  N_28
REMARK    7  A    between atoms: C_15  and  C_26
REMARK    8  A    between atoms: C_16  and  C_18
REMARK    9  A    between atoms: O_29  and  C_30
REMARK                            x       y       z     vdW  Elec       q    Type
REMARK                         _______ _______ _______ _____ _____    ______ ____
ROOT
ATOM      1  C   UNL     1      -3.570  -1.329  -0.309  0.00  0.00    +0.135 A 
ATOM      2  C   UNL     1      -3.678  -1.662   1.034  0.00  0.00    +0.047 A 
ATOM      3  C   UNL     1      -4.798  -2.327   1.492  0.00  0.00    +0.012 A 
ATOM      4  C   UNL     1      -5.815  -2.664   0.617  0.00  0.00    +0.008 A 
ATOM      5  C   UNL     1      -5.713  -2.333  -0.725  0.00  0.00    +0.138 A 
ATOM      6  C   UNL     1      -4.589  -1.659  -1.186  0.00  0.00    +0.093 A 
ATOM      7  O   UNL     1      -6.699  -2.655  -1.598  0.00  0.00    -0.441 OA
ATOM      8  C   UNL     1      -7.589  -3.610  -1.282  0.00  0.00    +0.199 C 
ATOM      9  C   UNL     1      -7.793  -4.005  -0.002  0.00  0.00    +0.098 C 
ATOM     10  C   UNL     1      -7.029  -3.389   1.136  0.00  0.00    +0.099 C 
ENDROOT
BRANCH  10  11
ATOM     11  C   UNL     1      -7.918  -2.416   1.866  0.00  0.00    -0.016 A 
ATOM     12  C   UNL     1      -8.444  -1.326   1.198  0.00  0.00    +0.007 A 
ATOM     13  C   UNL     1      -9.259  -0.433   1.866  0.00  0.00    +0.020 A 
ATOM     14  C   UNL     1      -9.550  -0.629   3.205  0.00  0.00    +0.042 A 
ATOM     15  C   UNL     1      -9.024  -1.720   3.874  0.00  0.00    +0.040 A 
ATOM     16  C   UNL     1      -8.212  -2.616   3.203  0.00  0.00    +0.046 A 
ATOM     17 CL   UNL     1      -7.556  -3.988   4.040  0.00  0.00    -0.083 Cl
ATOM     18 CL   UNL     1     -10.574   0.493   4.045  0.00  0.00    -0.083 Cl
ENDBRANCH  10  11
BRANCH   8  19
ATOM     19  N   UNL     1      -8.314  -4.203  -2.285  0.00  0.00    -0.328 N 
ATOM     20  H   UNL     1      -8.180  -3.931  -3.206  0.00  0.00    +0.145 HD
ATOM     21  H   UNL     1      -8.961  -4.894  -2.072  0.00  0.00    +0.145 HD
ENDBRANCH   8  19
BRANCH   9  22
ATOM     22  C   UNL     1      -8.756  -5.029   0.271  0.00  0.00    +0.101 C 
ATOM     23  N   UNL     1      -9.520  -5.841   0.488  0.00  0.00    -0.191 NA
ENDBRANCH   9  22
BRANCH   1  24
ATOM     24  O   UNL     1      -2.468  -0.674  -0.761  0.00  0.00    -0.423 OA
BRANCH  24  25
ATOM     25  C   UNL     1      -1.339  -1.381  -0.927  0.00  0.00    +0.353 C 
ATOM     26  O   UNL     1      -1.335  -2.571  -0.722  0.00  0.00    -0.246 OA
BRANCH  25  28
ATOM     27  C   UNL     1       0.375   0.293  -0.286  0.00  0.00    +0.064 C 
ATOM     28  C   UNL     1      -0.075  -0.689  -1.369  0.00  0.00    +0.279 C 
BRANCH  28  29
ATOM     29  O   UNL     1       0.950  -1.661  -1.585  0.00  0.00    -0.478 OA
BRANCH  29  30
ATOM     30  C   UNL     1       1.964  -1.314  -2.422  0.00  0.00    +0.122 A 
ATOM     31  C   UNL     1       2.961  -2.231  -2.722  0.00  0.00    +0.048 A 
ATOM     32  C   UNL     1       3.991  -1.876  -3.572  0.00  0.00    +0.042 A 
ATOM     33  C   UNL     1       4.029  -0.607  -4.123  0.00  0.00    +0.124 A 
ATOM     34  C   UNL     1       3.034   0.309  -3.824  0.00  0.00    +0.042 A 
ATOM     35  C   UNL     1       2.000  -0.044  -2.979  0.00  0.00    +0.048 A 
ATOM     36  F   UNL     1       5.037  -0.261  -4.953  0.00  0.00    -0.205 F 
ENDBRANCH  29  30
ENDBRANCH  28  29
ENDBRANCH  25  28
ENDBRANCH  24  25
ENDBRANCH   1  24
TORSDOF 8
