REMARK  Name = ZINC28055531
REMARK  4 active torsions:
REMARK  status: ('A' for Active; 'I' for Inactive)
REMARK    1  A    between atoms: C_1  and  O_2
REMARK    2  A    between atoms: O_2  and  C_3
REMARK    3  A    between atoms: C_6  and  C_9
REMARK    4  A    between atoms: C_20  and  C_22
REMARK                            x       y       z     vdW  Elec       q    Type
REMARK                         _______ _______ _______ _____ _____    ______ ____
ROOT
ATOM      1  C   UNL     1       3.007   3.128   1.552  0.00  0.00    +0.174 C 
ATOM      2  C   UNL     1       2.301   1.883   1.075  0.00  0.00    +0.025 C 
ATOM      3  C   UNL     1       2.582   0.672   1.560  0.00  0.00    +0.050 C 
ATOM      4  C   UNL     1       1.829  -0.491   1.034  0.00  0.00    +0.039 A 
ATOM      5  C   UNL     1       2.277  -1.793   1.223  0.00  0.00    +0.033 A 
ATOM      6  C   UNL     1       1.538  -2.847   0.717  0.00  0.00    +0.042 A 
ATOM      7  C   UNL     1       0.361  -2.608   0.028  0.00  0.00    +0.023 A 
ATOM      8  C   UNL     1      -0.091  -1.315  -0.164  0.00  0.00    +0.048 A 
ATOM      9  C   UNL     1       0.638  -0.252   0.336  0.00  0.00    +0.131 A 
ATOM     10  O   UNL     1       0.230   1.031   0.167  0.00  0.00    -0.479 OA
ATOM     11  C   UNL     1       1.246   2.020   0.001  0.00  0.00    +0.234 C 
ATOM     12 CL   UNL     1       2.090  -4.477   0.947  0.00  0.00    -0.084 Cl
ATOM     13  N   UNL     1       3.554   0.469   2.547  0.00  0.00    -0.282 N 
ATOM     14  C   UNL     1       4.022   1.588   3.216  0.00  0.00    +0.240 A 
ATOM     15  N   UNL     1       3.765   2.842   2.762  0.00  0.00    -0.201 N 
ATOM     16  N   UNL     1       4.372   3.701   3.678  0.00  0.00    -0.042 NA
ATOM     17  N   UNL     1       4.930   2.950   4.572  0.00  0.00    -0.021 NA
ATOM     18  N   UNL     1       4.728   1.706   4.304  0.00  0.00    -0.092 NA
ATOM     19  H   UNL     1       3.914  -0.547   2.764  0.00  0.00    +0.155 HD
ENDROOT
BRANCH   1  23
ATOM     20  C   UNL     1       5.670   4.501  -1.496  0.00  0.00    +0.120 A 
ATOM     21  C   UNL     1       4.635   5.315  -1.059  0.00  0.00    +0.046 A 
ATOM     22  C   UNL     1       3.775   4.869  -0.074  0.00  0.00    +0.009 A 
ATOM     23  C   UNL     1       3.946   3.612   0.477  0.00  0.00    -0.018 A 
ATOM     24  C   UNL     1       4.981   2.802   0.048  0.00  0.00    +0.009 A 
ATOM     25  C   UNL     1       5.840   3.241  -0.941  0.00  0.00    +0.046 A 
BRANCH  20  27
ATOM     26  C   UNL     1       7.560   4.047  -2.864  0.00  0.00    +0.277 C 
ATOM     27  O   UNL     1       6.517   4.938  -2.464  0.00  0.00    -0.495 OA
ENDBRANCH  20  27
ENDBRANCH   1  23
BRANCH  11  28
ATOM     28  C   UNL     1       1.889   1.850  -1.351  0.00  0.00    -0.003 A 
ATOM     29  C   UNL     1       2.094   2.950  -2.162  0.00  0.00    +0.007 A 
ATOM     30  C   UNL     1       2.688   2.795  -3.401  0.00  0.00    +0.000 A 
ATOM     31  C   UNL     1       3.067   1.538  -3.833  0.00  0.00    +0.000 A 
ATOM     32  C   UNL     1       2.857   0.436  -3.024  0.00  0.00    +0.000 A 
ATOM     33  C   UNL     1       2.267   0.593  -1.783  0.00  0.00    +0.007 A 
ENDBRANCH  11  28
TORSDOF 3
