REMARK  Name = ZINC09293247
REMARK  10 active torsions:
REMARK  status: ('A' for Active; 'I' for Inactive)
REMARK    1  A    between atoms: C_1  and  C_2
REMARK    2  A    between atoms: C_2  and  O_3
REMARK    3  A    between atoms: O_3  and  C_4
REMARK    4  A    between atoms: C_8  and  C_10
REMARK    5  A    between atoms: C_11  and  C_21
REMARK    6  A    between atoms: N_23  and  N_24
REMARK    7  A    between atoms: C_25  and  C_26
REMARK    8  A    between atoms: C_29  and  N_32
REMARK    9  A    between atoms: N_32  and  C_33
REMARK   10  A    between atoms: N_32  and  C_34
REMARK                            x       y       z     vdW  Elec       q    Type
REMARK                         _______ _______ _______ _____ _____    ______ ____
ROOT
ATOM      1  C   UNL     1      -0.076   5.325   0.030  0.00  0.00    +0.109 A 
ATOM      2  C   UNL     1       0.704   6.170   0.812  0.00  0.00    +0.177 A 
ATOM      3  N   UNL     1       0.374   7.437   0.515  0.00  0.00    -0.124 NA
ATOM      4  N   UNL     1      -0.545   7.455  -0.384  0.00  0.00    -0.058 NA
ATOM      5  N   UNL     1      -0.866   6.137  -0.735  0.00  0.00    -0.187 N 
ATOM      6  C   UNL     1      -1.812   5.731  -1.681  0.00  0.00    +0.241 A 
ATOM      7  C   UNL     1      -2.650   6.619  -2.492  0.00  0.00    +0.206 A 
ATOM      8  N   UNL     1      -3.406   5.882  -3.258  0.00  0.00    -0.032 NA
ATOM      9  O   UNL     1      -3.104   4.524  -2.989  0.00  0.00    -0.239 OA
ATOM     10  N   UNL     1      -2.095   4.498  -1.996  0.00  0.00    -0.027 NA
ATOM     11  N   UNL     1      -2.640   8.008  -2.451  0.00  0.00    -0.337 N 
ATOM     12  H   UNL     1      -2.040   8.472  -1.846  0.00  0.00    +0.144 HD
ATOM     13  H   UNL     1      -3.233   8.514  -3.028  0.00  0.00    +0.144 HD
ENDROOT
BRANCH   1  18
ATOM     14  C   UNL     1       1.182   1.784   0.000  0.00  0.00    +0.121 A 
ATOM     15  C   UNL     1      -0.013   1.076   0.008  0.00  0.00    +0.045 A 
ATOM     16  C   UNL     1      -1.221   1.748   0.017  0.00  0.00    +0.004 A 
ATOM     17  C   UNL     1      -1.247   3.128   0.031  0.00  0.00    +0.010 A 
ATOM     18  C   UNL     1      -0.051   3.848   0.023  0.00  0.00    +0.006 A 
ATOM     19  C   UNL     1       1.167   3.168   0.007  0.00  0.00    +0.055 A 
BRANCH  14  20
ATOM     20  O   UNL     1       2.366   1.117  -0.015  0.00  0.00    -0.492 OA
BRANCH  20  22
ATOM     21  C   UNL     1       3.728  -0.879  -0.038  0.00  0.00    +0.048 C 
ATOM     22  C   UNL     1       2.307  -0.310  -0.022  0.00  0.00    +0.225 C 
ENDBRANCH  20  22
ENDBRANCH  14  20
ENDBRANCH   1  18
BRANCH   2  23
ATOM     23  C   UNL     1       1.716   5.748   1.794  0.00  0.00    +0.286 C 
ATOM     24  O   UNL     1       1.929   4.564   1.978  0.00  0.00    -0.267 OA
ATOM     25  N   UNL     1       2.407   6.673   2.490  0.00  0.00    -0.202 N 
ATOM     26  H   UNL     1       2.237   7.616   2.344  0.00  0.00    +0.178 HD
BRANCH  25  27
ATOM     27  N   UNL     1       3.370   6.271   3.425  0.00  0.00    -0.187 NA
ATOM     28  C   UNL     1       4.035   7.162   4.095  0.00  0.00    +0.138 C 
BRANCH  28  29
ATOM     29  C   UNL     1       5.048   6.739   5.079  0.00  0.00    -0.005 A 
ATOM     30  C   UNL     1       5.290   5.380   5.295  0.00  0.00    +0.011 A 
ATOM     31  C   UNL     1       6.241   4.989   6.212  0.00  0.00    +0.024 A 
ATOM     32  C   UNL     1       6.953   5.944   6.929  0.00  0.00    +0.029 A 
ATOM     33  C   UNL     1       6.711   7.298   6.720  0.00  0.00    +0.024 A 
ATOM     34  C   UNL     1       5.765   7.697   5.801  0.00  0.00    +0.011 A 
BRANCH  32  35
ATOM     35  N   UNL     1       7.912   5.545   7.860  0.00  0.00    -0.336 N 
ATOM     36  C   UNL     1       8.662   6.550   8.616  0.00  0.00    +0.129 C 
ATOM     37  C   UNL     1       8.168   4.119   8.081  0.00  0.00    +0.129 C 
ENDBRANCH  32  35
ENDBRANCH  28  29
ENDBRANCH  25  27
ENDBRANCH   2  23
TORSDOF 7
