REMARK  Name = ZINC15000069
REMARK  13 active torsions:
REMARK  status: ('A' for Active; 'I' for Inactive)
REMARK    1  A    between atoms: C_1  and  C_2
REMARK    2  A    between atoms: C_2  and  N_72
REMARK    3  A    between atoms: C_3  and  C_4
REMARK    4  A    between atoms: C_3  and  N_72
REMARK    5  A    between atoms: C_5  and  N_72
REMARK    6  A    between atoms: C_11  and  C_13
REMARK    7  A    between atoms: N_15  and  C_28
REMARK    8  A    between atoms: C_17  and  C_20
REMARK    9  A    between atoms: N_22  and  C_23
REMARK   10  A    between atoms: C_23  and  C_24
REMARK   11  A    between atoms: C_24  and  C_25
REMARK   12  A    between atoms: C_25  and  C_26
REMARK   13  A    between atoms: C_25  and  C_27
REMARK                            x       y       z     vdW  Elec       q    Type
REMARK                         _______ _______ _______ _____ _____    ______ ____
ROOT
ATOM      1  C   UNL     1      -4.077   6.865   3.195  0.00  0.00    +0.100 A 
ATOM      2  C   UNL     1      -3.546   7.164   1.958  0.00  0.00    +0.102 A 
ATOM      3  N   UNL     1      -3.379   6.216   1.021  0.00  0.00    -0.349 N 
ATOM      4  C   UNL     1      -3.707   4.927   1.208  0.00  0.00    +0.102 A 
ATOM      5  C   UNL     1      -4.246   4.488   2.397  0.00  0.00    +0.100 A 
ATOM      6  C   UNL     1      -4.465   5.472   3.470  0.00  0.00    +0.206 A 
ATOM      7  O   UNL     1      -4.944   5.146   4.543  0.00  0.00    -0.286 OA
ENDROOT
BRANCH   1  13
ATOM      8  C   UNL     1      -6.223  11.017   4.198  0.00  0.00    -0.049 C 
ATOM      9  C   UNL     1      -6.018  10.828   2.671  0.00  0.00    +0.005 C 
ATOM     10  C   UNL     1      -5.434   9.402   2.573  0.00  0.00    +0.106 C 
ATOM     11  N   UNL     1      -4.848   9.080   3.882  0.00  0.00    -0.299 N 
ATOM     12  C   UNL     1      -5.010  10.244   4.773  0.00  0.00    +0.093 C 
ATOM     13  C   UNL     1      -4.256   7.915   4.213  0.00  0.00    +0.252 C 
ATOM     14  O   UNL     1      -3.869   7.730   5.351  0.00  0.00    -0.270 OA
BRANCH   8  15
ATOM     15  N   UNL     1      -6.183  12.452   4.549  0.00  0.00    +0.382 N 
ATOM     16  H   UNL     1      -6.895  12.950   4.002  0.00  0.00    -0.081 HD
BRANCH  15  18
ATOM     17  C   UNL     1      -7.081  14.017   6.196  0.00  0.00    -0.017 C 
ATOM     18  C   UNL     1      -6.474  12.628   5.988  0.00  0.00    -0.082 C 
ENDBRANCH  15  18
BRANCH  15  19
ATOM     19  C   UNL     1      -4.853  13.014   4.231  0.00  0.00    -0.082 C 
ATOM     20  C   UNL     1      -4.914  14.536   4.371  0.00  0.00    -0.017 C 
ENDBRANCH  15  19
ENDBRANCH   8  15
ENDBRANCH   1  13
BRANCH   3  21
ATOM     21  C   UNL     1      -2.810   6.609  -0.271  0.00  0.00    +0.087 C 
ATOM     22  C   UNL     1      -3.777   6.231  -1.411  0.00  0.00    +0.025 C 
ATOM     23  C   UNL     1      -2.847   5.776  -2.563  0.00  0.00    +0.002 C 
ATOM     24  C   UNL     1      -1.723   5.017  -1.816  0.00  0.00    +0.002 C 
ATOM     25  C   UNL     1      -1.504   5.838  -0.528  0.00  0.00    +0.025 C 
ENDBRANCH   3  21
BRANCH   5  26
ATOM     26  C   UNL     1      -4.601   3.071   2.588  0.00  0.00    +0.249 C 
ATOM     27  O   UNL     1      -5.077   2.700   3.644  0.00  0.00    -0.270 OA
ATOM     28  N   UNL     1      -4.399   2.186   1.592  0.00  0.00    -0.311 N 
ATOM     29  H   UNL     1      -4.019   2.482   0.749  0.00  0.00    +0.149 HD
BRANCH  28  30
ATOM     30  C   UNL     1      -4.751   0.777   1.781  0.00  0.00    +0.105 C 
BRANCH  30  31
ATOM     31  C   UNL     1      -4.423  -0.007   0.509  0.00  0.00    +0.022 C 
BRANCH  31  32
ATOM     32  C   UNL     1      -4.792  -1.478   0.707  0.00  0.00    -0.016 C 
ATOM     33  C   UNL     1      -6.306  -1.606   0.882  0.00  0.00    +0.007 C 
ATOM     34  C   UNL     1      -4.350  -2.284  -0.517  0.00  0.00    +0.007 C 
ENDBRANCH  31  32
ENDBRANCH  30  31
ENDBRANCH  28  30
ENDBRANCH   5  26
TORSDOF 9
