REMARK  Name = ZINC01747797
REMARK  6 active torsions:
REMARK  status: ('A' for Active; 'I' for Inactive)
REMARK    1  A    between atoms: C_1  and  C_2
REMARK    2  A    between atoms: C_8  and  C_9
REMARK    3  A    between atoms: C_8  and  N_52
REMARK    4  A    between atoms: C_10  and  O_31
REMARK    5  A    between atoms: C_16  and  C_27
REMARK    6  A    between atoms: C_17  and  C_20
REMARK                            x       y       z     vdW  Elec       q    Type
REMARK                         _______ _______ _______ _____ _____    ______ ____
ROOT
ATOM      1  C   UNL     1       4.455  -0.159  -1.951  0.00  0.00    +0.020 A 
ATOM      2  C   UNL     1       5.044   1.031  -2.343  0.00  0.00    +0.122 A 
ATOM      3  C   UNL     1       6.381   1.290  -2.052  0.00  0.00    +0.046 A 
ATOM      4  C   UNL     1       7.133   0.366  -1.384  0.00  0.00    +0.019 A 
ATOM      5  C   UNL     1       6.555  -0.840  -0.987  0.00  0.00    +0.065 A 
ATOM      6  C   UNL     1       5.205  -1.109  -1.271  0.00  0.00    +0.144 A 
ATOM      7  O   UNL     1       4.648  -2.275  -0.887  0.00  0.00    -0.450 OA
ATOM      8  C   UNL     1       5.318  -3.226  -0.231  0.00  0.00    +0.219 A 
ATOM      9  C   UNL     1       6.627  -3.098   0.107  0.00  0.00    +0.078 A 
ATOM     10  C   UNL     1       7.336  -1.861  -0.265  0.00  0.00    +0.201 A 
ATOM     11  O   UNL     1       8.510  -1.690   0.012  0.00  0.00    -0.286 OA
ENDROOT
BRANCH   9  12
ATOM     12  C   UNL     1       7.329  -4.181   0.836  0.00  0.00    +0.008 A 
ATOM     13  C   UNL     1       7.975  -5.195   0.131  0.00  0.00    +0.010 A 
ATOM     14  C   UNL     1       8.630  -6.199   0.815  0.00  0.00    +0.001 A 
ATOM     15  C   UNL     1       8.639  -6.206   2.198  0.00  0.00    +0.001 A 
ATOM     16  C   UNL     1       7.997  -5.205   2.904  0.00  0.00    +0.020 A 
ATOM     17  C   UNL     1       7.341  -4.193   2.231  0.00  0.00    +0.049 A 
ATOM     18 CL   UNL     1       6.533  -2.939   3.119  0.00  0.00    -0.083 Cl
ENDBRANCH   9  12
BRANCH   8  19
ATOM     19  C   UNL     1       4.592  -4.491   0.150  0.00  0.00    +0.451 C 
ATOM     20  F   UNL     1       4.018  -4.336   1.416  0.00  0.00    -0.163 F 
ATOM     21  F   UNL     1       3.589  -4.753  -0.789  0.00  0.00    -0.163 F 
ATOM     22  F   UNL     1       5.497  -5.558   0.175  0.00  0.00    -0.163 F 
ENDBRANCH   8  19
BRANCH   2  23
ATOM     23  O   UNL     1       4.310   1.956  -3.013  0.00  0.00    -0.506 OA
ATOM     24  H   UNL     1       3.862   2.594  -2.439  0.00  0.00    +0.292 HD
ENDBRANCH   2  23
BRANCH   1  25
ATOM     25  C   UNL     1       3.006  -0.425  -2.267  0.00  0.00    -0.035 C 
BRANCH  25  32
ATOM     26  C   UNL     1       0.663  -1.824  -1.583  0.00  0.00    -0.013 C 
ATOM     27  C   UNL     1       0.761  -0.313  -1.367  0.00  0.00    -0.071 C 
ATOM     28  C   UNL     1      -0.056   0.081  -0.134  0.00  0.00    -0.016 C 
ATOM     29  C   UNL     1       0.062   1.591   0.090  0.00  0.00    -0.003 C 
ATOM     30  C   UNL     1       1.539   1.961   0.250  0.00  0.00    -0.019 C 
ATOM     31  C   UNL     1       2.310   1.513  -0.994  0.00  0.00    -0.078 C 
ATOM     32  N   UNL     1       2.177   0.048  -1.139  0.00  0.00    +0.384 N 
ATOM     33  H   UNL     1       2.501  -0.403  -0.275  0.00  0.00    -0.081 HD
ENDBRANCH  25  32
ENDBRANCH   1  25
TORSDOF 5
