REMARK  Name = ZINC35788192
REMARK  6 active torsions:
REMARK  status: ('A' for Active; 'I' for Inactive)
REMARK    1  A    between atoms: C_1  and  C_2
REMARK    2  A    between atoms: C_3  and  C_18
REMARK    3  A    between atoms: C_4  and  N_8
REMARK    4  A    between atoms: N_5  and  C_7
REMARK    5  A    between atoms: C_10  and  C_17
REMARK    6  A    between atoms: C_14  and  C_16
REMARK                            x       y       z     vdW  Elec       q    Type
REMARK                         _______ _______ _______ _____ _____    ______ ____
ROOT
ATOM      1  C   UNL     1       1.562   0.480   1.394  0.00  0.00    +0.068 C 
ATOM      2  C   UNL     1       0.679  -0.440   0.592  0.00  0.00    +0.066 A 
ATOM      3  C   UNL     1       1.098  -1.580  -0.099  0.00  0.00    +0.029 A 
ATOM      4  C   UNL     1       0.005  -2.133  -0.693  0.00  0.00    +0.124 A 
ATOM      5  N   UNL     1      -1.062  -1.362  -0.382  0.00  0.00    -0.253 N 
ATOM      6  N   UNL     1      -0.613  -0.312   0.429  0.00  0.00    -0.175 NA
ATOM      7  C   UNL     1      -2.444  -1.589  -0.812  0.00  0.00    +0.174 C 
ENDROOT
BRANCH   4   8
ATOM      8  N   UNL     1      -0.012  -3.282  -1.479  0.00  0.00    -0.308 N 
ATOM      9  C   UNL     1       0.091  -3.199  -2.945  0.00  0.00    +0.138 C 
ATOM     10  C   UNL     1       1.192  -4.160  -3.407  0.00  0.00    +0.132 C 
ATOM     11  O   UNL     1       0.944  -5.458  -2.860  0.00  0.00    -0.373 OA
ATOM     12  C   UNL     1       0.979  -5.508  -1.432  0.00  0.00    +0.182 C 
ATOM     13  C   UNL     1      -0.127  -4.616  -0.868  0.00  0.00    +0.097 C 
ATOM     14  C   UNL     1      -1.492  -5.220  -1.204  0.00  0.00    +0.030 C 
ATOM     15  C   UNL     1       1.193  -4.240  -4.935  0.00  0.00    +0.039 C 
ENDBRANCH   4   8
BRANCH   3  16
ATOM     16  C   UNL     1       2.509  -2.104  -0.174  0.00  0.00    +0.149 C 
ATOM     17 CL   UNL     1       2.840  -3.147   1.258  0.00  0.00    -0.120 Cl
ENDBRANCH   3  16
TORSDOF 2
