REMARK  Name = ZINC09752215
REMARK  4 active torsions:
REMARK  status: ('A' for Active; 'I' for Inactive)
REMARK    1  A    between atoms: C_1  and  C_2
REMARK    2  A    between atoms: C_3  and  C_9
REMARK    3  A    between atoms: C_9  and  C_10
REMARK    4  A    between atoms: N_12  and  N_13
REMARK                            x       y       z     vdW  Elec       q    Type
REMARK                         _______ _______ _______ _____ _____    ______ ____
ROOT
ATOM      1  C   UNL     1       1.141   2.087   0.002  0.00  0.00    +0.235 C 
ATOM      2  O   UNL     1       2.199   1.494  -0.011  0.00  0.00    -0.274 OA
ATOM      3  N   UNL     1      -0.017   1.397   0.010  0.00  0.00    -0.223 N 
ATOM      4  H   UNL     1      -0.864   1.870   0.016  0.00  0.00    +0.174 HD
ENDROOT
BRANCH   3   5
ATOM      5  N   UNL     1       0.002  -0.004   0.002  0.00  0.00    -0.137 N 
ATOM      6  C   UNL     1      -0.266  -0.772   1.078  0.00  0.00    +0.263 C 
ATOM      7  O   UNL     1      -0.558  -0.396   2.193  0.00  0.00    -0.271 OA
ATOM      8  C   UNL     1      -0.126  -2.199   0.601  0.00  0.00    +0.114 C 
ATOM      9  C   UNL     1      -1.450  -2.941   0.747  0.00  0.00    +0.035 C 
ATOM     10  C   UNL     1      -1.295  -4.374   0.232  0.00  0.00    +0.003 C 
ATOM     11  C   UNL     1      -0.202  -5.086   1.032  0.00  0.00    +0.000 C 
ATOM     12  C   UNL     1       1.125  -4.345   0.857  0.00  0.00    +0.003 C 
ATOM     13  C   UNL     1       0.980  -2.911   1.373  0.00  0.00    +0.035 C 
ATOM     14  N   UNL     1       0.238  -2.067  -0.815  0.00  0.00    -0.284 N 
ATOM     15  C   UNL     1       0.283  -0.747  -1.076  0.00  0.00    +0.326 C 
ATOM     16  O   UNL     1       0.552  -0.281  -2.166  0.00  0.00    -0.251 OA
ATOM     17  H   UNL     1       0.408  -2.789  -1.441  0.00  0.00    +0.151 HD
ENDBRANCH   3   5
BRANCH   1  18
ATOM     18  C   UNL     1       1.121   3.593   0.011  0.00  0.00    +0.141 C 
BRANCH  18  21
ATOM     19  C   UNL     1       2.814   4.239  -2.453  0.00  0.00    +0.064 C 
ATOM     20  C   UNL     1       3.315   4.412  -1.043  0.00  0.00    +0.024 A 
ATOM     21  C   UNL     1       2.534   4.115   0.000  0.00  0.00    +0.020 A 
ATOM     22  S   UNL     1       3.601   4.505   1.377  0.00  0.00    -0.066 S 
ATOM     23  C   UNL     1       4.991   5.019   0.475  0.00  0.00    +0.123 A 
ATOM     24  S   UNL     1       6.503   5.572   1.055  0.00  0.00    -0.025 S 
ATOM     25  N   UNL     1       4.573   4.875  -0.804  0.00  0.00    -0.347 N 
ATOM     26  H   UNL     1       5.162   5.099  -1.541  0.00  0.00    +0.167 HD
ENDBRANCH  18  21
ENDBRANCH   1  18
TORSDOF 3
