REMARK  Name = ZINC65256726
REMARK  3 active torsions:
REMARK  status: ('A' for Active; 'I' for Inactive)
REMARK    1  A    between atoms: C_5  and  C_6
REMARK    2  A    between atoms: C_6  and  C_7
REMARK    3  A    between atoms: C_13  and  N_16
REMARK                            x       y       z     vdW  Elec       q    Type
REMARK                         _______ _______ _______ _____ _____    ______ ____
ROOT
ATOM      1  C   UNL     1      -1.729  -1.040  -1.407  0.00  0.00    +0.220 C 
ATOM      2  O   UNL     1      -1.065  -0.625  -2.333  0.00  0.00    -0.275 OA
ATOM      3  N   UNL     1      -2.864  -1.726  -1.646  0.00  0.00    -0.299 N 
ATOM      4  C   UNL     1      -3.683  -2.229  -0.534  0.00  0.00    +0.108 C 
ATOM      5  C   UNL     1      -3.911  -3.731  -0.730  0.00  0.00    +0.021 C 
ATOM      6  C   UNL     1      -4.514  -3.975  -2.115  0.00  0.00    +0.028 C 
ATOM      7  C   UNL     1      -3.539  -3.491  -3.191  0.00  0.00    +0.111 C 
ATOM      8  C   UNL     1      -3.310  -1.981  -3.023  0.00  0.00    +0.133 C 
ENDROOT
BRANCH   7   9
ATOM      9  N   UNL     1      -4.103  -3.754  -4.517  0.00  0.00    -0.272 N 
ATOM     10  C   UNL     1      -3.535  -4.553  -5.491  0.00  0.00    +0.164 A 
ATOM     11  C   UNL     1      -4.402  -4.527  -6.592  0.00  0.00    +0.105 A 
ATOM     12  C   UNL     1      -4.063  -5.255  -7.719  0.00  0.00    +0.142 A 
ATOM     13  N   UNL     1      -2.933  -5.948  -7.714  0.00  0.00    -0.242 NA
ATOM     14  C   UNL     1      -2.140  -5.950  -6.661  0.00  0.00    +0.223 A 
ATOM     15  N   UNL     1      -2.424  -5.272  -5.566  0.00  0.00    -0.216 NA
ATOM     16  N   UNL     1      -5.471  -3.709  -6.243  0.00  0.00    -0.303 N 
ATOM     17  H   UNL     1      -6.233  -3.498  -6.804  0.00  0.00    +0.171 HD
ATOM     18  C   UNL     1      -5.265  -3.263  -4.988  0.00  0.00    +0.329 A 
ATOM     19  O   UNL     1      -6.014  -2.526  -4.375  0.00  0.00    -0.246 OA
ENDBRANCH   7   9
BRANCH   1  20
ATOM     20  C   UNL     1      -1.286  -0.786   0.011  0.00  0.00    +0.131 C 
BRANCH  20  25
ATOM     21  C   UNL     1      -0.017   1.378   0.010  0.00  0.00    +0.011 A 
ATOM     22  C   UNL     1       1.160   2.051   0.002  0.00  0.00    +0.045 A 
ATOM     23  S   UNL     1       2.348   0.719  -0.017  0.00  0.00    -0.105 S 
ATOM     24  C   UNL     1       1.196  -0.645  -0.013  0.00  0.00    +0.049 A 
ATOM     25  C   UNL     1       0.002  -0.004   0.002  0.00  0.00    -0.032 A 
ENDBRANCH  20  25
ENDBRANCH   1  20
TORSDOF 3
