REMARK  Name = ZINC13032855
REMARK  9 active torsions:
REMARK  status: ('A' for Active; 'I' for Inactive)
REMARK    1  A    between atoms: C_1  and  C_2
REMARK    2  A    between atoms: C_4  and  C_34
REMARK    3  A    between atoms: C_7  and  C_13
REMARK    4  A    between atoms: C_13  and  N_14
REMARK    5  A    between atoms: N_14  and  C_15
REMARK    6  A    between atoms: N_14  and  C_29
REMARK    7  A    between atoms: C_15  and  C_16
REMARK    8  A    between atoms: N_20  and  C_21
REMARK    9  A    between atoms: C_21  and  C_22
REMARK                            x       y       z     vdW  Elec       q    Type
REMARK                         _______ _______ _______ _____ _____    ______ ____
ROOT
ATOM      1  N   UNL     1       1.548  -6.854   1.052  0.00  0.00    +0.389 N 
ATOM      2  H   UNL     1       2.255  -6.675   0.354  0.00  0.00    -0.080 HD
ENDROOT
BRANCH   1   3
ATOM      3  C   UNL     1       2.030  -6.402   2.364  0.00  0.00    -0.068 C 
ATOM      4  C   UNL     1       2.217  -4.871   2.360  0.00  0.00    -0.015 C 
ATOM      5  C   UNL     1       3.483  -4.641   3.221  0.00  0.00    -0.002 C 
ATOM      6  C   UNL     1       4.390  -5.832   2.821  0.00  0.00    -0.002 C 
ATOM      7  C   UNL     1       3.411  -7.013   2.657  0.00  0.00    -0.015 C 
ENDBRANCH   1   3
BRANCH   1   8
ATOM      8  C   UNL     1       0.321  -6.126   0.703  0.00  0.00    -0.037 C 
BRANCH   8  15
ATOM      9  C   UNL     1       2.642   0.808  -2.483  0.00  0.00    +0.044 C 
ATOM     10  C   UNL     1       2.311  -0.601  -2.064  0.00  0.00    -0.048 A 
ATOM     11  C   UNL     1       2.737  -1.668  -2.843  0.00  0.00    +0.007 A 
ATOM     12  C   UNL     1       2.448  -2.953  -2.481  0.00  0.00    -0.041 A 
ATOM     13  C   UNL     1       1.715  -3.196  -1.314  0.00  0.00    +0.002 A 
ATOM     14  C   UNL     1       1.387  -4.560  -0.896  0.00  0.00    +0.017 A 
ATOM     15  C   UNL     1       0.675  -4.735   0.245  0.00  0.00    +0.001 A 
ATOM     16  C   UNL     1       0.264  -3.618   1.004  0.00  0.00    +0.251 A 
ATOM     17  N   UNL     1       0.559  -2.362   0.627  0.00  0.00    -0.322 N 
ATOM     18  C   UNL     1       1.281  -2.117  -0.521  0.00  0.00    +0.050 A 
ATOM     19  C   UNL     1       1.593  -0.817  -0.907  0.00  0.00    +0.029 A 
ATOM     20  O   UNL     1      -0.376  -3.797   2.025  0.00  0.00    -0.268 OA
ATOM     21  C   UNL     1       2.915  -4.104  -3.334  0.00  0.00    +0.044 C 
ATOM     22  H   UNL     1       0.260  -1.617   1.172  0.00  0.00    +0.169 HD
ENDBRANCH   8  15
ENDBRANCH   1   8
BRANCH   1  23
ATOM     23  C   UNL     1       1.265  -8.294   1.103  0.00  0.00    +0.001 C 
BRANCH  23  24
ATOM     24  C   UNL     1       2.556  -9.054   1.270  0.00  0.00    +0.135 A 
ATOM     25  N   UNL     1       3.442  -9.306   0.338  0.00  0.00    -0.115 NA
ATOM     26  N   UNL     1       4.403  -9.977   0.873  0.00  0.00    -0.023 NA
ATOM     27  N   UNL     1       4.153 -10.160   2.122  0.00  0.00    -0.044 NA
ATOM     28  N   UNL     1       3.025  -9.601   2.407  0.00  0.00    -0.227 N 
BRANCH  28  29
ATOM     29  C   UNL     1       2.376  -9.570   3.720  0.00  0.00    +0.182 C 
BRANCH  29  30
ATOM     30  C   UNL     1       1.593 -10.841   3.923  0.00  0.00    -0.026 A 
ATOM     31  C   UNL     1       0.272 -10.911   3.522  0.00  0.00    +0.008 A 
ATOM     32  C   UNL     1      -0.447 -12.076   3.708  0.00  0.00    +0.038 A 
ATOM     33  C   UNL     1       0.157 -13.175   4.296  0.00  0.00    +0.123 A 
ATOM     34  C   UNL     1       1.480 -13.105   4.697  0.00  0.00    +0.038 A 
ATOM     35  C   UNL     1       2.199 -11.940   4.505  0.00  0.00    +0.008 A 
ATOM     36  F   UNL     1      -0.545 -14.315   4.478  0.00  0.00    -0.205 F 
ENDBRANCH  29  30
ENDBRANCH  28  29
ENDBRANCH  23  24
ENDBRANCH   1  23
TORSDOF 7
