REMARK  Name = ZINC04355886
REMARK  8 active torsions:
REMARK  status: ('A' for Active; 'I' for Inactive)
REMARK    1  A    between atoms: C_1  and  C_2
REMARK    2  A    between atoms: C_7  and  N_8
REMARK    3  A    between atoms: N_8  and  C_9
REMARK    4  A    between atoms: C_9  and  C_10
REMARK    5  A    between atoms: N_12  and  C_13
REMARK    6  A    between atoms: C_13  and  C_14
REMARK    7  A    between atoms: C_14  and  C_15
REMARK    8  A    between atoms: C_21  and  C_23
REMARK                            x       y       z     vdW  Elec       q    Type
REMARK                         _______ _______ _______ _____ _____    ______ ____
ROOT
ATOM      1  N   UNL     1       1.099   3.613  -0.228  0.00  0.00    -0.258 N 
ATOM      2  C   UNL     1       0.457   3.844  -1.390  0.00  0.00    +0.253 C 
ATOM      3  O   UNL     1       0.539   3.042  -2.300  0.00  0.00    -0.270 OA
ENDROOT
BRANCH   2   4
ATOM      4  C   UNL     1      -0.346   5.070  -1.558  0.00  0.00    +0.053 A 
ATOM      5  C   UNL     1      -0.964   5.673  -0.451  0.00  0.00    +0.018 A 
ATOM      6  C   UNL     1      -1.700   6.810  -0.653  0.00  0.00    +0.042 A 
ATOM      7  C   UNL     1      -1.812   7.331  -1.941  0.00  0.00    +0.099 A 
ATOM      8  C   UNL     1      -0.497   5.651  -2.818  0.00  0.00    +0.097 A 
ATOM      9  N   UNL     1      -2.555   8.481  -2.150  0.00  0.00    -0.317 N 
ATOM     10  C   UNL     1      -1.970   9.633  -1.417  0.00  0.00    +0.106 C 
ATOM     11  C   UNL     1      -2.563  10.860  -2.155  0.00  0.00    +0.020 C 
ATOM     12  C   UNL     1      -2.574  10.404  -3.632  0.00  0.00    +0.020 C 
ATOM     13  C   UNL     1      -2.549   8.865  -3.578  0.00  0.00    +0.106 C 
ATOM     14  N   UNL     1      -1.226   6.773  -3.042  0.00  0.00    -0.349 N 
ATOM     15  H   UNL     1      -1.332   7.177  -3.980  0.00  0.00    +0.167 HD
ENDBRANCH   2   4
BRANCH   1  22
ATOM     16  C   UNL     1       2.587   6.017  -0.544  0.00  0.00    +0.045 C 
ATOM     17  C   UNL     1       1.760   5.748   0.686  0.00  0.00    -0.029 A 
ATOM     18  C   UNL     1       1.709   6.682   1.703  0.00  0.00    +0.005 A 
ATOM     19  C   UNL     1       0.949   6.436   2.832  0.00  0.00    +0.000 A 
ATOM     20  C   UNL     1       0.239   5.255   2.948  0.00  0.00    +0.002 A 
ATOM     21  C   UNL     1       0.283   4.319   1.933  0.00  0.00    +0.024 A 
ATOM     22  C   UNL     1       1.049   4.561   0.800  0.00  0.00    +0.040 A 
ENDBRANCH   1  22
BRANCH   1  23
ATOM     23  C   UNL     1       1.850   2.369  -0.040  0.00  0.00    +0.209 C 
BRANCH  23  24
ATOM     24  C   UNL     1       0.913   1.281   0.419  0.00  0.00    +0.231 C 
ATOM     25  O   UNL     1      -0.250   1.539   0.648  0.00  0.00    -0.274 OA
ATOM     26  N   UNL     1       1.366   0.021   0.569  0.00  0.00    -0.314 N 
ATOM     27  H   UNL     1       2.295  -0.186   0.382  0.00  0.00    +0.149 HD
BRANCH  26  28
ATOM     28  C   UNL     1       0.455  -1.036   1.016  0.00  0.00    +0.109 C 
BRANCH  28  29
ATOM     29  C   UNL     1       1.216  -2.361   1.103  0.00  0.00    +0.054 C 
BRANCH  29  30
ATOM     30  C   UNL     1       0.279  -3.449   1.562  0.00  0.00    -0.046 A 
ATOM     31  C   UNL     1       0.136  -3.714   2.911  0.00  0.00    +0.004 A 
ATOM     32  C   UNL     1      -0.727  -4.708   3.333  0.00  0.00    +0.000 A 
ATOM     33  C   UNL     1      -1.439  -5.444   2.405  0.00  0.00    +0.000 A 
ATOM     34  C   UNL     1      -1.292  -5.183   1.055  0.00  0.00    +0.000 A 
ATOM     35  C   UNL     1      -0.433  -4.185   0.634  0.00  0.00    +0.004 A 
ENDBRANCH  29  30
ENDBRANCH  28  29
ENDBRANCH  26  28
ENDBRANCH  23  24
ENDBRANCH   1  23
TORSDOF 7
