REMARK  Name = ZINC41017089
REMARK  4 active torsions:
REMARK  status: ('A' for Active; 'I' for Inactive)
REMARK    1  A    between atoms: C_6  and  C_7
REMARK    2  A    between atoms: C_7  and  N_8
REMARK    3  A    between atoms: N_8  and  S_9
REMARK    4  A    between atoms: S_9  and  C_12
REMARK                            x       y       z     vdW  Elec       q    Type
REMARK                         _______ _______ _______ _____ _____    ______ ____
ROOT
ATOM      1  S   UNL     1      -2.573  -2.547  -1.649  0.00  0.00    +0.060 S 
ATOM      2  O   UNL     1      -2.713  -2.649  -3.060  0.00  0.00    -0.153 OA
ATOM      3  O   UNL     1      -2.120  -3.630  -0.849  0.00  0.00    -0.153 OA
ENDROOT
BRANCH   1   4
ATOM      4  C   UNL     1      -4.150  -2.080  -1.019  0.00  0.00    +0.127 A 
ATOM      5  C   UNL     1      -5.227  -1.917  -1.871  0.00  0.00    +0.052 A 
ATOM      6  C   UNL     1      -6.427  -1.556  -1.353  0.00  0.00    +0.058 A 
ATOM      7  S   UNL     1      -6.056  -1.437   0.390  0.00  0.00    -0.073 S 
ATOM      8  C   UNL     1      -4.329  -1.880   0.311  0.00  0.00    +0.082 A 
ATOM      9 BR   UNL     1      -3.072  -2.031   1.716  0.00  0.00    -0.041 Br
ATOM     10 BR   UNL     1      -8.068  -1.257  -2.244  0.00  0.00    -0.042 Br
ENDBRANCH   1   4
BRANCH   1  11
ATOM     11  N   UNL     1      -1.539  -1.285  -1.367  0.00  0.00    -0.184 NA
ATOM     12  H   UNL     1      -1.153  -0.798  -2.112  0.00  0.00    +0.148 HD
BRANCH  11  13
ATOM     13  C   UNL     1      -1.206  -0.904   0.008  0.00  0.00    +0.163 C 
BRANCH  13  19
ATOM     14  C   UNL     1      -0.017   1.395   0.010  0.00  0.00    +0.045 A 
ATOM     15  C   UNL     1       1.265   1.828  -0.000  0.00  0.00    +0.105 A 
ATOM     16  N   UNL     1       2.066   0.743  -0.014  0.00  0.00    -0.284 N 
ATOM     17  H   UNL     1       3.036   0.750  -0.023  0.00  0.00    +0.188 HD
ATOM     18  N   UNL     1       1.250  -0.396  -0.012  0.00  0.00    -0.178 NA
ATOM     19  C   UNL     1       0.002  -0.004   0.002  0.00  0.00    +0.078 A 
ENDBRANCH  13  19
ENDBRANCH  11  13
ENDBRANCH   1  11
TORSDOF 4
