REMARK  Name = ZINC24013592
REMARK  12 active torsions:
REMARK  status: ('A' for Active; 'I' for Inactive)
REMARK    1  A    between atoms: C_1  and  C_2
REMARK    2  A    between atoms: C_2  and  O_3
REMARK    3  A    between atoms: O_3  and  C_4
REMARK    4  A    between atoms: C_4  and  C_6
REMARK    5  A    between atoms: C_7  and  C_19
REMARK    6  A    between atoms: C_12  and  C_14
REMARK    7  A    between atoms: C_19  and  S_20
REMARK    8  A    between atoms: S_20  and  C_21
REMARK    9  A    between atoms: C_24  and  C_27
REMARK   10  A    between atoms: N_25  and  C_26
REMARK   11  A    between atoms: C_27  and  O_28
REMARK   12  A    between atoms: O_28  and  C_29
REMARK                            x       y       z     vdW  Elec       q    Type
REMARK                         _______ _______ _______ _____ _____    ______ ____
ROOT
ATOM      1  C   UNL     1      -0.695   1.692   3.586  0.00  0.00    +0.082 C 
ATOM      2  C   UNL     1      -0.314   1.176   4.774  0.00  0.00    +0.034 C 
ATOM      3  N   UNL     1      -0.974   1.496   5.926  0.00  0.00    -0.272 N 
ATOM      4  C   UNL     1      -2.025   2.325   5.973  0.00  0.00    +0.304 C 
ATOM      5  O   UNL     1      -2.548   2.550   7.047  0.00  0.00    -0.252 OA
ATOM      6  N   UNL     1      -2.521   2.918   4.869  0.00  0.00    -0.285 N 
ATOM      7  C   UNL     1      -1.875   2.642   3.575  0.00  0.00    +0.179 C 
ATOM      8  H   UNL     1      -0.648   1.066   6.884  0.00  0.00    +0.156 HD
ATOM      9  H   UNL     1      -3.388   3.593   4.918  0.00  0.00    +0.151 HD
ENDROOT
BRANCH   7  10
ATOM     10  C   UNL     1      -1.411   3.952   2.993  0.00  0.00    +0.130 A 
ATOM     11  C   UNL     1      -1.610   4.366   1.728  0.00  0.00    +0.047 A 
ATOM     12  C   UNL     1      -1.013   5.642   1.616  0.00  0.00    +0.041 A 
ATOM     13  C   UNL     1      -0.485   5.933   2.819  0.00  0.00    +0.195 A 
ATOM     14  O   UNL     1      -0.734   4.908   3.651  0.00  0.00    -0.466 OA
ENDBRANCH   7  10
BRANCH   1  15
ATOM     15  C   UNL     1      -0.012   1.361   2.392  0.00  0.00    +0.339 C 
ATOM     16  O   UNL     1      -0.486   0.542   1.626  0.00  0.00    -0.245 OA
BRANCH  15  17
ATOM     17  O   UNL     1       1.166   1.952   2.102  0.00  0.00    -0.462 OA
BRANCH  17  19
ATOM     18  C   UNL     1       3.113   2.340   0.725  0.00  0.00    +0.048 C 
ATOM     19  C   UNL     1       1.800   1.570   0.880  0.00  0.00    +0.229 C 
ENDBRANCH  17  19
ENDBRANCH  15  17
ENDBRANCH   1  15
BRANCH   2  20
ATOM     20  C   UNL     1       0.859   0.231   4.830  0.00  0.00    +0.128 C 
BRANCH  20  21
ATOM     21  S   UNL     1       2.298   1.095   5.507  0.00  0.00    -0.080 S 
BRANCH  21  22
ATOM     22  C   UNL     1       3.486  -0.205   5.461  0.00  0.00    +0.192 A 
ATOM     23  N   UNL     1       3.284  -1.433   5.040  0.00  0.00    -0.122 NA
ATOM     24  N   UNL     1       4.368  -2.114   5.145  0.00  0.00    -0.130 NA
ATOM     25  C   UNL     1       5.317  -1.372   5.642  0.00  0.00    +0.172 A 
ATOM     26  N   UNL     1       4.789  -0.130   5.861  0.00  0.00    -0.306 N 
ATOM     27  C   UNL     1       5.479   1.040   6.411  0.00  0.00    +0.153 C 
BRANCH  25  28
ATOM     28  C   UNL     1       6.733  -1.803   5.923  0.00  0.00    +0.305 C 
BRANCH  28  29
ATOM     29  O   UNL     1       6.820  -2.312   7.256  0.00  0.00    -0.483 OA
BRANCH  29  30
ATOM     30  C   UNL     1       8.039  -2.747   7.672  0.00  0.00    +0.139 A 
ATOM     31  C   UNL     1       9.127  -2.690   6.814  0.00  0.00    +0.047 A 
ATOM     32  C   UNL     1      10.366  -3.127   7.241  0.00  0.00    +0.004 A 
ATOM     33  C   UNL     1      10.520  -3.632   8.519  0.00  0.00    +0.002 A 
ATOM     34  C   UNL     1       9.437  -3.695   9.375  0.00  0.00    +0.023 A 
ATOM     35  C   UNL     1       8.196  -3.253   8.955  0.00  0.00    +0.083 A 
ATOM     36 CL   UNL     1       6.835  -3.333  10.030  0.00  0.00    -0.080 Cl
ENDBRANCH  29  30
ENDBRANCH  28  29
ENDBRANCH  25  28
ENDBRANCH  21  22
ENDBRANCH  20  21
ENDBRANCH   2  20
TORSDOF 10
