REMARK  Name = ZINC49104151
REMARK  7 active torsions:
REMARK  status: ('A' for Active; 'I' for Inactive)
REMARK    1  A    between atoms: C_1  and  C_2
REMARK    2  A    between atoms: C_2  and  C_3
REMARK    3  A    between atoms: C_3  and  C_4
REMARK    4  A    between atoms: C_4  and  C_6
REMARK    5  A    between atoms: C_4  and  N_17
REMARK    6  A    between atoms: N_8  and  C_9
REMARK    7  A    between atoms: C_14  and  C_15
REMARK                            x       y       z     vdW  Elec       q    Type
REMARK                         _______ _______ _______ _____ _____    ______ ____
ROOT
ATOM      1  C   UNL     1       1.335  -2.511  -2.562  0.00  0.00    +0.238 C 
ATOM      2  O   UNL     1       2.491  -2.876  -2.599  0.00  0.00    -0.273 OA
ATOM      3  N   UNL     1       0.579  -2.552  -3.677  0.00  0.00    -0.284 N 
ATOM      4  H   UNL     1      -0.366  -2.337  -3.631  0.00  0.00    +0.155 HD
ENDROOT
BRANCH   3   5
ATOM      5  C   UNL     1       1.158  -2.904  -4.902  0.00  0.00    +0.036 A 
ATOM      6  C   UNL     1       2.518  -2.714  -5.109  0.00  0.00    +0.024 A 
ATOM      7  C   UNL     1       3.086  -3.063  -6.318  0.00  0.00    +0.016 A 
ATOM      8  C   UNL     1       2.302  -3.602  -7.323  0.00  0.00    +0.014 A 
ATOM      9  C   UNL     1       0.947  -3.792  -7.119  0.00  0.00    +0.019 A 
ATOM     10  C   UNL     1       0.374  -3.450  -5.910  0.00  0.00    -0.028 A 
ATOM     11  C   UNL     1      -1.101  -3.663  -5.687  0.00  0.00    +0.046 C 
ATOM     12  I   UNL     1       3.168  -4.129  -9.156  0.00  0.00    -0.044 I 
ENDBRANCH   3   5
BRANCH   1  13
ATOM     13  C   UNL     1       0.743  -2.013  -1.269  0.00  0.00    +0.161 C 
BRANCH  13  14
ATOM     14  N   UNL     1       1.550  -2.494  -0.145  0.00  0.00    -0.288 N 
ATOM     15  C   UNL     1       2.853  -2.157  -0.058  0.00  0.00    +0.298 C 
ATOM     16  O   UNL     1       3.357  -1.454  -0.912  0.00  0.00    -0.253 OA
ATOM     17  N   UNL     1       3.595  -2.599   0.976  0.00  0.00    -0.313 N 
ATOM     18  H   UNL     1       1.148  -3.054   0.537  0.00  0.00    +0.151 HD
ATOM     19  H   UNL     1       3.193  -3.160   1.657  0.00  0.00    +0.146 HD
ATOM     20  H   UNL     1       4.533  -2.357   1.038  0.00  0.00    +0.146 HD
ENDBRANCH  13  14
BRANCH  13  21
ATOM     21  C   UNL     1       0.730  -0.483  -1.270  0.00  0.00    +0.031 C 
BRANCH  21  23
ATOM     22  C   UNL     1       0.004   1.552  -0.015  0.00  0.00    +0.004 C 
ATOM     23  C   UNL     1       0.017   0.022  -0.014  0.00  0.00    -0.001 C 
ENDBRANCH  21  23
ENDBRANCH  13  21
ENDBRANCH   1  13
TORSDOF 5
