REMARK  Name = ZINC40137979
REMARK  10 active torsions:
REMARK  status: ('A' for Active; 'I' for Inactive)
REMARK    1  A    between atoms: C_1  and  C_2
REMARK    2  A    between atoms: C_6  and  O_8
REMARK    3  A    between atoms: O_8  and  C_9
REMARK    4  A    between atoms: C_9  and  C_10
REMARK    5  A    between atoms: C_10  and  N_11
REMARK    6  A    between atoms: N_19  and  N_20
REMARK    7  A    between atoms: C_21  and  C_23
REMARK    8  A    between atoms: C_23  and  C_24
REMARK    9  A    between atoms: C_24  and  N_25
REMARK   10  A    between atoms: C_26  and  C_28
REMARK                            x       y       z     vdW  Elec       q    Type
REMARK                         _______ _______ _______ _____ _____    ______ ____
ROOT
ATOM      1  N   UNL     1      -1.170  -4.465   4.366  0.00  0.00    -0.262 N 
ATOM      2  C   UNL     1      -1.367  -3.319   5.129  0.00  0.00    +0.046 A 
ATOM      3  C   UNL     1      -0.522  -2.259   5.439  0.00  0.00    +0.025 A 
ATOM      4  C   UNL     1      -0.971  -1.223   6.233  0.00  0.00    +0.022 A 
ATOM      5  C   UNL     1      -2.265  -1.225   6.730  0.00  0.00    +0.042 A 
ATOM      6  C   UNL     1      -3.119  -2.270   6.433  0.00  0.00    +0.032 A 
ATOM      7  C   UNL     1      -2.674  -3.317   5.634  0.00  0.00    +0.030 A 
ATOM      8  C   UNL     1      -3.316  -4.557   5.137  0.00  0.00    +0.153 C 
ATOM      9  N   UNL     1      -4.540  -4.967   5.363  0.00  0.00    -0.175 NA
ATOM     10  C   UNL     1      -2.277  -5.227   4.329  0.00  0.00    +0.271 C 
ATOM     11  O   UNL     1      -2.400  -6.283   3.737  0.00  0.00    -0.268 OA
ATOM     12 CL   UNL     1      -2.812   0.086   7.728  0.00  0.00    -0.084 Cl
ENDROOT
BRANCH   9  13
ATOM     13  N   UNL     1      -4.987  -6.175   4.811  0.00  0.00    -0.206 N 
ATOM     14  C   UNL     1      -6.245  -6.597   5.043  0.00  0.00    +0.234 C 
ATOM     15  O   UNL     1      -6.991  -5.932   5.729  0.00  0.00    -0.274 OA
ATOM     16  H   UNL     1      -4.390  -6.707   4.262  0.00  0.00    +0.177 HD
BRANCH  14  17
ATOM     17  C   UNL     1      -6.726  -7.896   4.449  0.00  0.00    +0.116 C 
BRANCH  17  18
ATOM     18  C   UNL     1      -8.178  -8.140   4.863  0.00  0.00    +0.114 C 
BRANCH  18  19
ATOM     19  N   UNL     1      -8.646  -9.403   4.285  0.00  0.00    -0.311 N 
ATOM     20  C   UNL     1      -9.904  -9.825   4.517  0.00  0.00    +0.244 C 
ATOM     21  O   UNL     1     -10.652  -9.158   5.205  0.00  0.00    -0.270 OA
ATOM     22  H   UNL     1      -8.049  -9.935   3.736  0.00  0.00    +0.149 HD
BRANCH  20  23
ATOM     23  C   UNL     1     -10.376 -11.100   3.935  0.00  0.00    +0.037 A 
ATOM     24  C   UNL     1      -9.518 -11.871   3.149  0.00  0.00    +0.013 A 
ATOM     25  C   UNL     1      -9.964 -13.059   2.609  0.00  0.00    +0.001 A 
ATOM     26  C   UNL     1     -11.258 -13.487   2.844  0.00  0.00    +0.000 A 
ATOM     27  C   UNL     1     -12.114 -12.727   3.622  0.00  0.00    +0.001 A 
ATOM     28  C   UNL     1     -11.679 -11.540   4.173  0.00  0.00    +0.013 A 
ENDBRANCH  20  23
ENDBRANCH  18  19
ENDBRANCH  17  18
ENDBRANCH  14  17
ENDBRANCH   9  13
BRANCH   1  29
ATOM     29  C   UNL     1       0.083  -4.796   3.683  0.00  0.00    +0.155 C 
BRANCH  29  30
ATOM     30  C   UNL     1       0.069  -4.202   2.274  0.00  0.00    +0.248 C 
BRANCH  30  31
ATOM     31  O   UNL     1       0.050  -2.776   2.358  0.00  0.00    -0.490 OA
BRANCH  31  37
ATOM     32  C   UNL     1      -0.018   1.503   0.010  0.00  0.00    +0.044 C 
ATOM     33  C   UNL     1       0.002  -0.004   0.002  0.00  0.00    -0.047 A 
ATOM     34  C   UNL     1       0.006  -0.688  -1.200  0.00  0.00    +0.003 A 
ATOM     35  C   UNL     1       0.024  -2.071  -1.211  0.00  0.00    +0.004 A 
ATOM     36  C   UNL     1       0.039  -2.772  -0.020  0.00  0.00    +0.045 A 
ATOM     37  C   UNL     1       0.035  -2.088   1.186  0.00  0.00    +0.121 A 
ATOM     38  C   UNL     1       0.023  -0.700   1.195  0.00  0.00    +0.049 A 
ENDBRANCH  31  37
ENDBRANCH  30  31
ENDBRANCH  29  30
ENDBRANCH   1  29
TORSDOF 9
