REMARK  Name = ZINC63228868
REMARK  6 active torsions:
REMARK  status: ('A' for Active; 'I' for Inactive)
REMARK    1  A    between atoms: C_1  and  C_2
REMARK    2  A    between atoms: C_11  and  C_18
REMARK    3  A    between atoms: C_18  and  N_19
REMARK    4  A    between atoms: N_25  and  C_26
REMARK    5  A    between atoms: C_26  and  C_27
REMARK    6  A    between atoms: C_27  and  C_28
REMARK                            x       y       z     vdW  Elec       q    Type
REMARK                         _______ _______ _______ _____ _____    ______ ____
ROOT
ATOM      1  C   UNL     1      -2.650   2.781   1.875  0.00  0.00    +0.007 C 
ATOM      2  C   UNL     1      -1.934   1.532   1.356  0.00  0.00    -0.013 C 
ATOM      3  C   UNL     1      -2.959   0.427   1.092  0.00  0.00    +0.004 C 
ATOM      4  C   UNL     1      -2.241  -0.781   0.500  0.00  0.00    +0.010 C 
ATOM      5  C   UNL     1      -1.143  -1.287   1.401  0.00  0.00    +0.038 C 
ATOM      6  C   UNL     1      -1.642  -2.204   2.467  0.00  0.00    +0.028 A 
ATOM      7  C   UNL     1      -2.776  -3.031   2.398  0.00  0.00    +0.127 A 
ATOM      8  N   UNL     1      -3.030  -3.783   3.473  0.00  0.00    -0.216 NA
ATOM      9  C   UNL     1      -2.282  -3.778   4.553  0.00  0.00    +0.146 A 
ATOM     10  N   UNL     1      -1.201  -3.015   4.677  0.00  0.00    -0.224 NA
ATOM     11  C   UNL     1      -0.892  -2.239   3.653  0.00  0.00    +0.106 A 
ATOM     12  S   UNL     1       0.426  -1.076   3.447  0.00  0.00    -0.101 S 
ATOM     13  C   UNL     1      -0.223  -0.204   1.965  0.00  0.00    +0.061 C 
ATOM     14  C   UNL     1      -0.934   1.047   2.398  0.00  0.00    +0.018 C 
ATOM     15  N   UNL     1      -3.589  -3.065   1.275  0.00  0.00    -0.328 N 
ATOM     16  H   UNL     1      -3.212  -2.886   0.399  0.00  0.00    +0.147 HD
ENDROOT
BRANCH   9  17
ATOM     17  C   UNL     1      -2.666  -4.676   5.701  0.00  0.00    +0.160 C 
BRANCH  17  18
ATOM     18  N   UNL     1      -2.014  -5.983   5.540  0.00  0.00    -0.291 NA
ATOM     19  C   UNL     1      -2.535  -6.690   4.361  0.00  0.00    +0.113 C 
ATOM     20  C   UNL     1      -1.788  -8.016   4.197  0.00  0.00    +0.175 C 
ATOM     21  O   UNL     1      -1.925  -8.786   5.394  0.00  0.00    -0.377 OA
ATOM     22  C   UNL     1      -1.428  -8.128   6.562  0.00  0.00    +0.175 C 
ATOM     23  C   UNL     1      -2.171  -6.802   6.750  0.00  0.00    +0.113 C 
ENDBRANCH  17  18
ENDBRANCH   9  17
BRANCH  15  24
ATOM     24  C   UNL     1      -5.015  -3.371   1.411  0.00  0.00    +0.107 C 
BRANCH  24  25
ATOM     25  C   UNL     1      -5.676  -3.344   0.032  0.00  0.00    +0.052 C 
BRANCH  25  26
ATOM     26  C   UNL     1      -7.143  -3.659   0.172  0.00  0.00    -0.040 C 
ATOM     27  C   UNL     1      -8.159  -2.771   0.272  0.00  0.00    -0.001 A 
ATOM     28  C   UNL     1      -8.201  -1.304   0.280  0.00  0.00    +0.010 A 
ATOM     29  C   UNL     1      -9.396  -0.682   0.396  0.00  0.00    +0.001 A 
ATOM     30  C   UNL     1     -10.593  -1.402   0.510  0.00  0.00    +0.002 A 
ATOM     31  C   UNL     1     -10.636  -2.751   0.510  0.00  0.00    +0.026 A 
ATOM     32  C   UNL     1      -9.438  -3.508   0.392  0.00  0.00    +0.043 A 
ATOM     33  N   UNL     1      -9.220  -4.801   0.368  0.00  0.00    -0.380 N 
ATOM     34  C   UNL     1      -7.779  -5.030   0.224  0.00  0.00    +0.144 C 
ATOM     35  H   UNL     1      -9.900  -5.490   0.432  0.00  0.00    +0.160 HD
ENDBRANCH  25  26
ENDBRANCH  24  25
ENDBRANCH  15  24
TORSDOF 5
