REMARK  Name = ZINC36587076
REMARK  16 active torsions:
REMARK  status: ('A' for Active; 'I' for Inactive)
REMARK    1  A    between atoms: C_1  and  C_2
REMARK    2  A    between atoms: C_2  and  C_3
REMARK    3  A    between atoms: C_2  and  C_4
REMARK    4  A    between atoms: C_2  and  N_5
REMARK    5  A    between atoms: C_6  and  C_8
REMARK    6  A    between atoms: C_8  and  C_10
REMARK    7  A    between atoms: C_8  and  N_18
REMARK    8  A    between atoms: C_13  and  O_16
REMARK    9  A    between atoms: O_16  and  C_17
REMARK   10  A    between atoms: N_18  and  C_29
REMARK   11  A    between atoms: C_19  and  C_21
REMARK   12  A    between atoms: C_25  and  O_28
REMARK   13  A    between atoms: C_26  and  O_27
REMARK   14  A    between atoms: C_29  and  C_30
REMARK   15  A    between atoms: C_29  and  C_31
REMARK   16  A    between atoms: C_29  and  C_32
REMARK                            x       y       z     vdW  Elec       q    Type
REMARK                         _______ _______ _______ _____ _____    ______ ____
ROOT
ATOM      1  C   UNL     1       7.147  -0.300  -0.206  0.00  0.00    +0.193 C 
ENDROOT
BRANCH   1   2
ATOM      2  C   UNL     1       8.313   0.074   0.673  0.00  0.00    -0.018 A 
ATOM      3  C   UNL     1       8.768   1.379   0.697  0.00  0.00    +0.009 A 
ATOM      4  C   UNL     1       9.837   1.724   1.502  0.00  0.00    +0.046 A 
ATOM      5  C   UNL     1      10.453   0.760   2.287  0.00  0.00    +0.120 A 
ATOM      6  C   UNL     1       9.993  -0.549   2.262  0.00  0.00    +0.046 A 
ATOM      7  C   UNL     1       8.921  -0.887   1.459  0.00  0.00    +0.009 A 
BRANCH   5   8
ATOM      8  O   UNL     1      11.504   1.097   3.079  0.00  0.00    -0.495 OA
ATOM      9  C   UNL     1      12.089   0.053   3.860  0.00  0.00    +0.277 C 
ENDBRANCH   5   8
ENDBRANCH   1   2
BRANCH   1  11
ATOM     10  N   UNL     1       6.097  -1.871   1.391  0.00  0.00    -0.309 N 
ATOM     11  C   UNL     1       5.993  -0.747   0.654  0.00  0.00    +0.239 C 
ATOM     12  O   UNL     1       4.970  -0.096   0.682  0.00  0.00    -0.273 OA
ATOM     13  H   UNL     1       6.915  -2.392   1.368  0.00  0.00    +0.149 HD
BRANCH  10  15
ATOM     14  C   UNL     1       3.750  -2.554   1.345  0.00  0.00    +0.031 C 
ATOM     15  C   UNL     1       4.975  -2.306   2.226  0.00  0.00    +0.026 C 
ATOM     16  C   UNL     1       4.653  -1.219   3.253  0.00  0.00    +0.031 C 
ATOM     17  C   UNL     1       5.352  -3.599   2.953  0.00  0.00    +0.031 C 
ENDBRANCH  10  15
ENDBRANCH   1  11
BRANCH   1  18
ATOM     18  N   UNL     1       6.742   0.863  -1.000  0.00  0.00    -0.277 N 
ATOM     19  C   UNL     1       6.531   2.050  -0.399  0.00  0.00    +0.252 C 
ATOM     20  O   UNL     1       6.295   2.094   0.794  0.00  0.00    -0.270 OA
BRANCH  19  21
ATOM     21  C   UNL     1       6.585   3.296  -1.186  0.00  0.00    +0.082 A 
ATOM     22  C   UNL     1       5.765   3.454  -2.308  0.00  0.00    +0.017 A 
ATOM     23  C   UNL     1       5.817   4.620  -3.040  0.00  0.00    +0.005 A 
ATOM     24  C   UNL     1       6.680   5.639  -2.672  0.00  0.00    +0.049 A 
ATOM     25  C   UNL     1       7.498   5.497  -1.565  0.00  0.00    +0.159 A 
ATOM     26  C   UNL     1       7.452   4.328  -0.811  0.00  0.00    +0.171 A 
BRANCH  26  27
ATOM     27  O   UNL     1       8.249   4.188   0.279  0.00  0.00    -0.503 OA
ATOM     28  H   UNL     1       9.113   3.799   0.087  0.00  0.00    +0.292 HD
ENDBRANCH  26  27
BRANCH  25  29
ATOM     29  O   UNL     1       8.343   6.503  -1.210  0.00  0.00    -0.503 OA
ATOM     30  H   UNL     1       7.957   7.143  -0.597  0.00  0.00    +0.292 HD
ENDBRANCH  25  29
ENDBRANCH  19  21
BRANCH  18  31
ATOM     31  C   UNL     1       6.567   0.734  -2.449  0.00  0.00    +0.030 C 
ATOM     32  C   UNL     1       7.287  -0.523  -2.941  0.00  0.00    +0.031 C 
ATOM     33  C   UNL     1       5.076   0.629  -2.776  0.00  0.00    +0.031 C 
ATOM     34  C   UNL     1       7.156   1.963  -3.145  0.00  0.00    +0.031 C 
ENDBRANCH  18  31
ENDBRANCH   1  18
TORSDOF 9
