REMARK  Name = ZINC28059100
REMARK  6 active torsions:
REMARK  status: ('A' for Active; 'I' for Inactive)
REMARK    1  A    between atoms: C_1  and  O_2
REMARK    2  A    between atoms: O_2  and  C_3
REMARK    3  A    between atoms: C_6  and  O_36
REMARK    4  A    between atoms: C_7  and  C_9
REMARK    5  A    between atoms: C_20  and  C_22
REMARK    6  A    between atoms: O_36  and  C_37
REMARK                            x       y       z     vdW  Elec       q    Type
REMARK                         _______ _______ _______ _____ _____    ______ ____
ROOT
ATOM      1  C   UNL     1       2.309  -0.132  -1.839  0.00  0.00    +0.178 C 
ATOM      2  C   UNL     1       2.808   1.286  -1.706  0.00  0.00    +0.026 C 
ATOM      3  C   UNL     1       3.478   1.900  -2.681  0.00  0.00    +0.050 C 
ATOM      4  C   UNL     1       3.932   3.293  -2.456  0.00  0.00    +0.038 A 
ATOM      5  C   UNL     1       4.318   4.112  -3.510  0.00  0.00    +0.013 A 
ATOM      6  C   UNL     1       4.740   5.402  -3.250  0.00  0.00    +0.001 A 
ATOM      7  C   UNL     1       4.779   5.876  -1.951  0.00  0.00    +0.004 A 
ATOM      8  C   UNL     1       4.394   5.068  -0.896  0.00  0.00    +0.046 A 
ATOM      9  C   UNL     1       3.968   3.776  -1.141  0.00  0.00    +0.131 A 
ATOM     10  O   UNL     1       3.581   2.952  -0.135  0.00  0.00    -0.479 OA
ATOM     11  C   UNL     1       2.529   2.030  -0.419  0.00  0.00    +0.235 C 
ATOM     12  N   UNL     1       3.769   1.273  -3.898  0.00  0.00    -0.282 N 
ATOM     13  C   UNL     1       3.593  -0.097  -3.965  0.00  0.00    +0.240 A 
ATOM     14  N   UNL     1       2.914  -0.769  -3.000  0.00  0.00    -0.201 N 
ATOM     15  N   UNL     1       2.949  -2.109  -3.386  0.00  0.00    -0.042 NA
ATOM     16  N   UNL     1       3.604  -2.154  -4.501  0.00  0.00    -0.021 NA
ATOM     17  N   UNL     1       3.984  -0.972  -4.847  0.00  0.00    -0.092 NA
ATOM     18  H   UNL     1       4.123   1.869  -4.753  0.00  0.00    +0.155 HD
ENDROOT
BRANCH  11  19
ATOM     19  C   UNL     1       1.230   2.783  -0.552  0.00  0.00    +0.015 A 
ATOM     20  C   UNL     1       1.163   3.908  -1.352  0.00  0.00    +0.010 A 
ATOM     21  C   UNL     1      -0.028   4.599  -1.474  0.00  0.00    +0.020 A 
ATOM     22  C   UNL     1      -1.153   4.165  -0.795  0.00  0.00    +0.042 A 
ATOM     23  C   UNL     1      -1.087   3.036   0.000  0.00  0.00    +0.040 A 
ATOM     24  C   UNL     1       0.106   2.348   0.127  0.00  0.00    +0.049 A 
ATOM     25 CL   UNL     1       0.191   0.934   1.131  0.00  0.00    -0.083 Cl
ATOM     26 CL   UNL     1      -2.648   5.034  -0.949  0.00  0.00    -0.083 Cl
ENDBRANCH  11  19
BRANCH   1  31
ATOM     27  C   UNL     1      -1.149   0.661  -3.142  0.00  0.00    +0.121 A 
ATOM     28  C   UNL     1      -1.944  -0.103  -2.301  0.00  0.00    +0.049 A 
ATOM     29  C   UNL     1      -1.364  -0.875  -1.314  0.00  0.00    +0.049 A 
ATOM     30  C   UNL     1       0.015  -0.885  -1.163  0.00  0.00    +0.126 A 
ATOM     31  C   UNL     1       0.811  -0.121  -2.003  0.00  0.00    +0.026 A 
ATOM     32  C   UNL     1       0.229   0.655  -2.988  0.00  0.00    +0.055 A 
BRANCH  27  34
ATOM     33  C   UNL     1      -3.146   1.384  -4.212  0.00  0.00    +0.277 C 
ATOM     34  O   UNL     1      -1.720   1.421  -4.114  0.00  0.00    -0.495 OA
ENDBRANCH  27  34
BRANCH  30  35
ATOM     35  O   UNL     1       0.587  -1.645  -0.191  0.00  0.00    -0.495 OA
ATOM     36  C   UNL     1      -0.292  -2.407   0.639  0.00  0.00    +0.277 C 
ENDBRANCH  30  35
ENDBRANCH   1  31
TORSDOF 4
