REMARK  Name = ZINC00995251
REMARK  5 active torsions:
REMARK  status: ('A' for Active; 'I' for Inactive)
REMARK    1  A    between atoms: C_1  and  C_2
REMARK    2  A    between atoms: C_12  and  S_22
REMARK    3  A    between atoms: N_13  and  C_16
REMARK    4  A    between atoms: S_22  and  C_23
REMARK    5  A    between atoms: C_23  and  C_24
REMARK                            x       y       z     vdW  Elec       q    Type
REMARK                         _______ _______ _______ _____ _____    ______ ____
ROOT
ATOM      1  C   UNL     1       9.412   3.139  -0.321  0.00  0.00    +0.008 C 
ATOM      2  C   UNL     1       9.086   1.673  -0.028  0.00  0.00    -0.009 C 
ATOM      3  C   UNL     1      10.009   0.771  -0.852  0.00  0.00    +0.009 C 
ATOM      4  C   UNL     1       9.851  -0.675  -0.360  0.00  0.00    +0.043 C 
ATOM      5  C   UNL     1       8.388  -0.983  -0.261  0.00  0.00    -0.004 A 
ATOM      6  C   UNL     1       7.365  -0.104  -0.271  0.00  0.00    -0.022 A 
ATOM      7  C   UNL     1       6.014  -0.656  -0.160  0.00  0.00    +0.076 A 
ATOM      8  C   UNL     1       5.929  -2.054  -0.056  0.00  0.00    +0.117 A 
ATOM      9  S   UNL     1       7.625  -2.575  -0.106  0.00  0.00    -0.073 S 
ATOM     10  N   UNL     1       4.766  -2.686   0.050  0.00  0.00    -0.215 NA
ATOM     11  C   UNL     1       3.632  -2.015   0.066  0.00  0.00    +0.178 A 
ATOM     12  N   UNL     1       3.623  -0.652  -0.036  0.00  0.00    -0.255 N 
ATOM     13  C   UNL     1       4.768   0.048  -0.146  0.00  0.00    +0.268 A 
ATOM     14  O   UNL     1       4.743   1.263  -0.231  0.00  0.00    -0.267 OA
ATOM     15  C   UNL     1       7.627   1.395  -0.393  0.00  0.00    +0.040 C 
ENDROOT
BRANCH  12  16
ATOM     16  C   UNL     1       2.400   0.031  -0.021  0.00  0.00    +0.052 A 
ATOM     17  C   UNL     1       1.728   0.281  -1.210  0.00  0.00    +0.026 A 
ATOM     18  C   UNL     1       0.522   0.954  -1.192  0.00  0.00    +0.002 A 
ATOM     19  C   UNL     1      -0.017   1.378   0.009  0.00  0.00    +0.000 A 
ATOM     20  C   UNL     1       0.650   1.130   1.195  0.00  0.00    +0.002 A 
ATOM     21  C   UNL     1       1.856   0.458   1.183  0.00  0.00    +0.026 A 
ENDBRANCH  12  16
BRANCH  11  22
ATOM     22  S   UNL     1       2.107  -2.886   0.213  0.00  0.00    -0.078 S 
BRANCH  22  23
ATOM     23  C   UNL     1       2.724  -4.585   0.308  0.00  0.00    +0.172 C 
BRANCH  23  24
ATOM     24  C   UNL     1       1.561  -5.534   0.442  0.00  0.00    +0.221 C 
ATOM     25  O   UNL     1       0.428  -5.105   0.471  0.00  0.00    -0.275 OA
ATOM     26  N   UNL     1       1.782  -6.861   0.530  0.00  0.00    -0.329 N 
ATOM     27  H   UNL     1       2.688  -7.205   0.507  0.00  0.00    +0.145 HD
ATOM     28  H   UNL     1       1.033  -7.472   0.616  0.00  0.00    +0.145 HD
ENDBRANCH  23  24
ENDBRANCH  22  23
ENDBRANCH  11  22
TORSDOF 4
