REMARK  Name = ZINC63192667
REMARK  5 active torsions:
REMARK  status: ('A' for Active; 'I' for Inactive)
REMARK    1  A    between atoms: C_1  and  C_2
REMARK    2  A    between atoms: C_2  and  C_4
REMARK    3  A    between atoms: C_2  and  N_22
REMARK    4  A    between atoms: C_11  and  C_13
REMARK    5  A    between atoms: C_17  and  N_19
REMARK                            x       y       z     vdW  Elec       q    Type
REMARK                         _______ _______ _______ _____ _____    ______ ____
ROOT
ATOM      1  C   UNL     1      -1.040  -0.975   0.435  0.00  0.00    +0.062 C 
ATOM      2  C   UNL     1      -0.410  -2.273   0.950  0.00  0.00    +0.021 C 
ATOM      3  C   UNL     1      -1.512  -3.203   1.462  0.00  0.00    +0.003 C 
ATOM      4  C   UNL     1      -2.250  -2.531   2.622  0.00  0.00    +0.019 C 
ATOM      5  C   UNL     1      -2.901  -1.236   2.126  0.00  0.00    +0.108 C 
ATOM      6  N   UNL     1      -1.872  -0.396   1.498  0.00  0.00    -0.296 N 
ATOM      7  C   UNL     1      -1.692   0.880   1.892  0.00  0.00    +0.247 C 
ATOM      8  O   UNL     1      -0.845   1.568   1.357  0.00  0.00    -0.270 OA
ENDROOT
BRANCH   7   9
ATOM      9  C   UNL     1      -2.525   1.444   2.976  0.00  0.00    +0.039 A 
ATOM     10  C   UNL     1      -3.865   1.072   3.096  0.00  0.00    +0.013 A 
ATOM     11  C   UNL     1      -4.636   1.601   4.110  0.00  0.00    +0.003 A 
ATOM     12  C   UNL     1      -4.084   2.499   5.007  0.00  0.00    +0.033 A 
ATOM     13  C   UNL     1      -2.757   2.872   4.893  0.00  0.00    +0.127 A 
ATOM     14  C   UNL     1      -1.973   2.345   3.888  0.00  0.00    +0.045 A 
BRANCH  13  15
ATOM     15  N   UNL     1      -2.175   3.833   5.857  0.00  0.00    +0.056 N 
ATOM     16  O   UNL     1      -2.860   4.291   6.742  0.00  0.00    -0.126 OA
ATOM     17  O   UNL     1      -1.015   4.160   5.759  0.00  0.00    -0.126 OA
ENDBRANCH  13  15
ENDBRANCH   7   9
BRANCH   1  19
ATOM     18  C   UNL     1       1.055   0.146   1.207  0.00  0.00    -0.012 C 
ATOM     19  C   UNL     1       0.063   0.013   0.050  0.00  0.00    -0.057 C 
BRANCH  19  20
ATOM     20  N   UNL     1       0.765  -0.477  -1.143  0.00  0.00    +0.381 N 
ATOM     21  H   UNL     1       1.257  -1.329  -0.918  0.00  0.00    -0.090 HD
ATOM     22  H   UNL     1       0.096  -0.659  -1.876  0.00  0.00    -0.090 HD
ATOM     23  H   UNL     1       1.425   0.220  -1.455  0.00  0.00    -0.090 HD
ENDBRANCH  19  20
ENDBRANCH   1  19
TORSDOF 4
