REMARK  Name = ZINC13576992
REMARK  4 active torsions:
REMARK  status: ('A' for Active; 'I' for Inactive)
REMARK    1  A    between atoms: C_1  and  C_2
REMARK    2  A    between atoms: N_26  and  C_29
REMARK    3  A    between atoms: C_29  and  C_30
REMARK    4  A    between atoms: C_30  and  C_31
REMARK                            x       y       z     vdW  Elec       q    Type
REMARK                         _______ _______ _______ _____ _____    ______ ____
ROOT
ATOM      1  C   UNL     1      -0.018   1.503   0.010  0.00  0.00    +0.044 C 
ATOM      2  C   UNL     1       0.002  -0.004   0.002  0.00  0.00    -0.050 A 
ATOM      3  C   UNL     1       0.006  -0.685  -1.213  0.00  0.00    +0.005 A 
ATOM      4  C   UNL     1       0.023  -2.046  -1.255  0.00  0.00    +0.028 A 
ATOM      5  C   UNL     1       0.036  -2.781  -0.058  0.00  0.00    +0.073 A 
ATOM      6  C   UNL     1       0.035  -2.086   1.176  0.00  0.00    +0.001 A 
ATOM      7  C   UNL     1       0.022  -0.683   1.183  0.00  0.00    +0.013 A 
ATOM      8  C   UNL     1       0.054  -2.825   2.376  0.00  0.00    +0.017 A 
ATOM      9  C   UNL     1       0.065  -4.188   2.298  0.00  0.00    -0.005 A 
ATOM     10  C   UNL     1       0.053  -4.819   1.052  0.00  0.00    +0.125 A 
ATOM     11  N   UNL     1       0.046  -4.117  -0.069  0.00  0.00    -0.232 NA
ATOM     12  N   UNL     1       0.034  -6.214   0.946  0.00  0.00    -0.310 N 
ATOM     13  C   UNL     1       0.044  -6.764  -0.412  0.00  0.00    +0.107 C 
ATOM     14  C   UNL     1       0.783  -8.097  -0.463  0.00  0.00    +0.019 C 
ATOM     15  C   UNL     1       0.179  -9.020   0.601  0.00  0.00    +0.003 C 
ATOM     16  C   UNL     1       0.501  -8.444   1.974  0.00  0.00    +0.024 C 
ATOM     17  C   UNL     1      -0.038  -7.033   2.141  0.00  0.00    +0.099 C 
ATOM     18  C   UNL     1       0.718  -6.358   3.294  0.00  0.00    +0.146 C 
ATOM     19  C   UNL     1       0.092  -4.990   3.573  0.00  0.00    +0.066 C 
ATOM     20  C   UNL     1       0.609  -7.217   4.523  0.00  0.00    +0.238 C 
ATOM     21  O   UNL     1      -0.489  -7.455   4.979  0.00  0.00    -0.274 OA
ATOM     22  N   UNL     1       1.689  -7.729   5.129  0.00  0.00    -0.239 N 
ATOM     23  C   UNL     1       2.932  -7.502   4.676  0.00  0.00    +0.315 C 
ATOM     24  O   UNL     1       3.875  -7.994   5.262  0.00  0.00    -0.252 OA
ATOM     25  N   UNL     1       3.157  -6.746   3.591  0.00  0.00    -0.224 N 
ATOM     26  C   UNL     1       2.158  -6.179   2.901  0.00  0.00    +0.240 C 
ATOM     27  O   UNL     1       2.423  -5.503   1.931  0.00  0.00    -0.274 OA
ATOM     28  H   UNL     1       1.569  -8.278   5.919  0.00  0.00    +0.159 HD
ENDROOT
BRANCH  25  29
ATOM     29  C   UNL     1       4.537  -6.532   3.148  0.00  0.00    +0.122 C 
BRANCH  29  30
ATOM     30  C   UNL     1       4.930  -7.631   2.158  0.00  0.00    +0.054 C 
BRANCH  30  31
ATOM     31  C   UNL     1       6.350  -7.411   1.702  0.00  0.00    -0.046 A 
ATOM     32  C   UNL     1       6.606  -6.631   0.590  0.00  0.00    +0.004 A 
ATOM     33  C   UNL     1       7.908  -6.429   0.172  0.00  0.00    +0.000 A 
ATOM     34  C   UNL     1       8.954  -7.008   0.866  0.00  0.00    +0.000 A 
ATOM     35  C   UNL     1       8.698  -7.788   1.979  0.00  0.00    +0.000 A 
ATOM     36  C   UNL     1       7.396  -7.986   2.399  0.00  0.00    +0.004 A 
ENDBRANCH  30  31
ENDBRANCH  29  30
ENDBRANCH  25  29
TORSDOF 3
