REMARK  Name = ZINC05102440
REMARK  5 active torsions:
REMARK  status: ('A' for Active; 'I' for Inactive)
REMARK    1  A    between atoms: C_1  and  C_2
REMARK    2  A    between atoms: N_7  and  C_8
REMARK    3  A    between atoms: C_8  and  C_10
REMARK    4  A    between atoms: C_8  and  C_17
REMARK    5  A    between atoms: C_26  and  O_27
REMARK                            x       y       z     vdW  Elec       q    Type
REMARK                         _______ _______ _______ _____ _____    ______ ____
ROOT
ATOM      1  C   UNL     1      -0.465   2.912   5.830  0.00  0.00    +0.136 C 
ENDROOT
BRANCH   1   8
ATOM      2  C   UNL     1      -0.357   2.185  -0.244  0.00  0.00    +0.063 C 
ATOM      3  C   UNL     1      -0.992   2.394   1.107  0.00  0.00    +0.014 A 
ATOM      4  C   UNL     1      -2.364   2.517   1.203  0.00  0.00    +0.021 A 
ATOM      5  C   UNL     1      -2.943   2.704   2.451  0.00  0.00    +0.005 A 
ATOM      6  C   UNL     1      -2.118   2.772   3.559  0.00  0.00    +0.041 A 
ATOM      7  C   UNL     1      -0.744   2.645   3.388  0.00  0.00    +0.097 A 
ATOM      8  N   UNL     1       0.098   2.710   4.492  0.00  0.00    -0.320 N 
ATOM      9  H   UNL     1       1.057   2.621   4.378  0.00  0.00    +0.148 HD
ATOM     10  N   UNL     1      -0.151   2.455   2.173  0.00  0.00    -0.347 N 
ATOM     11  H   UNL     1       0.867   2.364   2.071  0.00  0.00    +0.167 HD
ENDBRANCH   1   8
BRANCH   1  12
ATOM     12  C   UNL     1       0.579   3.528   6.726  0.00  0.00    +0.021 A 
ATOM     13  C   UNL     1       1.927   3.297   6.467  0.00  0.00    +0.010 A 
ATOM     14  C   UNL     1       2.895   3.843   7.254  0.00  0.00    +0.010 A 
ATOM     15  C   UNL     1       2.532   4.642   8.351  0.00  0.00    +0.004 A 
ATOM     16  C   UNL     1       3.504   5.219   9.190  0.00  0.00    +0.011 A 
ATOM     17  C   UNL     1       3.077   5.985  10.238  0.00  0.00    +0.020 A 
ATOM     18  C   UNL     1       1.713   6.176  10.449  0.00  0.00    +0.111 A 
ATOM     19  N   UNL     1       0.812   5.637   9.665  0.00  0.00    -0.251 NA
ATOM     20  C   UNL     1       1.162   4.877   8.623  0.00  0.00    +0.113 A 
ATOM     21  C   UNL     1       0.188   4.299   7.782  0.00  0.00    +0.148 A 
BRANCH  21  22
ATOM     22  O   UNL     1      -1.133   4.509   8.023  0.00  0.00    -0.504 OA
ATOM     23  H   UNL     1      -1.535   3.853   8.609  0.00  0.00    +0.292 HD
ENDBRANCH  21  22
ENDBRANCH   1  12
BRANCH   1  24
ATOM     24  C   UNL     1      -0.896   1.585   6.399  0.00  0.00    -0.021 A 
ATOM     25  C   UNL     1      -2.073   1.491   7.119  0.00  0.00    +0.006 A 
ATOM     26  C   UNL     1      -2.469   0.274   7.641  0.00  0.00    +0.002 A 
ATOM     27  C   UNL     1      -1.688  -0.850   7.445  0.00  0.00    +0.020 A 
ATOM     28  C   UNL     1      -0.510  -0.756   6.726  0.00  0.00    +0.041 A 
ATOM     29  C   UNL     1      -0.117   0.461   6.198  0.00  0.00    +0.025 A 
ATOM     30 CL   UNL     1       0.471  -2.167   6.480  0.00  0.00    -0.084 Cl
ENDBRANCH   1  24
TORSDOF 4
