REMARK  Name = ZINC13153452
REMARK  4 active torsions:
REMARK  status: ('A' for Active; 'I' for Inactive)
REMARK    1  A    between atoms: C_1  and  C_2
REMARK    2  A    between atoms: C_4  and  C_28
REMARK    3  A    between atoms: C_9  and  C_13
REMARK    4  A    between atoms: C_20  and  C_26
REMARK                            x       y       z     vdW  Elec       q    Type
REMARK                         _______ _______ _______ _____ _____    ______ ____
ROOT
ATOM      1  C   UNL     1      -1.681   1.105  -1.977  0.00  0.00    +0.018 C 
ATOM      2  C   UNL     1      -2.883   1.592  -1.164  0.00  0.00    +0.080 C 
ATOM      3  C   UNL     1      -2.565   1.483   0.337  0.00  0.00    +0.152 C 
ATOM      4  N   UNL     1      -3.578   2.265   1.057  0.00  0.00    -0.284 N 
ATOM      5  C   UNL     1      -3.803   3.709   0.766  0.00  0.00    +0.123 C 
ATOM      6  C   UNL     1      -4.218   3.791  -0.708  0.00  0.00    +0.076 C 
ATOM      7  C   UNL     1      -3.175   3.034  -1.509  0.00  0.00    +0.143 C 
ATOM      8  O   UNL     1      -2.585   3.577  -2.412  0.00  0.00    -0.297 OA
ATOM      9  C   UNL     1      -4.259   5.253  -1.158  0.00  0.00    +0.017 C 
ATOM     10  C   UNL     1      -4.868   4.140   1.714  0.00  0.00    +0.119 C 
ATOM     11  C   UNL     1      -5.939   5.125   1.402  0.00  0.00    +0.008 C 
ATOM     12  C   UNL     1      -6.477   5.402   2.596  0.00  0.00    +0.004 C 
ATOM     13  C   UNL     1      -5.693   4.608   3.646  0.00  0.00    +0.157 C 
ATOM     14  O   UNL     1      -4.365   4.573   3.010  0.00  0.00    -0.359 OA
ATOM     15  C   UNL     1      -6.115   3.095   3.487  0.00  0.00    +0.150 C 
ATOM     16  C   UNL     1      -5.581   2.786   2.080  0.00  0.00    +0.129 C 
ATOM     17  C   UNL     1      -4.418   1.836   2.022  0.00  0.00    +0.224 C 
ATOM     18  O   UNL     1      -4.262   0.856   2.720  0.00  0.00    -0.275 OA
ENDROOT
BRANCH   3  19
ATOM     19  C   UNL     1      -1.194   2.043   0.612  0.00  0.00    +0.126 A 
ATOM     20  C   UNL     1      -0.076   1.323   0.817  0.00  0.00    +0.046 A 
ATOM     21  C   UNL     1       0.973   2.246   1.030  0.00  0.00    +0.041 A 
ATOM     22  C   UNL     1       0.433   3.475   0.948  0.00  0.00    +0.195 A 
ATOM     23  O   UNL     1      -0.880   3.346   0.697  0.00  0.00    -0.466 OA
ENDBRANCH   3  19
BRANCH  15  24
ATOM     24  C   UNL     1      -7.612   2.936   3.543  0.00  0.00    +0.363 C 
ATOM     25  O   UNL     1      -8.222   2.605   2.554  0.00  0.00    -0.246 OA
ATOM     26  O   UNL     1      -8.269   3.162   4.692  0.00  0.00    -0.246 OA
ENDBRANCH  15  24
TORSDOF 2
