REMARK  Name = ZINC04183834
REMARK  6 active torsions:
REMARK  status: ('A' for Active; 'I' for Inactive)
REMARK    1  A    between atoms: C_4  and  C_7
REMARK    2  A    between atoms: C_7  and  C_9
REMARK    3  A    between atoms: C_11  and  C_23
REMARK    4  A    between atoms: C_17  and  C_18
REMARK    5  A    between atoms: C_17  and  O_22
REMARK    6  A    between atoms: C_26  and  O_29
REMARK                            x       y       z     vdW  Elec       q    Type
REMARK                         _______ _______ _______ _____ _____    ______ ____
ROOT
ATOM      1  C   UNL     1       0.339   2.480   0.954  0.00  0.00    +0.144 C 
ATOM      2  C   UNL     1       1.859   2.292   0.993  0.00  0.00    +0.120 C 
ATOM      3  N   UNL     1       2.211   1.073   0.262  0.00  0.00    -0.292 N 
ATOM      4  C   UNL     1       1.462   0.631  -0.759  0.00  0.00    +0.302 C 
ATOM      5  O   UNL     1       1.807  -0.378  -1.342  0.00  0.00    -0.253 OA
ATOM      6  N   UNL     1       0.344   1.256  -1.159  0.00  0.00    -0.264 N 
ATOM      7  C   UNL     1      -0.115   2.485  -0.510  0.00  0.00    +0.243 C 
ATOM      8  H   UNL     1       3.004   0.578   0.519  0.00  0.00    +0.151 HD
ATOM      9  H   UNL     1      -0.169   0.887  -1.895  0.00  0.00    +0.153 HD
ENDROOT
BRANCH   2  10
ATOM     10  C   UNL     1       2.315   2.171   2.424  0.00  0.00    -0.026 A 
ATOM     11  C   UNL     1       2.776   3.286   3.099  0.00  0.00    +0.009 A 
ATOM     12  C   UNL     1       3.189   3.179   4.412  0.00  0.00    +0.046 A 
ATOM     13  C   UNL     1       3.152   1.948   5.051  0.00  0.00    +0.117 A 
ATOM     14  C   UNL     1       2.694   0.829   4.371  0.00  0.00    +0.046 A 
ATOM     15  C   UNL     1       2.277   0.943   3.059  0.00  0.00    +0.009 A 
BRANCH  13  16
ATOM     16  O   UNL     1       3.563   1.839   6.342  0.00  0.00    -0.507 OA
ATOM     17  H   UNL     1       4.504   1.639   6.440  0.00  0.00    +0.292 HD
ENDBRANCH  13  16
ENDBRANCH   2  10
BRANCH   7  18
ATOM     18  C   UNL     1       0.484   3.696  -1.227  0.00  0.00    +0.436 C 
ATOM     19  F   UNL     1       1.880   3.627  -1.172  0.00  0.00    -0.166 F 
ATOM     20  F   UNL     1       0.069   3.699  -2.563  0.00  0.00    -0.166 F 
ATOM     21  F   UNL     1       0.051   4.870  -0.601  0.00  0.00    -0.166 F 
ENDBRANCH   7  18
BRANCH   1  22
ATOM     22  C   UNL     1      -0.331   1.347   1.688  0.00  0.00    +0.173 C 
ATOM     23  O   UNL     1      -0.530   0.293   1.123  0.00  0.00    -0.292 OA
BRANCH  22  27
ATOM     24  C   UNL     1      -1.515   1.843   5.730  0.00  0.00    +0.000 A 
ATOM     25  C   UNL     1      -1.745   0.639   5.089  0.00  0.00    +0.001 A 
ATOM     26  C   UNL     1      -1.363   0.469   3.775  0.00  0.00    +0.011 A 
ATOM     27  C   UNL     1      -0.742   1.519   3.090  0.00  0.00    +0.018 A 
ATOM     28  C   UNL     1      -0.508   2.731   3.747  0.00  0.00    +0.011 A 
ATOM     29  C   UNL     1      -0.901   2.887   5.060  0.00  0.00    +0.001 A 
ENDBRANCH  22  27
ENDBRANCH   1  22
BRANCH   7  30
ATOM     30  O   UNL     1      -1.541   2.553  -0.567  0.00  0.00    -0.364 OA
ATOM     31  H   UNL     1      -1.899   2.559  -1.466  0.00  0.00    +0.212 HD
ENDBRANCH   7  30
TORSDOF 6
