REMARK  Name = ZINC17397734
REMARK  9 active torsions:
REMARK  status: ('A' for Active; 'I' for Inactive)
REMARK    1  A    between atoms: C_1  and  C_2
REMARK    2  A    between atoms: C_2  and  C_3
REMARK    3  A    between atoms: C_3  and  C_4
REMARK    4  A    between atoms: C_4  and  C_5
REMARK    5  A    between atoms: C_5  and  N_6
REMARK    6  A    between atoms: C_15  and  C_17
REMARK    7  A    between atoms: N_19  and  N_20
REMARK    8  A    between atoms: C_21  and  C_23
REMARK    9  A    between atoms: N_28  and  C_30
REMARK                            x       y       z     vdW  Elec       q    Type
REMARK                         _______ _______ _______ _____ _____    ______ ____
ROOT
ATOM      1  C   UNL     1      -1.156  -0.694   0.009  0.00  0.00    +0.281 C 
ATOM      2  O   UNL     1      -2.217  -0.100   0.023  0.00  0.00    -0.267 OA
ATOM      3  N   UNL     1       0.002  -0.004   0.002  0.00  0.00    -0.229 N 
ATOM      4  H   UNL     1       0.849  -0.478  -0.009  0.00  0.00    +0.173 HD
ENDROOT
BRANCH   1  14
ATOM      5  N   UNL     1       0.107  -4.093  -0.022  0.00  0.00    -0.228 N 
ATOM      6  C   UNL     1      -0.953  -4.926  -0.016  0.00  0.00    +0.275 A 
ATOM      7  O   UNL     1      -0.797  -6.133  -0.024  0.00  0.00    -0.266 OA
ATOM      8  C   UNL     1      -2.302  -4.343   0.000  0.00  0.00    +0.050 A 
ATOM      9  C   UNL     1      -3.459  -5.115   0.006  0.00  0.00    +0.014 A 
ATOM     10  C   UNL     1      -4.688  -4.490   0.021  0.00  0.00    +0.001 A 
ATOM     11  C   UNL     1      -4.780  -3.104   0.031  0.00  0.00    +0.001 A 
ATOM     12  C   UNL     1      -3.645  -2.322   0.024  0.00  0.00    +0.011 A 
ATOM     13  C   UNL     1      -2.395  -2.932   0.009  0.00  0.00    +0.020 A 
ATOM     14  C   UNL     1      -1.136  -2.170   0.001  0.00  0.00    +0.155 A 
ATOM     15  N   UNL     1       0.004  -2.818  -0.019  0.00  0.00    -0.163 NA
BRANCH   5  16
ATOM     16  C   UNL     1       1.450  -4.679  -0.038  0.00  0.00    +0.147 C 
BRANCH  16  17
ATOM     17  C   UNL     1       1.903  -4.875  -1.486  0.00  0.00    +0.023 C 
BRANCH  17  18
ATOM     18  C   UNL     1       3.305  -5.488  -1.504  0.00  0.00    +0.002 C 
BRANCH  18  20
ATOM     19  C   UNL     1       5.160  -6.296  -2.969  0.00  0.00    +0.004 C 
ATOM     20  C   UNL     1       3.758  -5.684  -2.952  0.00  0.00    -0.003 C 
ENDBRANCH  18  20
ENDBRANCH  17  18
ENDBRANCH  16  17
ENDBRANCH   5  16
ENDBRANCH   1  14
BRANCH   3  21
ATOM     21  N   UNL     1      -0.017   1.397   0.010  0.00  0.00    -0.234 N 
ATOM     22  C   UNL     1       1.141   2.087   0.002  0.00  0.00    +0.234 C 
ATOM     23  O   UNL     1       2.199   1.494  -0.011  0.00  0.00    -0.274 OA
ATOM     24  H   UNL     1      -0.864   1.870   0.016  0.00  0.00    +0.173 HD
BRANCH  22  25
ATOM     25  C   UNL     1       1.121   3.593   0.011  0.00  0.00    +0.103 C 
ATOM     26  C   UNL     1       0.551   4.146  -1.316  0.00  0.00    +0.110 C 
ATOM     27  C   UNL     1       1.377   5.384  -1.587  0.00  0.00    +0.221 C 
ATOM     28  O   UNL     1       1.078   6.261  -2.371  0.00  0.00    -0.275 OA
ATOM     29  N   UNL     1       2.490   5.372  -0.834  0.00  0.00    -0.269 N 
ATOM     30  C   UNL     1       2.555   4.166   0.000  0.00  0.00    +0.127 C 
BRANCH  29  31
ATOM     31  C   UNL     1       3.461   6.379  -0.843  0.00  0.00    +0.055 A 
ATOM     32  C   UNL     1       4.534   6.303  -1.721  0.00  0.00    +0.025 A 
ATOM     33  C   UNL     1       5.489   7.301  -1.731  0.00  0.00    +0.002 A 
ATOM     34  C   UNL     1       5.383   8.371  -0.861  0.00  0.00    +0.002 A 
ATOM     35  C   UNL     1       4.319   8.448   0.018  0.00  0.00    +0.022 A 
ATOM     36  C   UNL     1       3.357   7.455   0.030  0.00  0.00    +0.062 A 
ATOM     37 CL   UNL     1       2.022   7.552   1.135  0.00  0.00    -0.082 Cl
ENDBRANCH  29  31
ENDBRANCH  22  25
ENDBRANCH   3  21
TORSDOF 8
