REMARK  Name = ZINC23462718
REMARK  8 active torsions:
REMARK  status: ('A' for Active; 'I' for Inactive)
REMARK    1  A    between atoms: C_1  and  C_2
REMARK    2  A    between atoms: C_7  and  N_8
REMARK    3  A    between atoms: C_9  and  C_30
REMARK    4  A    between atoms: C_12  and  S_13
REMARK    5  A    between atoms: S_13  and  C_14
REMARK    6  A    between atoms: C_14  and  C_15
REMARK    7  A    between atoms: C_17  and  O_18
REMARK    8  A    between atoms: C_27  and  C_29
REMARK                            x       y       z     vdW  Elec       q    Type
REMARK                         _______ _______ _______ _____ _____    ______ ____
ROOT
ATOM      1  C   UNL     1       5.278   0.852   3.898  0.00  0.00    -0.020 A 
ATOM      2  C   UNL     1       5.899  -0.381   3.924  0.00  0.00    +0.092 A 
ATOM      3  C   UNL     1       7.216  -0.500   3.503  0.00  0.00    +0.285 A 
ATOM      4  O   UNL     1       7.907   0.558   3.067  0.00  0.00    -0.425 OA
ATOM      5  C   UNL     1       7.348   1.785   3.021  0.00  0.00    +0.141 A 
ATOM      6  C   UNL     1       6.008   1.965   3.432  0.00  0.00    +0.022 A 
ATOM      7  C   UNL     1       5.421   3.242   3.380  0.00  0.00    +0.013 A 
ATOM      8  C   UNL     1       6.141   4.302   2.929  0.00  0.00    +0.024 A 
ATOM      9  C   UNL     1       7.473   4.131   2.512  0.00  0.00    +0.037 A 
ATOM     10  C   UNL     1       8.074   2.873   2.568  0.00  0.00    +0.070 A 
ATOM     11  N   UNL     1       8.183   5.202   2.062  0.00  0.00    -0.286 N 
ATOM     12  C   UNL     1       9.298   5.014   1.383  0.00  0.00    +0.214 C 
ATOM     13  O   UNL     1       9.629   3.889   1.053  0.00  0.00    -0.276 OA
ATOM     14  C   UNL     1      10.163   6.192   1.015  0.00  0.00    +0.109 C 
ATOM     15  H   UNL     1       7.870   6.102   2.241  0.00  0.00    +0.155 HD
ENDROOT
BRANCH   3  16
ATOM     16  O   UNL     1       7.811  -1.708   3.533  0.00  0.00    -0.480 OA
ATOM     17  H   UNL     1       8.727  -1.704   3.223  0.00  0.00    +0.295 HD
ENDBRANCH   3  16
BRANCH   1  18
ATOM     18  C   UNL     1       3.849   1.003   4.351  0.00  0.00    +0.113 C 
BRANCH  18  19
ATOM     19  S   UNL     1       2.738   0.329   3.085  0.00  0.00    -0.081 S 
BRANCH  19  24
ATOM     20  N   UNL     1      -0.059   0.232   3.169  0.00  0.00    -0.274 N 
ATOM     21  C   UNL     1      -1.033   0.610   4.055  0.00  0.00    +0.135 A 
ATOM     22  N   UNL     1      -0.435   1.144   5.082  0.00  0.00    -0.133 NA
ATOM     23  N   UNL     1       0.839   1.131   4.909  0.00  0.00    -0.122 NA
ATOM     24  C   UNL     1       1.127   0.577   3.755  0.00  0.00    +0.196 A 
ATOM     25  C   UNL     1      -2.519   0.440   3.876  0.00  0.00    +0.088 C 
BRANCH  20  32
ATOM     26  C   UNL     1      -0.347   1.889   0.873  0.00  0.00    +0.046 C 
ATOM     27  C   UNL     1      -0.386   0.385   0.778  0.00  0.00    -0.027 A 
ATOM     28  C   UNL     1      -0.559  -0.226  -0.448  0.00  0.00    +0.005 A 
ATOM     29  C   UNL     1      -0.595  -1.606  -0.535  0.00  0.00    +0.000 A 
ATOM     30  C   UNL     1      -0.458  -2.377   0.604  0.00  0.00    +0.002 A 
ATOM     31  C   UNL     1      -0.284  -1.771   1.833  0.00  0.00    +0.026 A 
ATOM     32  C   UNL     1      -0.242  -0.386   1.923  0.00  0.00    +0.053 A 
ENDBRANCH  20  32
ENDBRANCH  19  24
ENDBRANCH  18  19
ENDBRANCH   1  18
TORSDOF 5
