REMARK  Name = ZINC67129403
REMARK  7 active torsions:
REMARK  status: ('A' for Active; 'I' for Inactive)
REMARK    1  A    between atoms: C_1  and  N_2
REMARK    2  A    between atoms: N_2  and  C_3
REMARK    3  A    between atoms: C_3  and  C_4
REMARK    4  A    between atoms: C_11  and  C_13
REMARK    5  A    between atoms: C_13  and  N_14
REMARK    6  A    between atoms: C_16  and  O_24
REMARK    7  A    between atoms: C_19  and  C_21
REMARK                            x       y       z     vdW  Elec       q    Type
REMARK                         _______ _______ _______ _____ _____    ______ ____
ROOT
ATOM      1  C   UNL     1       0.001   0.139  -2.470  0.00  0.00    +0.020 C 
ENDROOT
BRANCH   1   2
ATOM      2  N   UNL     1      -0.067  -0.786  -3.609  0.00  0.00    +0.395 N 
ATOM      3  C   UNL     1      -1.418  -1.399  -3.691  0.00  0.00    -0.045 C 
ATOM      4  C   UNL     1      -1.511  -1.856  -5.169  0.00  0.00    +0.097 C 
ATOM      5  C   UNL     1      -0.786  -0.721  -5.928  0.00  0.00    +0.023 C 
ATOM      6  C   UNL     1       0.118  -0.048  -4.878  0.00  0.00    +0.022 C 
ATOM      7  H   UNL     1       0.636  -1.504  -3.518  0.00  0.00    -0.080 HD
BRANCH   6   8
ATOM      8  C   UNL     1       1.558  -0.129  -5.313  0.00  0.00    +0.197 C 
ATOM      9  O   UNL     1       2.362  -0.740  -4.640  0.00  0.00    -0.278 OA
ATOM     10  N   UNL     1       1.953   0.477  -6.450  0.00  0.00    -0.331 N 
ATOM     11  H   UNL     1       1.311   0.965  -6.988  0.00  0.00    +0.145 HD
ATOM     12  H   UNL     1       2.881   0.424  -6.731  0.00  0.00    +0.145 HD
ENDBRANCH   6   8
BRANCH   4  13
ATOM     13  O   UNL     1      -2.876  -1.954  -5.582  0.00  0.00    -0.394 OA
ATOM     14  H   UNL     1      -2.989  -2.237  -6.500  0.00  0.00    +0.210 HD
ENDBRANCH   4  13
ENDBRANCH   1   2
BRANCH   1  17
ATOM     15  C   UNL     1      -0.018   1.466   0.036  0.00  0.00    +0.132 C 
ATOM     16  N   UNL     1      -0.021   0.002  -0.001  0.00  0.00    -0.302 N 
ATOM     17  C   UNL     1      -0.066  -0.642  -1.184  0.00  0.00    +0.199 C 
ATOM     18  O   UNL     1      -0.162  -1.851  -1.212  0.00  0.00    -0.278 OA
BRANCH  16  19
ATOM     19  C   UNL     1       0.026  -0.762   1.248  0.00  0.00    +0.143 C 
BRANCH  19  20
ATOM     20  C   UNL     1      -1.369  -0.918   1.795  0.00  0.00    -0.016 A 
ATOM     21  C   UNL     1      -2.452  -0.463   1.066  0.00  0.00    +0.006 A 
ATOM     22  C   UNL     1      -3.732  -0.606   1.567  0.00  0.00    +0.000 A 
ATOM     23  C   UNL     1      -3.931  -1.204   2.797  0.00  0.00    +0.001 A 
ATOM     24  C   UNL     1      -2.849  -1.660   3.526  0.00  0.00    +0.015 A 
ATOM     25  C   UNL     1      -1.568  -1.522   3.023  0.00  0.00    +0.023 A 
ATOM     26 BR   UNL     1      -0.088  -2.152   4.018  0.00  0.00    -0.050 Br
ENDBRANCH  19  20
ENDBRANCH  16  19
ENDBRANCH   1  17
TORSDOF 6
