REMARK  Name = ZINC11852562
REMARK  15 active torsions:
REMARK  status: ('A' for Active; 'I' for Inactive)
REMARK    1  A    between atoms: C_1  and  C_2
REMARK    2  A    between atoms: C_6  and  C_38
REMARK    3  A    between atoms: C_8  and  O_11
REMARK    4  A    between atoms: O_11  and  P_12
REMARK    5  A    between atoms: P_12  and  C_14
REMARK    6  A    between atoms: P_12  and  O_24
REMARK    7  A    between atoms: C_14  and  C_16
REMARK    8  A    between atoms: C_14  and  O_23
REMARK    9  A    between atoms: O_24  and  C_25
REMARK   10  A    between atoms: C_28  and  C_37
REMARK   11  A    between atoms: C_32  and  C_34
REMARK   12  A    between atoms: C_34  and  C_35
REMARK   13  A    between atoms: C_34  and  C_36
REMARK   14  A    between atoms: C_38  and  C_39
REMARK   15  A    between atoms: C_38  and  C_40
REMARK                            x       y       z     vdW  Elec       q    Type
REMARK                         _______ _______ _______ _____ _____    ______ ____
ROOT
ATOM      1  P   UNL     1       2.371  -2.979  -1.479  0.00  0.00    +0.366 P 
ATOM      2  O   UNL     1       2.644  -4.433  -1.413  0.00  0.00    -0.255 OA
ENDROOT
BRANCH   1   3
ATOM      3  O   UNL     1       3.710  -2.164  -1.113  0.00  0.00    -0.302 OA
BRANCH   3   9
ATOM      4  C   UNL     1       6.628  -2.218  -4.178  0.00  0.00    +0.007 C 
ATOM      5  C   UNL     1       6.836  -1.270  -2.995  0.00  0.00    -0.012 C 
ATOM      6  C   UNL     1       7.836  -1.888  -2.016  0.00  0.00    +0.004 C 
ATOM      7  C   UNL     1       7.293  -3.225  -1.508  0.00  0.00    +0.006 C 
ATOM      8  C   UNL     1       5.957  -2.996  -0.797  0.00  0.00    +0.021 C 
ATOM      9  C   UNL     1       4.957  -2.378  -1.777  0.00  0.00    +0.132 C 
ATOM     10  C   UNL     1       5.501  -1.041  -2.284  0.00  0.00    +0.035 C 
BRANCH   8  11
ATOM     11  C   UNL     1       5.414  -4.333  -0.290  0.00  0.00    -0.012 C 
ATOM     12  C   UNL     1       5.348  -5.330  -1.449  0.00  0.00    +0.007 C 
ATOM     13  C   UNL     1       6.339  -4.879   0.800  0.00  0.00    +0.007 C 
ENDBRANCH   8  11
ENDBRANCH   3   9
ENDBRANCH   1   3
BRANCH   1  14
ATOM     14  C   UNL     1       1.056  -2.554  -0.289  0.00  0.00    +0.261 C 
BRANCH  14  15
ATOM     15  C   UNL     1       1.023  -1.060  -0.091  0.00  0.00    +0.028 A 
ATOM     16  C   UNL     1       1.547  -0.504   1.060  0.00  0.00    +0.009 A 
ATOM     17  C   UNL     1       1.516   0.866   1.243  0.00  0.00    +0.001 A 
ATOM     18  C   UNL     1       0.960   1.681   0.274  0.00  0.00    +0.003 A 
ATOM     19  C   UNL     1       0.435   1.127  -0.878  0.00  0.00    +0.039 A 
ATOM     20  C   UNL     1       0.466  -0.245  -1.062  0.00  0.00    +0.130 A 
ATOM     21  F   UNL     1      -0.046  -0.788  -2.188  0.00  0.00    -0.205 F 
ENDBRANCH  14  15
BRANCH  14  22
ATOM     22  O   UNL     1       1.319  -3.195   0.961  0.00  0.00    -0.375 OA
ATOM     23  H   UNL     1       2.161  -2.941   1.363  0.00  0.00    +0.211 HD
ENDBRANCH  14  22
ENDBRANCH   1  14
BRANCH   1  24
ATOM     24  O   UNL     1       1.895  -2.590  -2.967  0.00  0.00    -0.302 OA
BRANCH  24  25
ATOM     25  C   UNL     1       2.634  -2.944  -4.138  0.00  0.00    +0.132 C 
ATOM     26  C   UNL     1       3.099  -1.673  -4.851  0.00  0.00    +0.035 C 
ATOM     27  C   UNL     1       1.881  -0.837  -5.250  0.00  0.00    -0.012 C 
ATOM     28  C   UNL     1       0.989  -1.651  -6.188  0.00  0.00    +0.004 C 
ATOM     29  C   UNL     1       0.523  -2.922  -5.475  0.00  0.00    +0.006 C 
ATOM     30  C   UNL     1       1.742  -3.758  -5.077  0.00  0.00    +0.021 C 
ATOM     31  C   UNL     1       2.346   0.434  -5.963  0.00  0.00    +0.007 C 
BRANCH  30  32
ATOM     32  C   UNL     1       1.277  -5.029  -4.363  0.00  0.00    -0.012 C 
ATOM     33  C   UNL     1       0.385  -5.844  -5.302  0.00  0.00    +0.007 C 
ATOM     34  C   UNL     1       2.495  -5.865  -3.965  0.00  0.00    +0.007 C 
ENDBRANCH  30  32
ENDBRANCH  24  25
ENDBRANCH   1  24
TORSDOF 9
