REMARK  Name = ZINC20681515
REMARK  3 active torsions:
REMARK  status: ('A' for Active; 'I' for Inactive)
REMARK    1  A    between atoms: C_3  and  C_9
REMARK    2  A    between atoms: C_4  and  O_8
REMARK    3  A    between atoms: C_6  and  O_7
REMARK                            x       y       z     vdW  Elec       q    Type
REMARK                         _______ _______ _______ _____ _____    ______ ____
ROOT
ATOM      1  C   UNL     1       3.692   1.791  -0.035  0.00  0.00    +0.108 C 
ATOM      2  C   UNL     1       3.463   3.085  -0.796  0.00  0.00    +0.029 C 
ATOM      3  C   UNL     1       4.601   4.115  -0.783  0.00  0.00    +0.033 C 
ATOM      4  C   UNL     1       3.828   5.428  -0.921  0.00  0.00    -0.030 C 
ATOM      5  C   UNL     1       2.594   5.281  -0.454  0.00  0.00    -0.023 C 
ATOM      6  C   UNL     1       2.444   3.896   0.059  0.00  0.00    +0.049 C 
ATOM      7  C   UNL     1       1.149   3.182   0.022  0.00  0.00    -0.018 A 
ATOM      8  C   UNL     1      -0.060   3.843   0.028  0.00  0.00    +0.020 A 
ATOM      9  C   UNL     1      -1.245   3.129   0.029  0.00  0.00    +0.014 A 
ATOM     10  C   UNL     1      -1.218   1.746   0.017  0.00  0.00    +0.016 A 
ATOM     11  C   UNL     1      -0.013   1.076   0.008  0.00  0.00    +0.024 A 
ATOM     12  C   UNL     1       1.183   1.784   0.000  0.00  0.00    +0.031 A 
ATOM     13  N   UNL     1       2.394   1.082  -0.051  0.00  0.00    -0.336 N 
ATOM     14  I   UNL     1      -3.079   4.142   0.038  0.00  0.00    -0.044 I 
ATOM     15  H   UNL     1       2.368  -0.016  -0.103  0.00  0.00    +0.147 HD
ENDROOT
BRANCH   1  18
ATOM     16  C   UNL     1       5.339  -0.785  -2.248  0.00  0.00    +0.046 A 
ATOM     17  C   UNL     1       4.375  -0.028  -1.612  0.00  0.00    +0.012 A 
ATOM     18  C   UNL     1       4.747   0.963  -0.723  0.00  0.00    +0.015 A 
ATOM     19  C   UNL     1       6.090   1.191  -0.458  0.00  0.00    +0.125 A 
ATOM     20  C   UNL     1       7.059   0.428  -1.092  0.00  0.00    +0.091 A 
ATOM     21  C   UNL     1       6.683  -0.561  -1.988  0.00  0.00    +0.120 A 
BRANCH  21  22
ATOM     22  O   UNL     1       7.631  -1.310  -2.610  0.00  0.00    -0.507 OA
ATOM     23  H   UNL     1       8.696  -1.132  -2.403  0.00  0.00    +0.292 HD
ENDBRANCH  21  22
BRANCH  19  24
ATOM     24  O   UNL     1       6.455   2.161   0.420  0.00  0.00    -0.506 OA
ATOM     25  H   UNL     1       7.520   2.342   0.629  0.00  0.00    +0.292 HD
ENDBRANCH  19  24
ENDBRANCH   1  18
TORSDOF 3
