REMARK  Name = ZINC39888016
REMARK  7 active torsions:
REMARK  status: ('A' for Active; 'I' for Inactive)
REMARK    1  A    between atoms: C_1  and  O_2
REMARK    2  A    between atoms: O_2  and  C_3
REMARK    3  A    between atoms: C_5  and  C_10
REMARK    4  A    between atoms: C_8  and  O_9
REMARK    5  A    between atoms: N_11  and  N_12
REMARK    6  A    between atoms: C_17  and  C_20
REMARK    7  A    between atoms: C_20  and  C_21
REMARK                            x       y       z     vdW  Elec       q    Type
REMARK                         _______ _______ _______ _____ _____    ______ ____
ROOT
ATOM      1  N   UNL     1      -7.101   0.292   0.054  0.00  0.00    -0.127 NA
ATOM      2  C   UNL     1      -8.262  -0.327   0.062  0.00  0.00    +0.183 C 
ATOM      3  N   UNL     1      -8.504  -1.685   0.067  0.00  0.00    -0.263 N 
ATOM      4  C   UNL     1      -9.727  -2.188   0.075  0.00  0.00    +0.232 C 
ATOM      5  O   UNL     1      -9.931  -3.383   0.079  0.00  0.00    -0.274 OA
ATOM      6  C   UNL     1     -10.860  -1.174   0.078  0.00  0.00    +0.144 C 
ATOM      7  S   UNL     1      -9.897   0.395   0.075  0.00  0.00    -0.075 S 
ATOM      8  H   UNL     1      -7.749  -2.293   0.065  0.00  0.00    +0.157 HD
ENDROOT
BRANCH   1  10
ATOM      9  C   UNL     1      -4.854   0.223   0.038  0.00  0.00    +0.143 C 
ATOM     10  N   UNL     1      -6.006  -0.391   0.045  0.00  0.00    -0.155 NA
BRANCH   9  13
ATOM     11  C   UNL     1      -1.201  -0.638   0.010  0.00  0.00    +0.162 A 
ATOM     12  C   UNL     1      -2.370   0.099   0.019  0.00  0.00    +0.059 A 
ATOM     13  C   UNL     1      -3.606  -0.556   0.027  0.00  0.00    -0.002 A 
ATOM     14  C   UNL     1      -3.651  -1.954   0.026  0.00  0.00    +0.013 A 
ATOM     15  C   UNL     1      -2.480  -2.681   0.016  0.00  0.00    +0.050 A 
ATOM     16  C   UNL     1      -1.255  -2.030   0.003  0.00  0.00    +0.158 A 
BRANCH  11  18
ATOM     17  C   UNL     1      -0.017   1.425   0.010  0.00  0.00    +0.277 C 
ATOM     18  O   UNL     1       0.002  -0.004   0.002  0.00  0.00    -0.491 OA
ENDBRANCH  11  18
BRANCH  16  19
ATOM     19  O   UNL     1      -0.103  -2.753  -0.011  0.00  0.00    -0.503 OA
ATOM     20  H   UNL     1       0.238  -2.967   0.868  0.00  0.00    +0.292 HD
ENDBRANCH  16  19
ENDBRANCH   9  13
ENDBRANCH   1  10
BRANCH   6  21
ATOM     21  C   UNL     1     -11.723  -1.304  -1.179  0.00  0.00    +0.060 C 
BRANCH  21  22
ATOM     22  C   UNL     1     -12.900  -0.368  -1.078  0.00  0.00    -0.026 A 
ATOM     23  C   UNL     1     -14.110  -0.830  -0.593  0.00  0.00    +0.025 A 
ATOM     24  C   UNL     1     -15.191   0.029  -0.501  0.00  0.00    +0.041 A 
ATOM     25  C   UNL     1     -15.061   1.349  -0.894  0.00  0.00    +0.021 A 
ATOM     26  C   UNL     1     -13.852   1.810  -1.378  0.00  0.00    +0.022 A 
ATOM     27  C   UNL     1     -12.769   0.953  -1.466  0.00  0.00    +0.044 A 
ATOM     28 CL   UNL     1     -11.248   1.534  -2.068  0.00  0.00    -0.083 Cl
ATOM     29 CL   UNL     1     -16.710  -0.550   0.108  0.00  0.00    -0.084 Cl
ENDBRANCH  21  22
ENDBRANCH   6  21
TORSDOF 6
