REMARK  Name = ZINC47914301
REMARK  10 active torsions:
REMARK  status: ('A' for Active; 'I' for Inactive)
REMARK    1  A    between atoms: C_1  and  O_2
REMARK    2  A    between atoms: O_2  and  C_3
REMARK    3  A    between atoms: C_8  and  C_9
REMARK    4  A    between atoms: C_9  and  C_10
REMARK    5  A    between atoms: C_9  and  N_23
REMARK    6  A    between atoms: C_10  and  N_11
REMARK    7  A    between atoms: N_14  and  C_15
REMARK    8  A    between atoms: C_15  and  C_16
REMARK    9  A    between atoms: C_16  and  N_17
REMARK   10  A    between atoms: C_18  and  C_20
REMARK                            x       y       z     vdW  Elec       q    Type
REMARK                         _______ _______ _______ _____ _____    ______ ____
ROOT
ATOM      1  C   UNL     1      -1.432  -2.971  -0.414  0.00  0.00    +0.095 C 
ENDROOT
BRANCH   1   2
ATOM      2  N   UNL     1      -1.542  -3.588  -1.738  0.00  0.00    -0.301 N 
ATOM      3  C   UNL     1      -2.750  -3.720  -2.322  0.00  0.00    +0.300 C 
ATOM      4  O   UNL     1      -3.748  -3.326  -1.750  0.00  0.00    -0.253 OA
ATOM      5  N   UNL     1      -2.851  -4.287  -3.541  0.00  0.00    -0.298 N 
ATOM      6  H   UNL     1      -0.746  -3.902  -2.195  0.00  0.00    +0.150 HD
ATOM      7  H   UNL     1      -2.054  -4.600  -3.997  0.00  0.00    +0.150 HD
BRANCH   5   8
ATOM      8  C   UNL     1      -4.163  -4.430  -4.176  0.00  0.00    +0.124 C 
BRANCH   8   9
ATOM      9  C   UNL     1      -3.999  -5.099  -5.542  0.00  0.00    +0.123 C 
BRANCH   9  10
ATOM     10  N   UNL     1      -5.311  -5.242  -6.176  0.00  0.00    -0.314 N 
ATOM     11  C   UNL     1      -5.413  -5.809  -7.395  0.00  0.00    +0.216 C 
ATOM     12  O   UNL     1      -4.417  -6.202  -7.966  0.00  0.00    -0.276 OA
ATOM     13  H   UNL     1      -6.108  -4.928  -5.720  0.00  0.00    +0.149 HD
BRANCH  11  14
ATOM     14  C   UNL     1      -6.763  -5.956  -8.048  0.00  0.00    +0.075 C 
ATOM     15  C   UNL     1      -7.320  -7.372  -8.207  0.00  0.00    +0.013 C 
ATOM     16  C   UNL     1      -6.811  -6.609  -9.431  0.00  0.00    +0.013 C 
ENDBRANCH  11  14
ENDBRANCH   9  10
ENDBRANCH   8   9
ENDBRANCH   5   8
ENDBRANCH   1   2
BRANCH   1  17
ATOM     17  C   UNL     1       0.044  -2.834  -0.036  0.00  0.00    -0.017 C 
BRANCH  17  23
ATOM     18  C   UNL     1       0.664  -0.506  -0.731  0.00  0.00    +0.122 A 
ATOM     19  C   UNL     1       1.289   0.379  -1.598  0.00  0.00    +0.046 A 
ATOM     20  C   UNL     1       1.956  -0.099  -2.708  0.00  0.00    +0.004 A 
ATOM     21  C   UNL     1       2.003  -1.459  -2.956  0.00  0.00    +0.000 A 
ATOM     22  C   UNL     1       1.381  -2.343  -2.094  0.00  0.00    +0.005 A 
ATOM     23  C   UNL     1       0.717  -1.870  -0.979  0.00  0.00    -0.018 A 
BRANCH  18  25
ATOM     24  C   UNL     1      -0.006   1.378   0.555  0.00  0.00    +0.277 C 
ATOM     25  O   UNL     1       0.007  -0.038   0.362  0.00  0.00    -0.495 OA
ENDBRANCH  18  25
ENDBRANCH  17  23
BRANCH  17  26
ATOM     26  N   UNL     1       0.698  -4.147  -0.130  0.00  0.00    +0.385 N 
ATOM     27  C   UNL     1       2.105  -4.053   0.336  0.00  0.00    -0.078 C 
ATOM     28  C   UNL     1       2.452  -5.516   0.710  0.00  0.00    -0.020 C 
ATOM     29  C   UNL     1       1.135  -6.036   1.330  0.00  0.00    -0.020 C 
ATOM     30  C   UNL     1       0.036  -5.112   0.775  0.00  0.00    -0.078 C 
ATOM     31  H   UNL     1       0.667  -4.484  -1.081  0.00  0.00    -0.081 HD
ENDBRANCH  17  26
ENDBRANCH   1  17
TORSDOF 9
