REMARK  Name = ZINC12815271
REMARK  6 active torsions:
REMARK  status: ('A' for Active; 'I' for Inactive)
REMARK    1  A    between atoms: C_4  and  C_7
REMARK    2  A    between atoms: C_18  and  C_20
REMARK    3  A    between atoms: C_20  and  N_64
REMARK    4  A    between atoms: C_23  and  C_26
REMARK    5  A    between atoms: N_28  and  C_29
REMARK    6  A    between atoms: C_34  and  O_35
REMARK                            x       y       z     vdW  Elec       q    Type
REMARK                         _______ _______ _______ _____ _____    ______ ____
ROOT
ATOM      1  C   UNL     1       2.453  -1.397  -2.260  0.00  0.00    +0.019 C 
ENDROOT
BRANCH   1  12
ATOM      2  C   UNL     1       2.608   2.025  -0.632  0.00  0.00    +0.121 C 
ATOM      3  C   UNL     1       2.460   1.996   0.897  0.00  0.00    +0.102 C 
ATOM      4  S   UNL     1       0.683   2.023   1.279  0.00  0.00    -0.121 S 
ATOM      5  C   UNL     1       0.013   0.821   0.175  0.00  0.00    +0.029 A 
ATOM      6  C   UNL     1      -1.270   0.336   0.403  0.00  0.00    +0.016 A 
ATOM      7  C   UNL     1      -1.820  -0.602  -0.448  0.00  0.00    +0.001 A 
ATOM      8  C   UNL     1      -1.093  -1.059  -1.533  0.00  0.00    +0.002 A 
ATOM      9  C   UNL     1       0.182  -0.583  -1.765  0.00  0.00    +0.024 A 
ATOM     10  C   UNL     1       0.750   0.359  -0.911  0.00  0.00    +0.050 A 
ATOM     11  N   UNL     1       2.050   0.792  -1.181  0.00  0.00    -0.264 N 
ATOM     12  C   UNL     1       2.825   0.037  -1.984  0.00  0.00    +0.204 C 
ATOM     13  O   UNL     1       3.823   0.512  -2.485  0.00  0.00    -0.277 OA
BRANCH   2  17
ATOM     14  C   UNL     1       6.743   2.309  -1.666  0.00  0.00    +0.000 A 
ATOM     15  C   UNL     1       5.827   3.174  -2.235  0.00  0.00    +0.000 A 
ATOM     16  C   UNL     1       4.489   3.082  -1.901  0.00  0.00    +0.005 A 
ATOM     17  C   UNL     1       4.067   2.125  -0.997  0.00  0.00    -0.026 A 
ATOM     18  C   UNL     1       4.984   1.263  -0.424  0.00  0.00    +0.005 A 
ATOM     19  C   UNL     1       6.321   1.352  -0.762  0.00  0.00    +0.000 A 
ENDBRANCH   2  17
ENDBRANCH   1  12
BRANCH   1  25
ATOM     20  C   UNL     1       4.346  -1.748  -3.727  0.00  0.00    -0.077 C 
ATOM     21  C   UNL     1       5.681  -2.484  -3.865  0.00  0.00    -0.006 C 
ATOM     22  C   UNL     1       5.425  -3.993  -3.906  0.00  0.00    +0.072 C 
ATOM     23  C   UNL     1       4.679  -4.411  -2.636  0.00  0.00    -0.006 C 
ATOM     24  C   UNL     1       3.373  -3.619  -2.534  0.00  0.00    -0.077 C 
ATOM     25  N   UNL     1       3.690  -2.177  -2.473  0.00  0.00    +0.385 N 
ATOM     26  H   UNL     1       4.330  -2.009  -1.688  0.00  0.00    -0.081 HD
BRANCH  22  27
ATOM     27  C   UNL     1       6.740  -4.725  -3.982  0.00  0.00    +0.220 C 
ATOM     28  O   UNL     1       7.051  -5.505  -3.107  0.00  0.00    -0.275 OA
ATOM     29  N   UNL     1       7.570  -4.514  -5.022  0.00  0.00    -0.282 N 
ATOM     30  H   UNL     1       7.361  -3.830  -5.678  0.00  0.00    +0.155 HD
BRANCH  29  31
ATOM     31  C   UNL     1       8.736  -5.280  -5.156  0.00  0.00    +0.075 A 
ATOM     32  C   UNL     1       8.809  -6.541  -4.581  0.00  0.00    +0.027 A 
ATOM     33  C   UNL     1       9.959  -7.295  -4.714  0.00  0.00    +0.002 A 
ATOM     34  C   UNL     1      11.039  -6.797  -5.419  0.00  0.00    +0.004 A 
ATOM     35  C   UNL     1      10.973  -5.541  -5.995  0.00  0.00    +0.047 A 
ATOM     36  C   UNL     1       9.822  -4.781  -5.871  0.00  0.00    +0.138 A 
BRANCH  36  37
ATOM     37  O   UNL     1       9.754  -3.549  -6.442  0.00  0.00    -0.505 OA
ATOM     38  H   UNL     1      10.055  -2.832  -5.867  0.00  0.00    +0.292 HD
ENDBRANCH  36  37
ENDBRANCH  29  31
ENDBRANCH  22  27
ENDBRANCH   1  25
TORSDOF 6
