REMARK  Name = ZINC48695683
REMARK  4 active torsions:
REMARK  status: ('A' for Active; 'I' for Inactive)
REMARK    1  A    between atoms: C_4  and  N_20
REMARK    2  A    between atoms: C_5  and  C_7
REMARK    3  A    between atoms: C_7  and  N_8
REMARK    4  A    between atoms: N_8  and  C_9
REMARK                            x       y       z     vdW  Elec       q    Type
REMARK                         _______ _______ _______ _____ _____    ______ ____
ROOT
ATOM      1  N   UNL     1       1.490  -2.680   1.338  0.00  0.00    +0.392 N 
ATOM      2  H   UNL     1       2.383  -2.333   1.656  0.00  0.00    -0.084 HD
ATOM      3  H   UNL     1       0.764  -2.357   1.959  0.00  0.00    -0.084 HD
ENDROOT
BRANCH   1   4
ATOM      4  C   UNL     1       1.510  -4.149   1.330  0.00  0.00    +0.049 C 
ATOM      5  C   UNL     1       1.702  -4.684   2.730  0.00  0.00    -0.032 A 
ATOM      6  C   UNL     1       0.959  -4.575   3.884  0.00  0.00    +0.004 A 
ATOM      7  C   UNL     1       1.395  -5.188   5.046  0.00  0.00    +0.000 A 
ATOM      8  C   UNL     1       2.577  -5.907   5.043  0.00  0.00    +0.002 A 
ATOM      9  C   UNL     1       3.323  -6.017   3.888  0.00  0.00    +0.023 A 
ATOM     10  C   UNL     1       2.890  -5.403   2.714  0.00  0.00    +0.035 A 
ATOM     11  N   UNL     1       3.458  -5.369   1.440  0.00  0.00    -0.286 N 
ATOM     12  C   UNL     1       2.716  -4.659   0.569  0.00  0.00    +0.208 C 
ATOM     13  O   UNL     1       2.965  -4.463  -0.602  0.00  0.00    -0.277 OA
ATOM     14  H   UNL     1       4.292  -5.807   1.207  0.00  0.00    +0.155 HD
ENDBRANCH   1   4
BRANCH   1  15
ATOM     15  C   UNL     1       1.229  -2.186  -0.020  0.00  0.00    -0.043 C 
BRANCH  15  20
ATOM     16  C   UNL     1      -0.017   1.378   0.010  0.00  0.00    +0.000 A 
ATOM     17  C   UNL     1       1.171   2.085   0.002  0.00  0.00    +0.002 A 
ATOM     18  C   UNL     1       2.377   1.411  -0.013  0.00  0.00    +0.033 A 
ATOM     19  C   UNL     1       2.396   0.028  -0.020  0.00  0.00    +0.128 A 
ATOM     20  C   UNL     1       1.209  -0.679  -0.012  0.00  0.00    -0.034 A 
ATOM     21  C   UNL     1       0.002  -0.004   0.002  0.00  0.00    +0.004 A 
BRANCH  19  22
ATOM     22  N   UNL     1       3.688  -0.694  -0.037  0.00  0.00    +0.057 N 
ATOM     23  O   UNL     1       4.726  -0.076  -0.045  0.00  0.00    -0.126 OA
ATOM     24  O   UNL     1       3.704  -1.903  -0.043  0.00  0.00    -0.126 OA
ENDBRANCH  19  22
ENDBRANCH  15  20
ENDBRANCH   1  15
TORSDOF 4
