REMARK  Name = ZINC09194635
REMARK  9 active torsions:
REMARK  status: ('A' for Active; 'I' for Inactive)
REMARK    1  A    between atoms: C_1  and  O_2
REMARK    2  A    between atoms: O_2  and  C_3
REMARK    3  A    between atoms: C_3  and  C_4
REMARK    4  A    between atoms: C_4  and  N_5
REMARK    5  A    between atoms: C_9  and  C_11
REMARK    6  A    between atoms: C_11  and  S_12
REMARK    7  A    between atoms: S_12  and  C_13
REMARK    8  A    between atoms: N_27  and  C_28
REMARK    9  A    between atoms: C_28  and  C_29
REMARK                            x       y       z     vdW  Elec       q    Type
REMARK                         _______ _______ _______ _____ _____    ______ ____
ROOT
ATOM      1  C   UNL     1      -2.052   2.018  -2.306  0.00  0.00    +0.173 A 
ATOM      2  N   UNL     1      -2.769   1.637  -3.345  0.00  0.00    -0.216 NA
ATOM      3  C   UNL     1      -3.611   0.614  -3.250  0.00  0.00    +0.117 A 
ATOM      4  C   UNL     1      -3.776  -0.110  -2.059  0.00  0.00    +0.076 A 
ATOM      5  C   UNL     1      -4.745  -1.211  -2.103  0.00  0.00    -0.023 A 
ATOM      6  C   UNL     1      -5.366  -1.425  -3.280  0.00  0.00    -0.004 A 
ATOM      7  S   UNL     1      -4.725  -0.186  -4.375  0.00  0.00    -0.073 S 
ATOM      8  C   UNL     1      -6.378  -2.480  -3.606  0.00  0.00    +0.043 C 
ATOM      9  C   UNL     1      -7.468  -2.486  -2.526  0.00  0.00    +0.005 C 
ATOM     10  C   UNL     1      -7.044  -3.447  -1.420  0.00  0.00    +0.001 C 
ATOM     11  C   UNL     1      -5.523  -3.437  -1.274  0.00  0.00    +0.005 C 
ATOM     12  C   UNL     1      -5.034  -2.053  -0.864  0.00  0.00    +0.037 C 
ATOM     13  C   UNL     1      -2.981   0.321  -0.951  0.00  0.00    +0.263 A 
ATOM     14  O   UNL     1      -3.058  -0.249   0.124  0.00  0.00    -0.267 OA
ATOM     15  N   UNL     1      -2.146   1.365  -1.112  0.00  0.00    -0.283 N 
ENDROOT
BRANCH   1  16
ATOM     16  S   UNL     1      -0.950   3.384  -2.465  0.00  0.00    -0.078 S 
BRANCH  16  17
ATOM     17  C   UNL     1      -1.244   3.825  -4.196  0.00  0.00    +0.173 C 
BRANCH  17  22
ATOM     18  N   UNL     1       0.284   7.073  -7.394  0.00  0.00    -0.297 N 
ATOM     19  C   UNL     1       0.336   6.566  -6.146  0.00  0.00    +0.306 C 
ATOM     20  O   UNL     1       1.077   7.062  -5.319  0.00  0.00    -0.252 OA
ATOM     21  N   UNL     1      -0.434   5.511  -5.814  0.00  0.00    -0.240 N 
ATOM     22  C   UNL     1      -0.383   5.005  -4.566  0.00  0.00    +0.231 C 
ATOM     23  O   UNL     1       0.356   5.499  -3.742  0.00  0.00    -0.274 OA
ATOM     24  H   UNL     1      -0.307   6.678  -8.053  0.00  0.00    +0.150 HD
ATOM     25  H   UNL     1      -1.025   5.116  -6.474  0.00  0.00    +0.159 HD
BRANCH  18  26
ATOM     26  C   UNL     1       1.122   8.220  -7.754  0.00  0.00    +0.133 C 
BRANCH  26  27
ATOM     27  C   UNL     1       0.874   8.593  -9.217  0.00  0.00    +0.178 C 
BRANCH  27  29
ATOM     28  C   UNL     1      -0.811   9.420 -10.709  0.00  0.00    +0.194 C 
ATOM     29  O   UNL     1      -0.473   9.044  -9.372  0.00  0.00    -0.381 OA
ENDBRANCH  27  29
ENDBRANCH  26  27
ENDBRANCH  18  26
ENDBRANCH  17  22
ENDBRANCH  16  17
ENDBRANCH   1  16
BRANCH  15  30
ATOM     30  C   UNL     1      -1.328   1.812   0.018  0.00  0.00    +0.154 C 
BRANCH  30  31
ATOM     31  C   UNL     1      -0.013   1.076   0.008  0.00  0.00    -0.013 C 
ATOM     32  C   UNL     1       1.113   1.746   0.001  0.00  0.00    +0.005 C 
ENDBRANCH  30  31
ENDBRANCH  15  30
TORSDOF 8
