REMARK  Name = ZINC38026344
REMARK  4 active torsions:
REMARK  status: ('A' for Active; 'I' for Inactive)
REMARK    1  A    between atoms: N_4  and  C_19
REMARK    2  A    between atoms: C_5  and  C_6
REMARK    3  A    between atoms: C_13  and  C_15
REMARK    4  A    between atoms: C_15  and  C_16
REMARK                            x       y       z     vdW  Elec       q    Type
REMARK                         _______ _______ _______ _____ _____    ______ ____
ROOT
ATOM      1  C   UNL     1      -1.205  -0.926   0.539  0.00  0.00    +0.263 C 
ATOM      2  O   UNL     1      -2.324  -0.452   0.473  0.00  0.00    -0.268 OA
ATOM      3  N   UNL     1      -1.029  -2.257   0.422  0.00  0.00    -0.293 N 
ATOM      4  C   UNL     1       0.286  -2.863   0.673  0.00  0.00    +0.108 C 
ATOM      5  C   UNL     1       0.124  -3.979   1.710  0.00  0.00    +0.019 C 
ATOM      6  C   UNL     1      -0.942  -4.967   1.229  0.00  0.00    +0.003 C 
ATOM      7  C   UNL     1      -2.283  -4.242   1.086  0.00  0.00    +0.023 C 
ATOM      8  C   UNL     1      -2.150  -3.130   0.048  0.00  0.00    +0.087 C 
ENDROOT
BRANCH   1  13
ATOM      9  C   UNL     1       1.256  -0.321   0.386  0.00  0.00    +0.047 A 
ATOM     10  C   UNL     1       2.026   0.783   0.766  0.00  0.00    +0.036 A 
ATOM     11  C   UNL     1       1.198   1.690   1.337  0.00  0.00    +0.102 A 
ATOM     12  N   UNL     1      -0.065   1.197   1.330  0.00  0.00    -0.339 N 
ATOM     13  C   UNL     1      -0.047  -0.049   0.745  0.00  0.00    +0.106 A 
ATOM     14 BR   UNL     1       3.892   0.974   0.525  0.00  0.00    -0.049 Br
BRANCH  12  15
ATOM     15  C   UNL     1      -1.250   1.876   1.858  0.00  0.00    +0.088 C 
ATOM     16  C   UNL     1      -1.067   3.293   2.406  0.00  0.00    +0.027 C 
ATOM     17  C   UNL     1      -1.308   2.127   3.366  0.00  0.00    +0.027 C 
ENDBRANCH  12  15
ENDBRANCH   1  13
BRANCH   8  18
ATOM     18  C   UNL     1      -3.443  -2.314   0.005  0.00  0.00    +0.147 C 
BRANCH  18  19
ATOM     19  C   UNL     1      -3.426  -1.408  -1.199  0.00  0.00    +0.358 C 
ATOM     20  O   UNL     1      -2.469  -1.414  -1.953  0.00  0.00    -0.246 OA
ATOM     21  O   UNL     1      -4.371  -0.669  -1.419  0.00  0.00    -0.246 OA
ENDBRANCH  18  19
ENDBRANCH   8  18
TORSDOF 4
