REMARK  Name = ZINC48836441
REMARK  4 active torsions:
REMARK  status: ('A' for Active; 'I' for Inactive)
REMARK    1  A    between atoms: C_1  and  C_2
REMARK    2  A    between atoms: C_6  and  C_20
REMARK    3  A    between atoms: N_9  and  C_10
REMARK    4  A    between atoms: C_13  and  N_17
REMARK                            x       y       z     vdW  Elec       q    Type
REMARK                         _______ _______ _______ _____ _____    ______ ____
ROOT
ATOM      1  C   UNL     1      -0.009   1.540   0.030  0.00  0.00    +0.028 C 
ATOM      2  C   UNL     1       0.011   0.011   0.003  0.00  0.00    +0.070 C 
ATOM      3  C   UNL     1      -1.426  -0.521   0.005  0.00  0.00    +0.023 C 
ATOM      4  C   UNL     1      -2.101  -0.150   1.328  0.00  0.00    +0.016 C 
ATOM      5  C   UNL     1      -1.344  -0.799   2.489  0.00  0.00    +0.092 C 
ATOM      6  C   UNL     1       0.094  -0.271   2.515  0.00  0.00    +0.118 C 
ATOM      7  N   UNL     1       0.706  -0.494   1.195  0.00  0.00    -0.326 N 
ENDROOT
BRANCH   7   8
ATOM      8  C   UNL     1       1.921  -1.173   1.076  0.00  0.00    +0.031 A 
ATOM      9  C   UNL     1       2.626  -1.544   2.214  0.00  0.00    +0.025 A 
ATOM     10  C   UNL     1       3.826  -2.215   2.093  0.00  0.00    +0.035 A 
ATOM     11  C   UNL     1       4.328  -2.518   0.840  0.00  0.00    +0.139 A 
ATOM     12  C   UNL     1       3.630  -2.149  -0.295  0.00  0.00    +0.045 A 
ATOM     13  C   UNL     1       2.425  -1.483  -0.181  0.00  0.00    +0.039 A 
ATOM     14  I   UNL     1       4.395  -2.609  -2.191  0.00  0.00    -0.041 I 
BRANCH  11  15
ATOM     15  N   UNL     1       5.616  -3.237   0.714  0.00  0.00    +0.057 N 
ATOM     16  O   UNL     1       6.227  -3.559   1.706  0.00  0.00    -0.126 OA
ATOM     17  O   UNL     1       6.056  -3.502  -0.380  0.00  0.00    -0.126 OA
ENDBRANCH  11  15
ENDBRANCH   7   8
BRANCH   5  18
ATOM     18  C   UNL     1      -2.029  -0.461   3.788  0.00  0.00    +0.215 C 
ATOM     19  O   UNL     1      -1.427   0.142   4.652  0.00  0.00    -0.276 OA
ATOM     20  N   UNL     1      -3.310  -0.827   3.990  0.00  0.00    -0.329 N 
ATOM     21  H   UNL     1      -3.791  -1.308   3.299  0.00  0.00    +0.145 HD
ATOM     22  H   UNL     1      -3.751  -0.609   4.826  0.00  0.00    +0.145 HD
ENDBRANCH   5  18
TORSDOF 3
