REMARK  Name = ZINC02332798
REMARK  15 active torsions:
REMARK  status: ('A' for Active; 'I' for Inactive)
REMARK    1  A    between atoms: C_1  and  C_2
REMARK    2  A    between atoms: N_8  and  C_9
REMARK    3  A    between atoms: C_9  and  C_10
REMARK    4  A    between atoms: C_10  and  C_11
REMARK    5  A    between atoms: C_14  and  O_19
REMARK    6  A    between atoms: C_15  and  O_17
REMARK    7  A    between atoms: O_17  and  C_18
REMARK    8  A    between atoms: O_19  and  C_20
REMARK    9  A    between atoms: C_21  and  C_29
REMARK   10  A    between atoms: C_23  and  C_27
REMARK   11  A    between atoms: C_24  and  N_26
REMARK   12  A    between atoms: C_32  and  O_37
REMARK   13  A    between atoms: C_34  and  O_35
REMARK   14  A    between atoms: O_35  and  C_36
REMARK   15  A    between atoms: O_37  and  C_38
REMARK                            x       y       z     vdW  Elec       q    Type
REMARK                         _______ _______ _______ _____ _____    ______ ____
ROOT
ATOM      1  C   UNL     1       3.601   5.492   1.666  0.00  0.00    +0.064 C 
ATOM      2  C   UNL     1       2.302   6.248   1.565  0.00  0.00    +0.022 A 
ATOM      3  C   UNL     1       2.295   7.586   1.749  0.00  0.00    +0.068 A 
ATOM      4  C   UNL     1       1.080   8.298   1.662  0.00  0.00    +0.141 A 
ATOM      5  C   UNL     1      -0.080   7.608   1.381  0.00  0.00    +0.072 A 
ATOM      6  C   UNL     1      -0.023   6.221   1.192  0.00  0.00    +0.259 A 
ATOM      7  O   UNL     1      -1.042   5.597   0.943  0.00  0.00    -0.267 OA
ATOM      8  N   UNL     1       1.155   5.576   1.284  0.00  0.00    -0.312 N 
ATOM      9  C   UNL     1      -1.396   8.328   1.276  0.00  0.00    +0.107 C 
ATOM     10  C   UNL     1      -1.290   9.694   1.897  0.00  0.00    +0.098 C 
ATOM     11  C   UNL     1      -0.085  10.260   2.145  0.00  0.00    +0.199 C 
ATOM     12  O   UNL     1       1.068   9.635   1.852  0.00  0.00    -0.441 OA
ENDROOT
BRANCH   9  13
ATOM     13  C   UNL     1      -1.776   8.467  -0.175  0.00  0.00    +0.007 A 
ATOM     14  C   UNL     1      -0.951   9.159  -1.042  0.00  0.00    +0.012 A 
ATOM     15  C   UNL     1      -1.293   9.283  -2.374  0.00  0.00    +0.046 A 
ATOM     16  C   UNL     1      -2.473   8.723  -2.844  0.00  0.00    +0.124 A 
ATOM     17  C   UNL     1      -3.305   8.034  -1.976  0.00  0.00    +0.091 A 
ATOM     18  C   UNL     1      -2.957   7.905  -0.640  0.00  0.00    +0.128 A 
BRANCH  18  19
ATOM     19  O   UNL     1      -3.771   7.231   0.214  0.00  0.00    -0.495 OA
ATOM     20  C   UNL     1      -4.970   6.679  -0.333  0.00  0.00    +0.277 C 
ENDBRANCH  18  19
BRANCH  16  21
ATOM     21  O   UNL     1      -2.813   8.851  -4.154  0.00  0.00    -0.495 OA
ATOM     22  C   UNL     1      -1.908   9.573  -4.991  0.00  0.00    +0.277 C 
ENDBRANCH  16  21
ENDBRANCH   9  13
BRANCH  11  23
ATOM     23  N   UNL     1      -0.041  11.509   2.712  0.00  0.00    -0.328 N 
ATOM     24  H   UNL     1      -0.865  11.973   2.929  0.00  0.00    +0.145 HD
ATOM     25  H   UNL     1       0.815  11.928   2.897  0.00  0.00    +0.145 HD
ENDBRANCH  11  23
BRANCH  10  26
ATOM     26  C   UNL     1      -2.485  10.408   2.232  0.00  0.00    +0.101 C 
ATOM     27  N   UNL     1      -3.433  10.975   2.497  0.00  0.00    -0.191 NA
ENDBRANCH  10  26
BRANCH   8  28
ATOM     28  C   UNL     1       1.200   4.125   1.086  0.00  0.00    +0.130 C 
BRANCH  28  29
ATOM     29  C   UNL     1       1.387   3.820  -0.401  0.00  0.00    +0.057 C 
BRANCH  29  30
ATOM     30  C   UNL     1       1.433   2.327  -0.606  0.00  0.00    -0.042 A 
ATOM     31  C   UNL     1       2.643   1.661  -0.553  0.00  0.00    +0.007 A 
ATOM     32  C   UNL     1       2.690   0.292  -0.740  0.00  0.00    +0.049 A 
ATOM     33  C   UNL     1       1.523  -0.415  -0.980  0.00  0.00    +0.161 A 
ATOM     34  C   UNL     1       0.305   0.255  -1.033  0.00  0.00    +0.162 A 
ATOM     35  C   UNL     1       0.265   1.627  -0.845  0.00  0.00    +0.053 A 
BRANCH  34  36
ATOM     36  O   UNL     1      -0.843  -0.435  -1.268  0.00  0.00    -0.491 OA
ATOM     37  C   UNL     1      -2.056   0.319  -1.309  0.00  0.00    +0.277 C 
ENDBRANCH  34  36
BRANCH  33  38
ATOM     38  O   UNL     1       1.568  -1.762  -1.164  0.00  0.00    -0.491 OA
ATOM     39  C   UNL     1       2.853  -2.384  -1.096  0.00  0.00    +0.277 C 
ENDBRANCH  33  38
ENDBRANCH  29  30
ENDBRANCH  28  29
ENDBRANCH   8  28
TORSDOF 10
