REMARK  Name = ZINC63426903
REMARK  15 active torsions:
REMARK  status: ('A' for Active; 'I' for Inactive)
REMARK    1  A    between atoms: C_1  and  C_2
REMARK    2  A    between atoms: C_6  and  C_7
REMARK    3  A    between atoms: C_9  and  O_17
REMARK    4  A    between atoms: C_10  and  O_15
REMARK    5  A    between atoms: C_11  and  O_13
REMARK    6  A    between atoms: O_13  and  C_14
REMARK    7  A    between atoms: O_15  and  C_16
REMARK    8  A    between atoms: O_17  and  C_18
REMARK    9  A    between atoms: C_22  and  C_28
REMARK   10  A    between atoms: C_30  and  O_38
REMARK   11  A    between atoms: C_31  and  O_36
REMARK   12  A    between atoms: C_32  and  O_34
REMARK   13  A    between atoms: O_34  and  C_35
REMARK   14  A    between atoms: O_36  and  C_37
REMARK   15  A    between atoms: O_38  and  C_39
REMARK                            x       y       z     vdW  Elec       q    Type
REMARK                         _______ _______ _______ _____ _____    ______ ____
ROOT
ATOM      1  C   UNL     1       0.390   1.373  -0.659  0.00  0.00    +0.008 C 
ATOM      2  C   UNL     1       0.273  -0.139  -0.457  0.00  0.00    -0.006 C 
ATOM      3  C   UNL     1      -1.206  -0.528  -0.319  0.00  0.00    +0.040 C 
ATOM      4  C   UNL     1      -1.252  -2.034  -0.178  0.00  0.00    -0.025 C 
ATOM      5  C   UNL     1      -2.191  -2.758  -0.813  0.00  0.00    +0.013 C 
ATOM      6  C   UNL     1      -0.239  -2.686   0.673  0.00  0.00    +0.037 C 
ATOM      7  C   UNL     1       0.812  -2.005   1.133  0.00  0.00    -0.023 C 
ATOM      8  C   UNL     1       1.011  -0.543   0.815  0.00  0.00    +0.038 C 
ATOM      9  C   UNL     1       1.853  -2.676   1.994  0.00  0.00    +0.131 C 
ATOM     10  N   UNL     1       1.555  -4.075   2.240  0.00  0.00    -0.316 N 
ATOM     11  C   UNL     1       0.473  -4.693   1.749  0.00  0.00    +0.135 C 
ATOM     12  S   UNL     1       0.217  -6.347   2.106  0.00  0.00    -0.019 S 
ATOM     13  N   UNL     1      -0.414  -4.040   0.984  0.00  0.00    -0.297 N 
ATOM     14  H   UNL     1       2.170  -4.589   2.786  0.00  0.00    +0.149 HD
ATOM     15  H   UNL     1      -1.189  -4.512   0.641  0.00  0.00    +0.154 HD
ENDROOT
BRANCH   5  16
ATOM     16  C   UNL     1      -3.292  -2.081  -1.518  0.00  0.00    -0.018 A 
ATOM     17  C   UNL     1      -3.838  -2.647  -2.673  0.00  0.00    +0.057 A 
ATOM     18  C   UNL     1      -4.873  -2.009  -3.332  0.00  0.00    +0.166 A 
ATOM     19  C   UNL     1      -5.370  -0.803  -2.847  0.00  0.00    +0.204 A 
ATOM     20  C   UNL     1      -4.829  -0.236  -1.697  0.00  0.00    +0.166 A 
ATOM     21  C   UNL     1      -3.798  -0.872  -1.029  0.00  0.00    +0.057 A 
BRANCH  20  22
ATOM     22  O   UNL     1      -5.318   0.943  -1.226  0.00  0.00    -0.491 OA
ATOM     23  C   UNL     1      -4.715   1.468  -0.041  0.00  0.00    +0.277 C 
ENDBRANCH  20  22
BRANCH  19  24
ATOM     24  O   UNL     1      -6.388  -0.178  -3.497  0.00  0.00    -0.488 OA
ATOM     25  C   UNL     1      -7.718  -0.514  -3.097  0.00  0.00    +0.277 C 
ENDBRANCH  19  24
BRANCH  18  26
ATOM     26  O   UNL     1      -5.404  -2.559  -4.457  0.00  0.00    -0.491 OA
ATOM     27  C   UNL     1      -4.845  -3.797  -4.899  0.00  0.00    +0.277 C 
ENDBRANCH  18  26
ENDBRANCH   5  16
BRANCH   9  28
ATOM     28  C   UNL     1       1.929  -1.957   3.316  0.00  0.00    -0.016 A 
ATOM     29  C   UNL     1       0.992  -2.220   4.298  0.00  0.00    +0.055 A 
ATOM     30  C   UNL     1       1.058  -1.560   5.516  0.00  0.00    +0.165 A 
ATOM     31  C   UNL     1       2.068  -0.634   5.749  0.00  0.00    +0.204 A 
ATOM     32  C   UNL     1       3.008  -0.373   4.759  0.00  0.00    +0.165 A 
ATOM     33  C   UNL     1       2.938  -1.041   3.546  0.00  0.00    +0.055 A 
BRANCH  32  34
ATOM     34  O   UNL     1       3.998   0.532   4.981  0.00  0.00    -0.491 OA
ATOM     35  C   UNL     1       4.929   0.750   3.919  0.00  0.00    +0.277 C 
ENDBRANCH  32  34
BRANCH  31  36
ATOM     36  O   UNL     1       2.136   0.016   6.942  0.00  0.00    -0.488 OA
ATOM     37  C   UNL     1       2.911  -0.599   7.973  0.00  0.00    +0.277 C 
ENDBRANCH  31  36
BRANCH  30  38
ATOM     38  O   UNL     1       0.136  -1.818   6.481  0.00  0.00    -0.491 OA
ATOM     39  C   UNL     1      -0.874  -2.781   6.173  0.00  0.00    +0.277 C 
ENDBRANCH  30  38
ENDBRANCH   9  28
TORSDOF 8
