REMARK  Name = ZINC39325518
REMARK  8 active torsions:
REMARK  status: ('A' for Active; 'I' for Inactive)
REMARK    1  A    between atoms: C_1  and  O_2
REMARK    2  A    between atoms: O_2  and  C_3
REMARK    3  A    between atoms: C_8  and  C_15
REMARK    4  A    between atoms: C_15  and  N_16
REMARK    5  A    between atoms: N_16  and  C_17
REMARK    6  A    between atoms: N_16  and  S_27
REMARK    7  A    between atoms: C_17  and  C_18
REMARK    8  A    between atoms: S_27  and  C_30
REMARK                            x       y       z     vdW  Elec       q    Type
REMARK                         _______ _______ _______ _____ _____    ______ ____
ROOT
ATOM      1  N   UNL     1       4.060  -5.754  -4.655  0.00  0.00    -0.171 NA
ENDROOT
BRANCH   1   2
ATOM      2  S   UNL     1       4.208  -6.856  -3.428  0.00  0.00    +0.063 S 
ATOM      3  O   UNL     1       5.056  -7.889  -3.911  0.00  0.00    -0.153 OA
ATOM      4  O   UNL     1       4.502  -6.117  -2.251  0.00  0.00    -0.153 OA
BRANCH   2   5
ATOM      5  C   UNL     1       2.620  -7.581  -3.185  0.00  0.00    +0.124 A 
ATOM      6  C   UNL     1       2.412  -8.911  -3.501  0.00  0.00    +0.030 A 
ATOM      7  C   UNL     1       1.167  -9.480  -3.310  0.00  0.00    +0.002 A 
ATOM      8  C   UNL     1       0.129  -8.719  -2.803  0.00  0.00    +0.002 A 
ATOM      9  C   UNL     1       0.336  -7.390  -2.487  0.00  0.00    +0.022 A 
ATOM     10  C   UNL     1       1.584  -6.822  -2.673  0.00  0.00    +0.067 A 
ATOM     11 CL   UNL     1       1.847  -5.154  -2.270  0.00  0.00    -0.082 Cl
ENDBRANCH   2   5
ENDBRANCH   1   2
BRANCH   1  12
ATOM     12  C   UNL     1       3.931  -4.328  -4.346  0.00  0.00    +0.126 C 
BRANCH  12  18
ATOM     13  C   UNL     1       8.030   0.082  -4.954  0.00  0.00    +0.122 A 
ATOM     14  C   UNL     1       6.960   0.658  -4.253  0.00  0.00    +0.046 A 
ATOM     15  C   UNL     1       5.971  -0.105  -3.728  0.00  0.00    +0.013 A 
ATOM     16  C   UNL     1       6.027  -1.559  -3.900  0.00  0.00    -0.007 A 
ATOM     17  C   UNL     1       5.052  -2.357  -3.386  0.00  0.00    -0.003 C 
ATOM     18  C   UNL     1       5.184  -3.850  -3.609  0.00  0.00    +0.114 C 
ATOM     19  C   UNL     1       6.389  -4.334  -4.384  0.00  0.00    +0.225 C 
ATOM     20  O   UNL     1       6.545  -5.523  -4.592  0.00  0.00    -0.275 OA
ATOM     21  N   UNL     1       7.272  -3.461  -4.835  0.00  0.00    -0.284 N 
ATOM     22  C   UNL     1       7.159  -2.144  -4.640  0.00  0.00    +0.044 A 
ATOM     23  C   UNL     1       8.133  -1.277  -5.153  0.00  0.00    +0.069 A 
ATOM     24  H   UNL     1       8.039  -3.791  -5.329  0.00  0.00    +0.155 HD
BRANCH  13  26
ATOM     25  C   UNL     1       8.845   2.295  -5.229  0.00  0.00    +0.277 C 
ATOM     26  O   UNL     1       8.992   0.892  -5.458  0.00  0.00    -0.495 OA
ENDBRANCH  13  26
ENDBRANCH  12  18
ENDBRANCH   1  12
BRANCH   1  27
ATOM     27  C   UNL     1       4.058  -6.205  -6.049  0.00  0.00    +0.144 C 
BRANCH  27  28
ATOM     28  C   UNL     1       5.452  -6.105  -6.611  0.00  0.00    -0.028 A 
ATOM     29  C   UNL     1       5.867  -4.938  -7.225  0.00  0.00    +0.009 A 
ATOM     30  C   UNL     1       7.145  -4.841  -7.742  0.00  0.00    +0.050 A 
ATOM     31  C   UNL     1       8.015  -5.915  -7.646  0.00  0.00    +0.166 A 
ATOM     32  C   UNL     1       7.597  -7.091  -7.028  0.00  0.00    +0.167 A 
ATOM     33  C   UNL     1       6.317  -7.179  -6.507  0.00  0.00    +0.054 A 
ATOM     34  O   UNL     1       8.625  -7.989  -7.060  0.00  0.00    -0.453 OA
ATOM     35  C   UNL     1       9.533  -7.498  -8.063  0.00  0.00    +0.466 C 
ATOM     36  O   UNL     1       9.303  -6.077  -8.066  0.00  0.00    -0.453 OA
ENDBRANCH  27  28
ENDBRANCH   1  27
TORSDOF 7
