REMARK  Name = ZINC14995391
REMARK  8 active torsions:
REMARK  status: ('A' for Active; 'I' for Inactive)
REMARK    1  A    between atoms: C_1  and  O_2
REMARK    2  A    between atoms: O_2  and  C_3
REMARK    3  A    between atoms: C_8  and  C_9
REMARK    4  A    between atoms: C_9  and  N_10
REMARK    5  A    between atoms: C_21  and  N_58
REMARK    6  A    between atoms: C_25  and  C_26
REMARK    7  A    between atoms: C_25  and  N_58
REMARK    8  A    between atoms: C_26  and  C_27
REMARK                            x       y       z     vdW  Elec       q    Type
REMARK                         _______ _______ _______ _____ _____    ______ ____
ROOT
ATOM      1  N   UNL     1      -0.929   2.001   4.378  0.00  0.00    -0.294 N 
ATOM      2  C   UNL     1      -0.264   0.861   4.056  0.00  0.00    +0.203 A 
ATOM      3  N   UNL     1       0.701   0.405   4.809  0.00  0.00    -0.230 NA
ATOM      4  C   UNL     1       1.055   1.038   5.923  0.00  0.00    +0.116 A 
ATOM      5  C   UNL     1       0.423   2.220   6.341  0.00  0.00    +0.076 A 
ATOM      6  C   UNL     1      -0.627   2.697   5.490  0.00  0.00    +0.263 A 
ATOM      7  O   UNL     1      -1.236   3.715   5.768  0.00  0.00    -0.267 OA
ATOM      8  C   UNL     1       0.918   2.805   7.587  0.00  0.00    -0.023 A 
ATOM      9  C   UNL     1       1.927   2.158   8.208  0.00  0.00    -0.006 A 
ATOM     10  S   UNL     1       2.271   0.752   7.185  0.00  0.00    -0.073 S 
ATOM     11  C   UNL     1       2.605   2.549   9.486  0.00  0.00    +0.027 C 
ATOM     12  C   UNL     1       1.737   3.601  10.192  0.00  0.00    -0.067 C 
ATOM     13  C   UNL     1       1.336   4.671   9.173  0.00  0.00    -0.011 C 
ATOM     14  C   UNL     1       0.336   4.088   8.174  0.00  0.00    +0.035 C 
ENDROOT
BRANCH  12  15
ATOM     15  N   UNL     1       2.509   4.230  11.281  0.00  0.00    +0.381 N 
ATOM     16  H   UNL     1       2.133   5.167  11.465  0.00  0.00    -0.086 HD
ATOM     17  H   UNL     1       3.493   4.306  10.998  0.00  0.00    -0.086 HD
BRANCH  15  18
ATOM     18  C   UNL     1       2.417   3.418  12.509  0.00  0.00    -0.078 C 
BRANCH  18  19
ATOM     19  C   UNL     1       3.225   4.094  13.618  0.00  0.00    +0.016 C 
BRANCH  19  20
ATOM     20  C   UNL     1       3.136   3.271  14.877  0.00  0.00    -0.049 A 
ATOM     21  C   UNL     1       2.127   3.513  15.791  0.00  0.00    +0.006 A 
ATOM     22  C   UNL     1       2.042   2.756  16.944  0.00  0.00    +0.038 A 
ATOM     23  C   UNL     1       2.973   1.762  17.189  0.00  0.00    +0.123 A 
ATOM     24  C   UNL     1       3.987   1.524  16.276  0.00  0.00    +0.038 A 
ATOM     25  C   UNL     1       4.067   2.279  15.121  0.00  0.00    +0.006 A 
ATOM     26  F   UNL     1       2.893   1.024  18.318  0.00  0.00    -0.205 F 
ENDBRANCH  19  20
ENDBRANCH  18  19
ENDBRANCH  15  18
ENDBRANCH  12  15
BRANCH   1  27
ATOM     27  C   UNL     1      -2.001   2.479   3.501  0.00  0.00    +0.165 C 
BRANCH  27  33
ATOM     28  C   UNL     1      -0.787   2.892   1.346  0.00  0.00    +0.125 A 
ATOM     29  C   UNL     1      -0.253   3.751   0.396  0.00  0.00    +0.046 A 
ATOM     30  C   UNL     1      -0.367   5.117   0.561  0.00  0.00    +0.004 A 
ATOM     31  C   UNL     1      -1.003   5.630   1.677  0.00  0.00    +0.001 A 
ATOM     32  C   UNL     1      -1.531   4.776   2.627  0.00  0.00    +0.009 A 
ATOM     33  C   UNL     1      -1.425   3.409   2.465  0.00  0.00    +0.014 A 
BRANCH  28  35
ATOM     34  C   UNL     1      -0.013   1.086   0.008  0.00  0.00    +0.277 C 
ATOM     35  O   UNL     1      -0.682   1.547   1.184  0.00  0.00    -0.495 OA
ENDBRANCH  28  35
ENDBRANCH  27  33
ENDBRANCH   1  27
TORSDOF 7
