REMARK  Name = ZINC12698399
REMARK  6 active torsions:
REMARK  status: ('A' for Active; 'I' for Inactive)
REMARK    1  A    between atoms: C_1  and  C_2
REMARK    2  A    between atoms: C_5  and  C_8
REMARK    3  A    between atoms: N_10  and  C_11
REMARK    4  A    between atoms: C_11  and  C_12
REMARK    5  A    between atoms: N_14  and  N_15
REMARK    6  A    between atoms: C_16  and  C_18
REMARK                            x       y       z     vdW  Elec       q    Type
REMARK                         _______ _______ _______ _____ _____    ______ ____
ROOT
ATOM      1  C   UNL     1      -4.725  -0.926   0.135  0.00  0.00    +0.246 C 
ATOM      2  O   UNL     1      -4.936   0.269   0.147  0.00  0.00    -0.273 OA
ATOM      3  N   UNL     1      -3.459  -1.386   0.096  0.00  0.00    -0.233 N 
ATOM      4  H   UNL     1      -3.291  -2.342   0.087  0.00  0.00    +0.173 HD
ENDROOT
BRANCH   3   5
ATOM      5  N   UNL     1      -2.386  -0.486   0.069  0.00  0.00    -0.230 N 
ATOM      6  C   UNL     1      -1.120  -0.947   0.030  0.00  0.00    +0.267 C 
ATOM      7  O   UNL     1      -0.909  -2.145   0.018  0.00  0.00    -0.268 OA
ATOM      8  H   UNL     1      -2.555   0.469   0.079  0.00  0.00    +0.173 HD
BRANCH   6   9
ATOM      9  C   UNL     1       0.002  -0.004   0.002  0.00  0.00    +0.076 A 
ATOM     10  C   UNL     1       1.355  -0.261  -0.039  0.00  0.00    +0.024 A 
ATOM     11  C   UNL     1       2.235   0.823  -0.072  0.00  0.00    -0.036 A 
ATOM     12  C   UNL     1       1.693   2.055  -0.003  0.00  0.00    -0.006 A 
ATOM     13  S   UNL     1      -0.022   1.777   0.012  0.00  0.00    -0.088 S 
ATOM     14  C   UNL     1       2.292   3.431   0.123  0.00  0.00    +0.043 C 
ATOM     15  C   UNL     1       3.819   3.395   0.200  0.00  0.00    +0.005 C 
ATOM     16  C   UNL     1       4.425   3.225  -1.183  0.00  0.00    +0.000 C 
ATOM     17  C   UNL     1       3.620   2.291  -2.065  0.00  0.00    +0.000 C 
ATOM     18  C   UNL     1       4.072   0.865  -1.737  0.00  0.00    +0.005 C 
ATOM     19  C   UNL     1       3.719   0.555  -0.283  0.00  0.00    +0.036 C 
ENDBRANCH   6   9
ENDBRANCH   3   5
BRANCH   1  20
ATOM     20  C   UNL     1      -5.879  -1.895   0.164  0.00  0.00    +0.202 C 
BRANCH  20  23
ATOM     21  C   UNL     1      -8.313  -1.814   0.235  0.00  0.00    +0.244 C 
ATOM     22  O   UNL     1      -8.324  -3.029   0.230  0.00  0.00    -0.270 OA
ATOM     23  N   UNL     1      -7.140  -1.151   0.204  0.00  0.00    -0.303 N 
ATOM     24  H   UNL     1      -7.131  -0.181   0.209  0.00  0.00    +0.150 HD
BRANCH  21  29
ATOM     25  C   UNL     1     -13.268   1.109   0.395  0.00  0.00    +0.044 C 
ATOM     26  C   UNL     1     -11.970   0.343   0.353  0.00  0.00    -0.050 A 
ATOM     27  C   UNL     1     -11.987  -1.040   0.346  0.00  0.00    +0.004 A 
ATOM     28  C   UNL     1     -10.803  -1.747   0.308  0.00  0.00    +0.013 A 
ATOM     29  C   UNL     1      -9.586  -1.063   0.276  0.00  0.00    +0.037 A 
ATOM     30  C   UNL     1      -9.577   0.333   0.288  0.00  0.00    +0.013 A 
ATOM     31  C   UNL     1     -10.768   1.027   0.322  0.00  0.00    +0.004 A 
ENDBRANCH  21  29
ENDBRANCH  20  23
ENDBRANCH   1  20
TORSDOF 5
