REMARK  Name = ZINC63234388
REMARK  9 active torsions:
REMARK  status: ('A' for Active; 'I' for Inactive)
REMARK    1  A    between atoms: C_1  and  S_2
REMARK    2  A    between atoms: S_2  and  C_3
REMARK    3  A    between atoms: C_3  and  C_4
REMARK    4  A    between atoms: C_4  and  C_5
REMARK    5  A    between atoms: N_7  and  C_8
REMARK    6  A    between atoms: C_13  and  C_14
REMARK    7  A    between atoms: C_14  and  C_15
REMARK    8  A    between atoms: C_15  and  C_16
REMARK    9  A    between atoms: C_15  and  C_25
REMARK                            x       y       z     vdW  Elec       q    Type
REMARK                         _______ _______ _______ _____ _____    ______ ____
ROOT
ATOM      1  C   UNL     1      -3.907  -6.629   1.629  0.00  0.00    +0.050 C 
ENDROOT
BRANCH   1   2
ATOM      2  C   UNL     1      -5.023  -7.122   2.514  0.00  0.00    -0.034 C 
ATOM      3  C   UNL     1      -5.509  -6.519   3.623  0.00  0.00    -0.001 A 
ATOM      4  C   UNL     1      -5.155  -5.272   4.312  0.00  0.00    +0.010 A 
ATOM      5  C   UNL     1      -5.835  -4.923   5.428  0.00  0.00    +0.001 A 
ATOM      6  C   UNL     1      -6.867  -5.721   5.941  0.00  0.00    +0.002 A 
ATOM      7  C   UNL     1      -7.249  -6.880   5.364  0.00  0.00    +0.026 A 
ATOM      8  C   UNL     1      -6.602  -7.343   4.185  0.00  0.00    +0.043 A 
ATOM      9  N   UNL     1      -6.786  -8.414   3.452  0.00  0.00    -0.380 N 
ATOM     10  C   UNL     1      -5.832  -8.387   2.337  0.00  0.00    +0.145 C 
ATOM     11  H   UNL     1      -7.445  -9.107   3.617  0.00  0.00    +0.160 HD
ENDBRANCH   1   2
BRANCH   1  12
ATOM     12  C   UNL     1      -2.799  -7.651   1.603  0.00  0.00    -0.034 C 
ATOM     13  C   UNL     1      -1.518  -7.471   1.997  0.00  0.00    -0.001 A 
ATOM     14  C   UNL     1      -0.800  -6.315   2.547  0.00  0.00    +0.010 A 
ATOM     15  C   UNL     1       0.511  -6.443   2.853  0.00  0.00    +0.001 A 
ATOM     16  C   UNL     1       1.200  -7.648   2.659  0.00  0.00    +0.002 A 
ATOM     17  C   UNL     1       0.608  -8.753   2.158  0.00  0.00    +0.026 A 
ATOM     18  C   UNL     1      -0.769  -8.733   1.802  0.00  0.00    +0.043 A 
ATOM     19  N   UNL     1      -1.556  -9.656   1.305  0.00  0.00    -0.380 N 
ATOM     20  C   UNL     1      -2.897  -9.086   1.135  0.00  0.00    +0.145 C 
ATOM     21  H   UNL     1      -1.296 -10.565   1.090  0.00  0.00    +0.160 HD
ENDBRANCH   1  12
BRANCH   1  22
ATOM     22  C   UNL     1      -4.438  -6.415   0.210  0.00  0.00    +0.049 C 
BRANCH  22  28
ATOM     23  C   UNL     1      -5.049  -3.983   0.121  0.00  0.00    +0.037 A 
ATOM     24  C   UNL     1      -5.994  -2.965   0.122  0.00  0.00    +0.023 A 
ATOM     25  C   UNL     1      -7.337  -3.272   0.225  0.00  0.00    +0.002 A 
ATOM     26  C   UNL     1      -7.741  -4.590   0.327  0.00  0.00    +0.000 A 
ATOM     27  C   UNL     1      -6.803  -5.606   0.327  0.00  0.00    +0.005 A 
ATOM     28  C   UNL     1      -5.459  -5.307   0.218  0.00  0.00    -0.025 A 
BRANCH  23  31
ATOM     29  C   UNL     1      -3.299  -2.525  -0.565  0.00  0.00    +0.218 C 
ATOM     30  O   UNL     1      -4.121  -1.803  -1.089  0.00  0.00    -0.275 OA
ATOM     31  N   UNL     1      -3.688  -3.677   0.018  0.00  0.00    -0.285 N 
ATOM     32  H   UNL     1      -3.024  -4.293   0.365  0.00  0.00    +0.155 HD
BRANCH  29  33
ATOM     33  C   UNL     1      -1.844  -2.135  -0.567  0.00  0.00    +0.107 C 
BRANCH  33  34
ATOM     34  C   UNL     1      -1.675  -0.796  -1.287  0.00  0.00    +0.078 C 
BRANCH  34  36
ATOM     35  C   UNL     1       0.106   1.260  -2.167  0.00  0.00    +0.084 C 
ATOM     36  S   UNL     1       0.077  -0.327  -1.288  0.00  0.00    -0.164 S 
ENDBRANCH  34  36
ENDBRANCH  33  34
ENDBRANCH  29  33
ENDBRANCH  23  31
ENDBRANCH  22  28
ENDBRANCH   1  22
TORSDOF 8
