REMARK  Name = ZINC01791583
REMARK  9 active torsions:
REMARK  status: ('A' for Active; 'I' for Inactive)
REMARK    1  A    between atoms: C_1  and  C_2
REMARK    2  A    between atoms: C_2  and  C_3
REMARK    3  A    between atoms: C_3  and  C_4
REMARK    4  A    between atoms: C_7  and  O_10
REMARK    5  A    between atoms: O_10  and  C_11
REMARK    6  A    between atoms: C_17  and  O_33
REMARK    7  A    between atoms: C_18  and  C_26
REMARK    8  A    between atoms: C_21  and  C_22
REMARK    9  A    between atoms: C_26  and  N_62
REMARK                            x       y       z     vdW  Elec       q    Type
REMARK                         _______ _______ _______ _____ _____    ______ ____
ROOT
ATOM      1  C   UNL     1       1.107   2.080   0.003  0.00  0.00    +0.222 A 
ATOM      2  C   UNL     1       2.377   1.435  -0.012  0.00  0.00    +0.235 A 
ATOM      3  O   UNL     1       3.415   2.075  -0.019  0.00  0.00    -0.283 OA
ATOM      4  C   UNL     1       2.385  -0.038  -0.021  0.00  0.00    +0.068 A 
ATOM      5  C   UNL     1       3.579  -0.759  -0.037  0.00  0.00    +0.019 A 
ATOM      6  C   UNL     1       3.546  -2.124  -0.044  0.00  0.00    +0.046 A 
ATOM      7  C   UNL     1       2.327  -2.800  -0.036  0.00  0.00    +0.122 A 
ATOM      8  C   UNL     1       1.133  -2.099  -0.021  0.00  0.00    +0.020 A 
ATOM      9  C   UNL     1       1.150  -0.711  -0.013  0.00  0.00    +0.144 A 
ATOM     10  O   UNL     1       0.002  -0.004   0.002  0.00  0.00    -0.447 OA
ATOM     11  C   UNL     1      -0.016   1.335   0.009  0.00  0.00    +0.254 A 
ENDROOT
BRANCH  11  12
ATOM     12  C   UNL     1      -1.349   2.039   0.019  0.00  0.00    +0.454 C 
ATOM     13  F   UNL     1      -1.767   2.264  -1.296  0.00  0.00    -0.163 F 
ATOM     14  F   UNL     1      -2.291   1.244   0.679  0.00  0.00    -0.163 F 
ATOM     15  F   UNL     1      -1.224   3.264   0.685  0.00  0.00    -0.163 F 
ENDBRANCH  11  12
BRANCH   7  16
ATOM     16  O   UNL     1       2.311  -4.157  -0.043  0.00  0.00    -0.506 OA
ATOM     17  H   UNL     1       2.297  -4.546  -0.929  0.00  0.00    +0.292 HD
ENDBRANCH   7  16
BRANCH   1  18
ATOM     18  O   UNL     1       1.029   3.439   0.011  0.00  0.00    -0.448 OA
BRANCH  18  22
ATOM     19  C   UNL     1       0.953   5.353   3.664  0.00  0.00    -0.047 A 
ATOM     20  C   UNL     1       0.899   6.092   2.497  0.00  0.00    +0.007 A 
ATOM     21  C   UNL     1       0.925   5.453   1.272  0.00  0.00    +0.046 A 
ATOM     22  C   UNL     1       1.004   4.069   1.214  0.00  0.00    +0.129 A 
ATOM     23  C   UNL     1       1.052   3.329   2.387  0.00  0.00    +0.046 A 
ATOM     24  C   UNL     1       1.032   3.973   3.609  0.00  0.00    +0.007 A 
BRANCH  19  25
ATOM     25  C   UNL     1       0.925   6.052   4.999  0.00  0.00    +0.035 C 
BRANCH  25  27
ATOM     26  C   UNL     1      -0.553   6.915   6.819  0.00  0.00    +0.004 C 
ATOM     27  C   UNL     1      -0.525   6.205   5.464  0.00  0.00    +0.001 C 
ENDBRANCH  25  27
ENDBRANCH  19  25
ENDBRANCH  18  22
ENDBRANCH   1  18
BRANCH   8  28
ATOM     28  C   UNL     1      -0.179  -2.840  -0.012  0.00  0.00    -0.036 C 
BRANCH  28  35
ATOM     29  C   UNL     1      -0.831  -1.793  -2.106  0.00  0.00    -0.078 C 
ATOM     30  C   UNL     1      -1.536  -1.967  -3.423  0.00  0.00    -0.019 C 
ATOM     31  C   UNL     1      -3.050  -1.772  -3.197  0.00  0.00    -0.002 C 
ATOM     32  C   UNL     1      -3.677  -2.952  -2.614  0.00  0.00    -0.002 C 
ATOM     33  C   UNL     1      -3.089  -3.301  -1.230  0.00  0.00    -0.019 C 
ATOM     34  C   UNL     1      -1.772  -3.999  -1.434  0.00  0.00    -0.078 C 
ATOM     35  N   UNL     1      -0.571  -3.097  -1.406  0.00  0.00    +0.383 N 
ATOM     36  H   UNL     1       0.202  -3.573  -1.886  0.00  0.00    -0.081 HD
ENDBRANCH  28  35
ENDBRANCH   8  28
TORSDOF 8
