REMARK  Name = ZINC05051887
REMARK  8 active torsions:
REMARK  status: ('A' for Active; 'I' for Inactive)
REMARK    1  A    between atoms: C_1  and  C_2
REMARK    2  A    between atoms: C_2  and  C_3
REMARK    3  A    between atoms: C_2  and  C_4
REMARK    4  A    between atoms: C_2  and  C_5
REMARK    5  A    between atoms: C_12  and  N_30
REMARK    6  A    between atoms: C_13  and  C_28
REMARK    7  A    between atoms: C_14  and  C_16
REMARK    8  A    between atoms: C_19  and  C_22
REMARK                            x       y       z     vdW  Elec       q    Type
REMARK                         _______ _______ _______ _____ _____    ______ ____
ROOT
ATOM      1  C   UNL     1       1.417  -0.950  -1.969  0.00  0.00    +0.076 A 
ATOM      2  C   UNL     1       1.046  -2.274  -2.164  0.00  0.00    +0.050 A 
ATOM      3  C   UNL     1       1.427  -2.639  -3.425  0.00  0.00    +0.222 A 
ATOM      4  N   UNL     1       2.017  -1.576  -3.995  0.00  0.00    -0.246 N 
ATOM      5  H   UNL     1       2.388  -1.540  -4.890  0.00  0.00    +0.192 HD
ATOM      6  N   UNL     1       1.995  -0.523  -3.067  0.00  0.00    -0.175 NA
ATOM      7  O   UNL     1       1.205  -3.879  -3.927  0.00  0.00    -0.423 OA
ATOM      8  C   UNL     1       0.350  -4.680  -3.258  0.00  0.00    +0.200 C 
ATOM      9  C   UNL     1      -0.087  -4.431  -2.004  0.00  0.00    +0.098 C 
ATOM     10  C   UNL     1       0.349  -3.219  -1.220  0.00  0.00    +0.101 C 
ENDROOT
BRANCH  10  11
ATOM     11  C   UNL     1       1.298  -3.635  -0.125  0.00  0.00    -0.035 A 
ATOM     12  C   UNL     1       2.628  -3.875  -0.420  0.00  0.00    +0.005 A 
ATOM     13  C   UNL     1       3.501  -4.256   0.579  0.00  0.00    +0.009 A 
ATOM     14  C   UNL     1       3.040  -4.400   1.886  0.00  0.00    -0.018 A 
ATOM     15  C   UNL     1       1.699  -4.158   2.177  0.00  0.00    +0.009 A 
ATOM     16  C   UNL     1       0.836  -3.771   1.172  0.00  0.00    +0.005 A 
BRANCH  14  17
ATOM     17  C   UNL     1       3.974  -4.811   2.964  0.00  0.00    -0.018 A 
ATOM     18  C   UNL     1       5.316  -5.048   2.674  0.00  0.00    +0.008 A 
ATOM     19  C   UNL     1       6.180  -5.429   3.680  0.00  0.00    +0.001 A 
ATOM     20  C   UNL     1       5.716  -5.576   4.975  0.00  0.00    +0.000 A 
ATOM     21  C   UNL     1       4.384  -5.342   5.269  0.00  0.00    +0.001 A 
ATOM     22  C   UNL     1       3.513  -4.955   4.271  0.00  0.00    +0.008 A 
ENDBRANCH  14  17
ENDBRANCH  10  11
BRANCH   1  24
ATOM     23  C   UNL     1       1.605   1.309  -0.964  0.00  0.00    +0.017 C 
ATOM     24  C   UNL     1       1.189  -0.143  -0.717  0.00  0.00    +0.007 C 
ATOM     25  C   UNL     1       2.024  -0.726   0.425  0.00  0.00    +0.017 C 
ATOM     26  C   UNL     1      -0.294  -0.192  -0.342  0.00  0.00    +0.017 C 
ENDBRANCH   1  24
BRANCH   8  27
ATOM     27  N   UNL     1      -0.101  -5.813  -3.887  0.00  0.00    -0.328 N 
ATOM     28  H   UNL     1       0.195  -6.018  -4.788  0.00  0.00    +0.145 HD
ATOM     29  H   UNL     1      -0.717  -6.409  -3.432  0.00  0.00    +0.145 HD
ENDBRANCH   8  27
BRANCH   9  30
ATOM     30  C   UNL     1      -0.999  -5.354  -1.396  0.00  0.00    +0.101 C 
ATOM     31  N   UNL     1      -1.722  -6.085  -0.914  0.00  0.00    -0.191 NA
ENDBRANCH   9  30
TORSDOF 5
