REMARK  Name = ZINC08326847
REMARK  9 active torsions:
REMARK  status: ('A' for Active; 'I' for Inactive)
REMARK    1  A    between atoms: C_1  and  C_2
REMARK    2  A    between atoms: C_2  and  C_3
REMARK    3  A    between atoms: C_3  and  C_5
REMARK    4  A    between atoms: C_3  and  S_6
REMARK    5  A    between atoms: S_6  and  C_7
REMARK    6  A    between atoms: C_14  and  C_24
REMARK    7  A    between atoms: C_27  and  C_30
REMARK    8  A    between atoms: C_30  and  C_31
REMARK    9  A    between atoms: C_30  and  C_32
REMARK                            x       y       z     vdW  Elec       q    Type
REMARK                         _______ _______ _______ _____ _____    ______ ____
ROOT
ATOM      1  C   UNL     1      -3.926  -0.602  -1.300  0.00  0.00    +0.171 A 
ATOM      2  N   UNL     1      -4.262  -1.196  -0.174  0.00  0.00    -0.208 NA
ATOM      3  C   UNL     1      -5.512  -1.623   0.035  0.00  0.00    +0.135 A 
ATOM      4  C   UNL     1      -6.475  -1.438  -0.941  0.00  0.00    +0.069 A 
ATOM      5  C   UNL     1      -6.112  -0.807  -2.136  0.00  0.00    +0.258 A 
ATOM      6  O   UNL     1      -6.936  -0.629  -3.020  0.00  0.00    -0.267 OA
ATOM      7  N   UNL     1      -4.837  -0.395  -2.292  0.00  0.00    -0.302 N 
ATOM      8  C   UNL     1      -7.886  -1.898  -0.724  0.00  0.00    +0.092 C 
ATOM      9  C   UNL     1      -7.970  -2.901   0.399  0.00  0.00    +0.024 C 
ATOM     10  C   UNL     1      -6.971  -3.030   1.297  0.00  0.00    +0.017 C 
ATOM     11  N   UNL     1      -5.849  -2.252   1.218  0.00  0.00    -0.302 N 
ATOM     12  C   UNL     1      -7.059  -4.040   2.416  0.00  0.00    +0.051 C 
ATOM     13  C   UNL     1      -8.522  -4.239   2.816  0.00  0.00    +0.014 C 
ATOM     14  C   UNL     1      -9.302  -4.707   1.582  0.00  0.00    +0.080 C 
ATOM     15  C   UNL     1      -9.125  -3.698   0.481  0.00  0.00    +0.162 C 
ATOM     16  O   UNL     1      -9.999  -3.570  -0.354  0.00  0.00    -0.292 OA
ATOM     17  H   UNL     1      -5.285  -2.140   1.999  0.00  0.00    +0.153 HD
ATOM     18  H   UNL     1      -4.567   0.047  -3.112  0.00  0.00    +0.171 HD
ENDROOT
BRANCH   8  19
ATOM     19  C   UNL     1      -8.746  -0.708  -0.386  0.00  0.00    -0.035 A 
ATOM     20  C   UNL     1      -8.460   0.058   0.728  0.00  0.00    +0.005 A 
ATOM     21  C   UNL     1      -9.249   1.150   1.039  0.00  0.00    +0.004 A 
ATOM     22  C   UNL     1     -10.325   1.475   0.234  0.00  0.00    -0.045 A 
ATOM     23  C   UNL     1     -10.611   0.710  -0.880  0.00  0.00    +0.004 A 
ATOM     24  C   UNL     1      -9.820  -0.379  -1.193  0.00  0.00    +0.005 A 
BRANCH  22  25
ATOM     25  C   UNL     1     -11.186   2.665   0.573  0.00  0.00    +0.013 C 
ATOM     26  C   UNL     1     -11.149   3.667  -0.582  0.00  0.00    +0.012 C 
ATOM     27  C   UNL     1     -12.627   2.203   0.802  0.00  0.00    +0.012 C 
ENDBRANCH  22  25
ENDBRANCH   8  19
BRANCH   1  28
ATOM     28  S   UNL     1      -2.265  -0.057  -1.527  0.00  0.00    -0.085 S 
BRANCH  28  29
ATOM     29  C   UNL     1      -1.433  -0.534   0.013  0.00  0.00    +0.051 C 
ATOM     30  C   UNL     1      -1.413  -2.059   0.130  0.00  0.00    +0.019 C 
BRANCH  29  32
ATOM     31  C   UNL     1      -0.019   1.526   0.010  0.00  0.00    +0.005 C 
ATOM     32  C   UNL     1       0.002  -0.004   0.002  0.00  0.00    +0.011 C 
ENDBRANCH  29  32
ENDBRANCH  28  29
ENDBRANCH   1  28
TORSDOF 5
