REMARK  Name = ZINC08914484
REMARK  4 active torsions:
REMARK  status: ('A' for Active; 'I' for Inactive)
REMARK    1  A    between atoms: C_4  and  C_7
REMARK    2  A    between atoms: C_15  and  C_17
REMARK    3  A    between atoms: C_17  and  C_19
REMARK    4  A    between atoms: C_23  and  N_25
REMARK                            x       y       z     vdW  Elec       q    Type
REMARK                         _______ _______ _______ _____ _____    ______ ____
ROOT
ATOM      1  C   UNL     1       3.425   2.295   0.628  0.00  0.00    +0.016 C 
ATOM      2  C   UNL     1       3.131   1.832  -0.809  0.00  0.00    -0.047 C 
ATOM      3  C   UNL     1       3.912   0.529  -1.094  0.00  0.00    +0.052 C 
ATOM      4  S   UNL     1       2.683  -0.354  -2.156  0.00  0.00    -0.181 S 
ATOM      5  C   UNL     1       1.175   0.386  -1.389  0.00  0.00    -0.005 C 
ATOM      6  C   UNL     1       1.036   2.115   0.292  0.00  0.00    +0.052 C 
ATOM      7  C   UNL     1       2.103   2.051   1.391  0.00  0.00    +0.069 C 
ATOM      8  C   UNL     1       0.440   3.493   0.192  0.00  0.00    -0.027 A 
ATOM      9  C   UNL     1       0.970   4.734  -0.079  0.00  0.00    +0.004 A 
ATOM     10  C   UNL     1       0.149   5.847  -0.103  0.00  0.00    +0.000 A 
ATOM     11  C   UNL     1      -1.205   5.709   0.145  0.00  0.00    +0.002 A 
ATOM     12  C   UNL     1      -1.740   4.467   0.417  0.00  0.00    +0.023 A 
ATOM     13  C   UNL     1      -0.919   3.341   0.443  0.00  0.00    +0.036 A 
ATOM     14  N   UNL     1      -1.220   2.000   0.685  0.00  0.00    -0.286 N 
ATOM     15  C   UNL     1      -0.128   1.215   0.620  0.00  0.00    +0.212 C 
ATOM     16  O   UNL     1      -0.089   0.014   0.788  0.00  0.00    -0.277 OA
ATOM     17  H   UNL     1      -2.111   1.671   0.880  0.00  0.00    +0.155 HD
ATOM     18  N   UNL     1       1.655   1.757  -0.973  0.00  0.00    +0.401 N 
ATOM     19  H   UNL     1       1.372   2.432  -1.692  0.00  0.00    -0.078 HD
ENDROOT
BRANCH   1  23
ATOM     20  C   UNL     1       6.586  -0.025   2.323  0.00  0.00    +0.000 A 
ATOM     21  C   UNL     1       5.282  -0.481   2.388  0.00  0.00    +0.000 A 
ATOM     22  C   UNL     1       4.259   0.270   1.840  0.00  0.00    +0.004 A 
ATOM     23  C   UNL     1       4.540   1.477   1.226  0.00  0.00    -0.045 A 
ATOM     24  C   UNL     1       5.844   1.930   1.156  0.00  0.00    +0.004 A 
ATOM     25  C   UNL     1       6.866   1.182   1.710  0.00  0.00    +0.000 A 
ENDBRANCH   1  23
BRANCH   7  26
ATOM     26  C   UNL     1       1.875   3.132   2.416  0.00  0.00    +0.166 C 
ATOM     27  O   UNL     1       2.408   4.214   2.284  0.00  0.00    -0.292 OA
BRANCH  26  28
ATOM     28  C   UNL     1       1.006   2.876   3.576  0.00  0.00    +0.020 A 
ATOM     29  C   UNL     1       0.391   1.629   3.731  0.00  0.00    +0.011 A 
ATOM     30  C   UNL     1      -0.421   1.397   4.820  0.00  0.00    +0.003 A 
ATOM     31  C   UNL     1      -0.628   2.392   5.760  0.00  0.00    +0.033 A 
ATOM     32  C   UNL     1      -0.022   3.628   5.613  0.00  0.00    +0.127 A 
ATOM     33  C   UNL     1       0.797   3.875   4.531  0.00  0.00    +0.044 A 
BRANCH  32  34
ATOM     34  N   UNL     1      -0.250   4.686   6.623  0.00  0.00    +0.056 N 
ATOM     35  O   UNL     1      -0.969   4.468   7.582  0.00  0.00    -0.126 OA
ATOM     36  O   UNL     1       0.282   5.774   6.496  0.00  0.00    -0.126 OA
ENDBRANCH  32  34
ENDBRANCH  26  28
ENDBRANCH   7  26
TORSDOF 4
