REMARK  Name = ZINC10106270
REMARK  9 active torsions:
REMARK  status: ('A' for Active; 'I' for Inactive)
REMARK    1  A    between atoms: C_1  and  C_2
REMARK    2  A    between atoms: C_2  and  O_3
REMARK    3  A    between atoms: O_3  and  C_4
REMARK    4  A    between atoms: C_4  and  C_6
REMARK    5  A    between atoms: C_6  and  N_7
REMARK    6  A    between atoms: C_11  and  S_25
REMARK    7  A    between atoms: N_16  and  C_17
REMARK    8  A    between atoms: C_17  and  C_19
REMARK    9  A    between atoms: S_25  and  N_28
REMARK                            x       y       z     vdW  Elec       q    Type
REMARK                         _______ _______ _______ _____ _____    ______ ____
ROOT
ATOM      1  N   UNL     1      -5.195   5.402   2.349  0.00  0.00    -0.310 N 
ATOM      2  C   UNL     1      -6.184   5.499   3.310  0.00  0.00    +0.058 A 
ATOM      3  C   UNL     1      -7.180   6.479   3.440  0.00  0.00    +0.029 A 
ATOM      4  C   UNL     1      -8.094   6.422   4.465  0.00  0.00    +0.030 A 
ATOM      5  C   UNL     1      -8.061   5.400   5.399  0.00  0.00    +0.106 A 
ATOM      6  C   UNL     1      -7.090   4.420   5.296  0.00  0.00    +0.045 A 
ATOM      7  C   UNL     1      -6.176   4.476   4.270  0.00  0.00    +0.041 A 
ATOM      8  S   UNL     1      -4.810   3.459   3.769  0.00  0.00    -0.052 S 
ATOM      9  C   UNL     1      -4.310   4.372   2.382  0.00  0.00    +0.167 A 
ATOM     10  N   UNL     1      -3.303   4.121   1.548  0.00  0.00    -0.154 NA
ENDROOT
BRANCH   5  11
ATOM     11  S   UNL     1      -9.244   5.347   6.705  0.00  0.00    +0.056 S 
ATOM     12  O   UNL     1      -8.656   4.592   7.755  0.00  0.00    -0.153 OA
ATOM     13  O   UNL     1      -9.704   6.679   6.889  0.00  0.00    -0.153 OA
BRANCH  11  14
ATOM     14  N   UNL     1     -10.538   4.470   6.158  0.00  0.00    -0.204 NA
ATOM     15  H   UNL     1     -11.302   4.414   6.947  0.00  0.00    +0.144 HD
ATOM     16  H   UNL     1     -10.207   3.455   5.894  0.00  0.00    +0.144 HD
ENDBRANCH  11  14
ENDBRANCH   5  11
BRANCH  10  17
ATOM     17  C   UNL     1      -2.533   3.055   1.738  0.00  0.00    +0.267 C 
ATOM     18  O   UNL     1      -2.747   2.309   2.674  0.00  0.00    -0.271 OA
BRANCH  17  19
ATOM     19  C   UNL     1      -1.394   2.771   0.793  0.00  0.00    +0.206 C 
ATOM     20  C   UNL     1      -1.928   2.453  -0.626  0.00  0.00    +0.043 C 
ATOM     21  C   UNL     1      -0.778   1.606  -1.224  0.00  0.00    +0.031 C 
ATOM     22  C   UNL     1      -0.013   1.086   0.008  0.00  0.00    +0.161 C 
ATOM     23  O   UNL     1      -0.705   1.559   1.176  0.00  0.00    -0.367 OA
ENDBRANCH  17  19
ENDBRANCH  10  17
BRANCH   1  24
ATOM     24  C   UNL     1      -5.102   6.413   1.292  0.00  0.00    +0.244 C 
BRANCH  24  25
ATOM     25  C   UNL     1      -5.939   5.985   0.113  0.00  0.00    +0.327 C 
ATOM     26  O   UNL     1      -6.550   4.944   0.152  0.00  0.00    -0.249 OA
BRANCH  25  27
ATOM     27  O   UNL     1      -6.005   6.762  -0.980  0.00  0.00    -0.464 OA
BRANCH  27  29
ATOM     28  C   UNL     1      -6.782   7.297  -3.225  0.00  0.00    +0.048 C 
ATOM     29  C   UNL     1      -6.830   6.287  -2.076  0.00  0.00    +0.229 C 
ENDBRANCH  27  29
ENDBRANCH  25  27
ENDBRANCH  24  25
ENDBRANCH   1  24
TORSDOF 8
