REMARK  Name = ZINC32101151
REMARK  10 active torsions:
REMARK  status: ('A' for Active; 'I' for Inactive)
REMARK    1  A    between atoms: C_1  and  C_2
REMARK    2  A    between atoms: C_5  and  C_8
REMARK    3  A    between atoms: C_11  and  C_13
REMARK    4  A    between atoms: C_11  and  O_17
REMARK    5  A    between atoms: C_18  and  C_20
REMARK    6  A    between atoms: C_20  and  O_21
REMARK    7  A    between atoms: O_21  and  C_22
REMARK    8  A    between atoms: C_23  and  C_30
REMARK    9  A    between atoms: C_25  and  C_29
REMARK   10  A    between atoms: C_27  and  C_28
REMARK                            x       y       z     vdW  Elec       q    Type
REMARK                         _______ _______ _______ _____ _____    ______ ____
ROOT
ATOM      1  C   UNL     1       4.258   4.944  -0.012  0.00  0.00    +0.071 C 
ATOM      2  N   UNL     1       3.426   3.961  -0.003  0.00  0.00    -0.178 NA
ATOM      3  N   UNL     1       2.088   4.347   0.005  0.00  0.00    -0.149 N 
ATOM      4  C   UNL     1       2.018   5.817   0.014  0.00  0.00    +0.257 C 
ATOM      5  C   UNL     1       3.497   6.250   0.002  0.00  0.00    +0.124 C 
ATOM      6  C   UNL     1       1.030   3.512   0.011  0.00  0.00    +0.275 C 
ATOM      7  O   UNL     1      -0.097   3.960   0.024  0.00  0.00    -0.270 OA
ENDROOT
BRANCH   1  12
ATOM      8  C   UNL     1       9.988   4.442  -0.070  0.00  0.00    +0.044 C 
ATOM      9  C   UNL     1       8.486   4.574  -0.055  0.00  0.00    -0.050 A 
ATOM     10  C   UNL     1       7.696   3.438  -0.054  0.00  0.00    +0.004 A 
ATOM     11  C   UNL     1       6.321   3.551  -0.039  0.00  0.00    +0.010 A 
ATOM     12  C   UNL     1       5.728   4.815  -0.027  0.00  0.00    -0.002 A 
ATOM     13  C   UNL     1       6.532   5.957  -0.034  0.00  0.00    +0.010 A 
ATOM     14  C   UNL     1       7.905   5.829  -0.043  0.00  0.00    +0.004 A 
ENDBRANCH   1  12
BRANCH   4  15
ATOM     15  C   UNL     1       1.321   6.316   1.282  0.00  0.00    +0.438 C 
ATOM     16  F   UNL     1       2.018   5.862   2.406  0.00  0.00    -0.166 F 
ATOM     17  F   UNL     1       1.297   7.715   1.281  0.00  0.00    -0.166 F 
ATOM     18  F   UNL     1       0.011   5.827   1.317  0.00  0.00    -0.166 F 
ENDBRANCH   4  15
BRANCH   4  19
ATOM     19  O   UNL     1       1.341   6.295  -1.151  0.00  0.00    -0.363 OA
ATOM     20  H   UNL     1       1.202   7.376  -1.301  0.00  0.00    +0.212 HD
ENDBRANCH   4  19
BRANCH   6  21
ATOM     21  C   UNL     1       1.248   2.021   0.001  0.00  0.00    +0.326 C 
BRANCH  21  22
ATOM     22  O   UNL     1      -0.016   1.355   0.009  0.00  0.00    -0.482 OA
BRANCH  22  23
ATOM     23  C   UNL     1       0.002  -0.004   0.002  0.00  0.00    +0.127 A 
ATOM     24  C   UNL     1      -0.006  -0.692  -1.202  0.00  0.00    -0.008 A 
ATOM     25  C   UNL     1       0.019  -2.074  -1.207  0.00  0.00    +0.010 A 
ATOM     26  C   UNL     1       0.040  -2.770  -0.013  0.00  0.00    -0.050 A 
ATOM     27  C   UNL     1       0.042  -2.087   1.189  0.00  0.00    +0.010 A 
ATOM     28  C   UNL     1       0.023  -0.705   1.199  0.00  0.00    -0.008 A 
ATOM     29  C   UNL     1       0.026   0.039   2.509  0.00  0.00    +0.047 C 
ATOM     30  C   UNL     1       0.060  -4.277  -0.021  0.00  0.00    +0.044 C 
ATOM     31  C   UNL     1      -0.035   0.066  -2.504  0.00  0.00    +0.047 C 
ENDBRANCH  22  23
ENDBRANCH  21  22
ENDBRANCH   6  21
TORSDOF 6
