REMARK  Name = ZINC66952373
REMARK  9 active torsions:
REMARK  status: ('A' for Active; 'I' for Inactive)
REMARK    1  A    between atoms: C_1  and  C_2
REMARK    2  A    between atoms: C_2  and  C_3
REMARK    3  A    between atoms: C_2  and  C_4
REMARK    4  A    between atoms: C_2  and  N_5
REMARK    5  A    between atoms: C_6  and  C_8
REMARK    6  A    between atoms: C_12  and  N_14
REMARK    7  A    between atoms: N_17  and  C_18
REMARK    8  A    between atoms: C_18  and  C_19
REMARK    9  A    between atoms: C_19  and  O_29
REMARK                            x       y       z     vdW  Elec       q    Type
REMARK                         _______ _______ _______ _____ _____    ______ ____
ROOT
ATOM      1  N   UNL     1       5.941  -0.215  -4.345  0.00  0.00    -0.269 N 
ATOM      2  C   UNL     1       6.605  -0.781  -5.372  0.00  0.00    +0.304 C 
ATOM      3  O   UNL     1       6.008  -1.475  -6.173  0.00  0.00    -0.253 OA
ATOM      4  N   UNL     1       7.929  -0.577  -5.513  0.00  0.00    -0.296 N 
ATOM      5  H   UNL     1       6.401   0.399  -3.750  0.00  0.00    +0.156 HD
ATOM      6  H   UNL     1       8.406  -0.023  -4.875  0.00  0.00    +0.150 HD
ENDROOT
BRANCH   1  11
ATOM      7  C   UNL     1       2.754  -2.064  -4.237  0.00  0.00    +0.038 A 
ATOM      8  C   UNL     1       1.906  -1.086  -3.713  0.00  0.00    +0.013 A 
ATOM      9  C   UNL     1       2.402   0.164  -3.406  0.00  0.00    +0.003 A 
ATOM     10  C   UNL     1       3.738   0.453  -3.614  0.00  0.00    +0.023 A 
ATOM     11  C   UNL     1       4.590  -0.513  -4.135  0.00  0.00    +0.035 A 
ATOM     12  C   UNL     1       4.102  -1.774  -4.442  0.00  0.00    +0.036 A 
BRANCH   7  14
ATOM     13  N   UNL     1       0.921  -3.682  -4.369  0.00  0.00    -0.307 N 
ATOM     14  C   UNL     1       2.225  -3.404  -4.568  0.00  0.00    +0.245 C 
ATOM     15  O   UNL     1       2.966  -4.256  -5.019  0.00  0.00    -0.270 OA
ATOM     16  H   UNL     1       0.330  -3.003  -4.009  0.00  0.00    +0.150 HD
BRANCH  13  18
ATOM     17  C   UNL     1       1.130  -6.067  -3.869  0.00  0.00    +0.031 C 
ATOM     18  C   UNL     1       0.397  -5.010  -4.697  0.00  0.00    +0.026 C 
ATOM     19  C   UNL     1       0.611  -5.290  -6.186  0.00  0.00    +0.031 C 
ATOM     20  C   UNL     1      -1.099  -5.061  -4.379  0.00  0.00    +0.031 C 
ENDBRANCH  13  18
ENDBRANCH   7  14
ENDBRANCH   1  11
BRANCH   4  21
ATOM     21  C   UNL     1       8.651  -1.192  -6.630  0.00  0.00    +0.145 C 
BRANCH  21  22
ATOM     22  C   UNL     1      10.139  -0.857  -6.522  0.00  0.00    +0.107 C 
ATOM     23  C   UNL     1      10.313   0.660  -6.479  0.00  0.00    +0.041 C 
ATOM     24  C   UNL     1      11.808   0.980  -6.592  0.00  0.00    +0.008 C 
ATOM     25  C   UNL     1      12.267   0.645  -8.009  0.00  0.00    +0.035 C 
ATOM     26  C   UNL     1      11.846  -0.751  -8.386  0.00  0.00    -0.041 A 
ATOM     27  C   UNL     1      10.867  -1.440  -7.706  0.00  0.00    -0.011 A 
ATOM     28  C   UNL     1      10.522  -2.723  -8.109  0.00  0.00    +0.007 A 
ATOM     29  C   UNL     1      11.154  -3.314  -9.183  0.00  0.00    +0.000 A 
ATOM     30  C   UNL     1      12.140  -2.625  -9.864  0.00  0.00    +0.000 A 
ATOM     31  C   UNL     1      12.483  -1.349  -9.466  0.00  0.00    +0.004 A 
BRANCH  22  32
ATOM     32  O   UNL     1      10.664  -1.424  -5.321  0.00  0.00    -0.382 OA
ATOM     33  H   UNL     1      10.582  -2.387  -5.271  0.00  0.00    +0.211 HD
ENDBRANCH  22  32
ENDBRANCH  21  22
ENDBRANCH   4  21
TORSDOF 6
