REMARK  Name = ZINC44713759
REMARK  10 active torsions:
REMARK  status: ('A' for Active; 'I' for Inactive)
REMARK    1  A    between atoms: C_1  and  C_2
REMARK    2  A    between atoms: C_2  and  C_3
REMARK    3  A    between atoms: C_3  and  C_5
REMARK    4  A    between atoms: C_3  and  C_6
REMARK    5  A    between atoms: C_10  and  C_19
REMARK    6  A    between atoms: N_21  and  C_22
REMARK    7  A    between atoms: C_22  and  C_24
REMARK    8  A    between atoms: C_22  and  C_25
REMARK    9  A    between atoms: C_26  and  C_32
REMARK   10  A    between atoms: C_30  and  C_31
REMARK                            x       y       z     vdW  Elec       q    Type
REMARK                         _______ _______ _______ _____ _____    ______ ____
ROOT
ATOM      1  C   UNL     1      -1.369  -1.918   0.450  0.00  0.00    +0.218 C 
ATOM      2  O   UNL     1      -0.363  -2.550   0.697  0.00  0.00    -0.275 OA
ATOM      3  N   UNL     1      -2.541  -2.560   0.270  0.00  0.00    -0.300 N 
ATOM      4  C   UNL     1      -3.839  -1.981  -0.148  0.00  0.00    +0.121 C 
ATOM      5  C   UNL     1      -4.443  -3.030  -1.108  0.00  0.00    +0.100 C 
ATOM      6  C   UNL     1      -3.773  -4.356  -0.713  0.00  0.00    -0.004 C 
ATOM      7  C   UNL     1      -2.820  -4.006   0.439  0.00  0.00    +0.115 C 
ATOM      8  C   UNL     1      -2.984  -4.921  -1.889  0.00  0.00    -0.010 C 
ATOM      9  C   UNL     1      -2.374  -6.268  -1.490  0.00  0.00    -0.082 C 
ATOM     10  N   UNL     1      -3.443  -7.195  -1.101  0.00  0.00    +0.379 N 
ATOM     11  C   UNL     1      -4.138  -6.689   0.088  0.00  0.00    -0.082 C 
ATOM     12  C   UNL     1      -4.822  -5.360  -0.244  0.00  0.00    -0.010 C 
ATOM     13  H   UNL     1      -4.101  -7.285  -1.861  0.00  0.00    -0.086 HD
ATOM     14  H   UNL     1      -3.045  -8.099  -0.897  0.00  0.00    -0.086 HD
ENDROOT
BRANCH   5  15
ATOM     15  C   UNL     1      -4.119  -2.681  -2.538  0.00  0.00    +0.219 C 
ATOM     16  O   UNL     1      -3.134  -2.021  -2.793  0.00  0.00    -0.275 OA
ATOM     17  N   UNL     1      -4.923  -3.103  -3.534  0.00  0.00    -0.308 N 
ATOM     18  H   UNL     1      -5.711  -3.631  -3.330  0.00  0.00    +0.149 HD
BRANCH  17  19
ATOM     19  C   UNL     1      -4.608  -2.765  -4.924  0.00  0.00    +0.104 C 
ATOM     20  C   UNL     1      -3.619  -3.788  -5.486  0.00  0.00    +0.033 C 
BRANCH  19  21
ATOM     21  C   UNL     1      -5.872  -2.783  -5.744  0.00  0.00    +0.015 A 
ATOM     22  C   UNL     1      -6.243  -1.853  -6.654  0.00  0.00    +0.038 A 
ATOM     23  N   UNL     1      -7.432  -2.233  -7.168  0.00  0.00    -0.281 N 
ATOM     24  H   UNL     1      -7.940  -1.757  -7.843  0.00  0.00    +0.189 HD
ATOM     25  N   UNL     1      -7.804  -3.435  -6.553  0.00  0.00    -0.179 NA
ATOM     26  C   UNL     1      -6.865  -3.767  -5.704  0.00  0.00    +0.065 A 
ATOM     27  C   UNL     1      -6.856  -4.996  -4.832  0.00  0.00    +0.068 C 
ATOM     28  C   UNL     1      -5.469  -0.616  -7.028  0.00  0.00    +0.065 C 
ENDBRANCH  19  21
ENDBRANCH  17  19
ENDBRANCH   5  15
BRANCH   1  29
ATOM     29  C   UNL     1      -1.309  -0.416   0.344  0.00  0.00    +0.072 C 
ATOM     30  C   UNL     1       0.034  -0.001  -0.259  0.00  0.00    +0.017 C 
BRANCH  29  32
ATOM     31  C   UNL     1      -1.519   1.723   1.617  0.00  0.00    +0.004 C 
ATOM     32  C   UNL     1      -1.455   0.199   1.737  0.00  0.00    +0.009 C 
ENDBRANCH  29  32
ENDBRANCH   1  29
TORSDOF 5
