REMARK  Name = ZINC08344361
REMARK  6 active torsions:
REMARK  status: ('A' for Active; 'I' for Inactive)
REMARK    1  A    between atoms: C_1  and  C_2
REMARK    2  A    between atoms: C_4  and  S_12
REMARK    3  A    between atoms: S_12  and  C_13
REMARK    4  A    between atoms: C_13  and  C_15
REMARK    5  A    between atoms: C_13  and  C_21
REMARK    6  A    between atoms: N_26  and  C_27
REMARK                            x       y       z     vdW  Elec       q    Type
REMARK                         _______ _______ _______ _____ _____    ______ ____
ROOT
ATOM      1  C   UNL     1       3.015  -2.758  -0.041  0.00  0.00    +0.169 C 
ENDROOT
BRANCH   1   2
ATOM      2  C   UNL     1       3.266  -4.238  -0.175  0.00  0.00    +0.238 C 
ATOM      3  O   UNL     1       2.392  -5.029   0.109  0.00  0.00    -0.274 OA
ATOM      4  N   UNL     1       4.462  -4.682  -0.610  0.00  0.00    -0.239 N 
ATOM      5  C   UNL     1       4.687  -6.005  -0.730  0.00  0.00    +0.306 C 
ATOM      6  O   UNL     1       3.811  -6.799  -0.445  0.00  0.00    -0.252 OA
ATOM      7  N   UNL     1       5.882  -6.449  -1.165  0.00  0.00    -0.302 N 
ATOM      8  C   UNL     1       6.127  -7.888  -1.295  0.00  0.00    +0.129 C 
ATOM      9  H   UNL     1       5.161  -4.049  -0.837  0.00  0.00    +0.159 HD
ATOM     10  H   UNL     1       6.581  -5.816  -1.392  0.00  0.00    +0.150 HD
ENDBRANCH   1   2
BRANCH   1  11
ATOM     11  C   UNL     1       3.625  -2.259   1.243  0.00  0.00    -0.025 A 
ATOM     12  C   UNL     1       3.204  -2.775   2.454  0.00  0.00    +0.005 A 
ATOM     13  C   UNL     1       3.768  -2.321   3.632  0.00  0.00    +0.000 A 
ATOM     14  C   UNL     1       4.744  -1.343   3.599  0.00  0.00    +0.000 A 
ATOM     15  C   UNL     1       5.161  -0.824   2.388  0.00  0.00    +0.000 A 
ATOM     16  C   UNL     1       4.601  -1.281   1.210  0.00  0.00    +0.005 A 
ENDBRANCH   1  11
BRANCH   1  17
ATOM     17  S   UNL     1       1.232  -2.448  -0.022  0.00  0.00    -0.088 S 
BRANCH  17  21
ATOM     18  C   UNL     1      -1.321   2.113   0.020  0.00  0.00    +0.044 C 
ATOM     19  C   UNL     1      -0.016   1.358   0.009  0.00  0.00    -0.039 A 
ATOM     20  C   UNL     1       0.002  -0.004   0.002  0.00  0.00    +0.038 A 
ATOM     21  C   UNL     1       1.228  -0.686  -0.013  0.00  0.00    +0.099 A 
ATOM     22  N   UNL     1       2.376  -0.040  -0.021  0.00  0.00    -0.240 NA
ATOM     23  C   UNL     1       2.420   1.297  -0.014  0.00  0.00    +0.072 A 
ATOM     24  C   UNL     1       1.216   2.043   0.001  0.00  0.00    +0.003 A 
ATOM     25  C   UNL     1       1.269   3.446   0.009  0.00  0.00    +0.010 A 
ATOM     26  C   UNL     1       2.478   4.074   0.001  0.00  0.00    +0.001 A 
ATOM     27  C   UNL     1       3.663   3.342  -0.014  0.00  0.00    +0.002 A 
ATOM     28  C   UNL     1       3.648   1.981  -0.021  0.00  0.00    +0.028 A 
ENDBRANCH  17  21
ENDBRANCH   1  17
TORSDOF 4
