REMARK  Name = ZINC63567653
REMARK  11 active torsions:
REMARK  status: ('A' for Active; 'I' for Inactive)
REMARK    1  A    between atoms: C_1  and  C_2
REMARK    2  A    between atoms: C_2  and  O_3
REMARK    3  A    between atoms: O_3  and  C_4
REMARK    4  A    between atoms: C_4  and  C_6
REMARK    5  A    between atoms: C_7  and  C_39
REMARK    6  A    between atoms: C_9  and  C_13
REMARK    7  A    between atoms: C_10  and  C_12
REMARK    8  A    between atoms: C_13  and  C_15
REMARK    9  A    between atoms: C_15  and  S_16
REMARK   10  A    between atoms: S_16  and  C_17
REMARK   11  A    between atoms: N_32  and  C_33
REMARK                            x       y       z     vdW  Elec       q    Type
REMARK                         _______ _______ _______ _____ _____    ______ ____
ROOT
ATOM      1  C   UNL     1       4.580  -4.383  -8.581  0.00  0.00    +0.260 C 
ATOM      2  N   UNL     1       5.688  -4.824  -7.728  0.00  0.00    -0.243 NA
ATOM      3  C   UNL     1       5.681  -6.017  -7.255  0.00  0.00    +0.107 C 
ATOM      4  C   UNL     1       4.660  -7.049  -7.622  0.00  0.00    +0.069 C 
ATOM      5  C   UNL     1       4.593  -8.152  -6.885  0.00  0.00    -0.042 C 
ATOM      6  C   UNL     1       5.570  -8.234  -5.708  0.00  0.00    +0.079 C 
ATOM      7  S   UNL     1       6.731  -6.863  -6.107  0.00  0.00    -0.098 S 
ATOM      8  C   UNL     1       6.299  -9.576  -5.816  0.00  0.00    +0.019 C 
ATOM      9  C   UNL     1       5.264 -10.703  -5.878  0.00  0.00    +0.002 C 
ATOM     10  C   UNL     1       4.435 -10.596  -7.157  0.00  0.00    +0.004 C 
ATOM     11  C   UNL     1       3.631  -9.305  -7.154  0.00  0.00    +0.033 C 
ATOM     12  C   UNL     1       3.801  -6.730  -8.810  0.00  0.00    +0.256 C 
ATOM     13  O   UNL     1       3.077  -7.557  -9.329  0.00  0.00    -0.269 OA
ATOM     14  N   UNL     1       3.889  -5.463  -9.262  0.00  0.00    -0.236 N 
ENDROOT
BRANCH  14  15
ATOM     15  C   UNL     1       3.266  -5.168 -10.479  0.00  0.00    +0.039 A 
ATOM     16  C   UNL     1       1.930  -4.790 -10.503  0.00  0.00    +0.023 A 
ATOM     17  C   UNL     1       1.317  -4.500 -11.706  0.00  0.00    +0.002 A 
ATOM     18  C   UNL     1       2.033  -4.586 -12.886  0.00  0.00    +0.000 A 
ATOM     19  C   UNL     1       3.364  -4.962 -12.866  0.00  0.00    +0.002 A 
ATOM     20  C   UNL     1       3.984  -5.247 -11.665  0.00  0.00    +0.023 A 
ENDBRANCH  14  15
BRANCH   1  21
ATOM     21  S   UNL     1       3.382  -3.489  -7.553  0.00  0.00    -0.107 S 
BRANCH  21  22
ATOM     22  C   UNL     1       2.812  -4.732  -6.362  0.00  0.00    +0.153 C 
BRANCH  22  23
ATOM     23  C   UNL     1       1.799  -4.112  -5.435  0.00  0.00    +0.188 C 
ATOM     24  O   UNL     1       1.491  -2.947  -5.566  0.00  0.00    -0.290 OA
BRANCH  23  28
ATOM     25  C   UNL     1      -0.098  -5.710  -2.540  0.00  0.00    +0.066 C 
ATOM     26  C   UNL     1       0.708  -6.652  -3.087  0.00  0.00    +0.049 C 
ATOM     27  N   UNL     1       1.413  -6.176  -4.114  0.00  0.00    -0.252 NA
ATOM     28  C   UNL     1       1.182  -4.921  -4.372  0.00  0.00    +0.092 C 
ATOM     29  C   UNL     1       0.147  -4.460  -3.365  0.00  0.00    +0.077 C 
ATOM     30  C   UNL     1      -1.137  -4.014  -4.068  0.00  0.00    +0.019 C 
ATOM     31  C   UNL     1       0.797  -8.072  -2.591  0.00  0.00    +0.066 C 
BRANCH  25  32
ATOM     32  C   UNL     1      -1.012  -5.866  -1.403  0.00  0.00    +0.338 C 
ATOM     33  O   UNL     1      -1.101  -6.939  -0.838  0.00  0.00    -0.245 OA
BRANCH  32  34
ATOM     34  O   UNL     1      -1.754  -4.820  -0.986  0.00  0.00    -0.462 OA
BRANCH  34  36
ATOM     35  C   UNL     1      -3.376  -3.753   0.453  0.00  0.00    +0.048 C 
ATOM     36  C   UNL     1      -2.623  -5.044   0.127  0.00  0.00    +0.229 C 
ENDBRANCH  34  36
ENDBRANCH  32  34
ENDBRANCH  25  32
ENDBRANCH  23  28
ENDBRANCH  22  23
ENDBRANCH  21  22
ENDBRANCH   1  21
TORSDOF 8
