REMARK  Name = ZINC40734847
REMARK  10 active torsions:
REMARK  status: ('A' for Active; 'I' for Inactive)
REMARK    1  A    between atoms: C_1  and  C_2
REMARK    2  A    between atoms: C_7  and  C_9
REMARK    3  A    between atoms: C_7  and  C_10
REMARK    4  A    between atoms: C_14  and  N_30
REMARK    5  A    between atoms: C_15  and  N_19
REMARK    6  A    between atoms: N_19  and  C_20
REMARK    7  A    between atoms: C_22  and  C_28
REMARK    8  A    between atoms: C_22  and  C_29
REMARK    9  A    between atoms: C_24  and  C_26
REMARK   10  A    between atoms: C_24  and  C_27
REMARK                            x       y       z     vdW  Elec       q    Type
REMARK                         _______ _______ _______ _____ _____    ______ ____
ROOT
ATOM      1  C   UNL     1      -0.498  -0.799   2.174  0.00  0.00    +0.013 C 
ATOM      2  C   UNL     1      -0.984  -2.218   1.845  0.00  0.00    -0.014 C 
ATOM      3  C   UNL     1      -0.012  -2.970   0.895  0.00  0.00    +0.030 C 
ATOM      4  C   UNL     1      -0.962  -4.080   0.378  0.00  0.00    +0.076 C 
ATOM      5  C   UNL     1      -1.112  -5.106   1.498  0.00  0.00    +0.029 C 
ATOM      6  C   UNL     1      -1.582  -4.516   2.816  0.00  0.00    -0.033 C 
ATOM      7  C   UNL     1      -1.162  -3.084   3.091  0.00  0.00    +0.014 C 
ATOM      8  C   UNL     1      -0.984  -5.392   3.945  0.00  0.00    +0.011 C 
ATOM      9  C   UNL     1      -3.108  -4.647   2.928  0.00  0.00    +0.011 C 
ATOM     10  N   UNL     1      -2.257  -3.402   0.167  0.00  0.00    -0.310 N 
ATOM     11  C   UNL     1      -2.300  -2.215   1.035  0.00  0.00    +0.113 C 
ATOM     12  C   UNL     1      -3.259  -3.807  -0.707  0.00  0.00    +0.147 A 
ATOM     13  C   UNL     1      -4.491  -3.152  -0.725  0.00  0.00    +0.105 A 
ATOM     14  C   UNL     1      -5.462  -3.599  -1.623  0.00  0.00    +0.145 A 
ATOM     15  N   UNL     1      -5.178  -4.625  -2.422  0.00  0.00    -0.219 NA
ATOM     16  C   UNL     1      -4.001  -5.216  -2.373  0.00  0.00    +0.225 A 
ATOM     17  N   UNL     1      -3.056  -4.822  -1.544  0.00  0.00    -0.219 NA
ENDROOT
BRANCH  13  18
ATOM     18  N   UNL     1      -4.748  -2.073   0.136  0.00  0.00    -0.353 N 
ATOM     19  H   UNL     1      -4.030  -1.468   0.383  0.00  0.00    +0.143 HD
ATOM     20  H   UNL     1      -5.642  -1.932   0.484  0.00  0.00    +0.143 HD
ENDBRANCH  13  18
BRANCH  14  21
ATOM     21  N   UNL     1      -6.706  -2.982  -1.682  0.00  0.00    -0.325 N 
ATOM     22  H   UNL     1      -6.905  -2.235  -1.096  0.00  0.00    +0.148 HD
BRANCH  21  23
ATOM     23  C   UNL     1      -7.719  -3.462  -2.631  0.00  0.00    +0.069 C 
ATOM     24  C   UNL     1      -7.513  -2.768  -3.979  0.00  0.00    +0.009 C 
ATOM     25  C   UNL     1      -8.569  -3.248  -4.974  0.00  0.00    -0.072 C 
ATOM     26  N   UNL     1      -9.921  -3.083  -4.463  0.00  0.00    +0.386 N 
ATOM     27  C   UNL     1     -10.187  -3.523  -3.103  0.00  0.00    -0.072 C 
ATOM     28  C   UNL     1      -9.109  -3.097  -2.111  0.00  0.00    +0.009 C 
ATOM     29  C   UNL     1     -10.396  -5.037  -3.028  0.00  0.00    -0.010 C 
ATOM     30  C   UNL     1     -11.512  -2.862  -2.652  0.00  0.00    -0.010 C 
ATOM     31  C   UNL     1      -8.437  -2.370  -6.240  0.00  0.00    -0.010 C 
ATOM     32  C   UNL     1      -8.284  -4.690  -5.393  0.00  0.00    -0.010 C 
ATOM     33  H   UNL     1     -10.172  -2.094  -4.536  0.00  0.00    -0.084 HD
ATOM     34  H   UNL     1     -10.564  -3.570  -5.091  0.00  0.00    -0.084 HD
ENDBRANCH  21  23
ENDBRANCH  14  21
TORSDOF 3
