REMARK  Name = ZINC35646735
REMARK  10 active torsions:
REMARK  status: ('A' for Active; 'I' for Inactive)
REMARK    1  A    between atoms: C_1  and  C_2
REMARK    2  A    between atoms: C_2  and  O_3
REMARK    3  A    between atoms: O_3  and  C_4
REMARK    4  A    between atoms: C_4  and  C_6
REMARK    5  A    between atoms: C_7  and  C_25
REMARK    6  A    between atoms: N_8  and  C_24
REMARK    7  A    between atoms: C_12  and  C_14
REMARK    8  A    between atoms: C_19  and  C_20
REMARK    9  A    between atoms: C_25  and  N_26
REMARK   10  A    between atoms: C_32  and  C_34
REMARK                            x       y       z     vdW  Elec       q    Type
REMARK                         _______ _______ _______ _____ _____    ______ ____
ROOT
ATOM      1  C   UNL     1       1.723  -1.772  -2.752  0.00  0.00    +0.080 C 
ATOM      2  C   UNL     1       1.809  -3.115  -2.630  0.00  0.00    +0.041 C 
ATOM      3  N   UNL     1       2.304  -3.884  -3.644  0.00  0.00    -0.260 N 
ATOM      4  C   UNL     1       2.732  -3.388  -4.811  0.00  0.00    +0.307 C 
ATOM      5  O   UNL     1       3.156  -4.153  -5.655  0.00  0.00    -0.252 OA
ATOM      6  N   UNL     1       2.709  -2.068  -5.082  0.00  0.00    -0.288 N 
ATOM      7  C   UNL     1       2.187  -1.151  -4.054  0.00  0.00    +0.144 C 
ATOM      8  C   UNL     1       2.369  -5.334  -3.443  0.00  0.00    +0.139 C 
ATOM      9  H   UNL     1       3.025  -1.730  -5.934  0.00  0.00    +0.151 HD
ENDROOT
BRANCH   7  10
ATOM     10  C   UNL     1       1.028  -0.393  -4.646  0.00  0.00    -0.011 A 
ATOM     11  C   UNL     1      -0.001  -1.077  -5.268  0.00  0.00    +0.006 A 
ATOM     12  C   UNL     1      -1.064  -0.381  -5.811  0.00  0.00    +0.000 A 
ATOM     13  C   UNL     1      -1.100   0.999  -5.733  0.00  0.00    +0.001 A 
ATOM     14  C   UNL     1      -0.072   1.683  -5.111  0.00  0.00    +0.013 A 
ATOM     15  C   UNL     1       0.990   0.987  -4.564  0.00  0.00    +0.060 A 
BRANCH  15  16
ATOM     16  C   UNL     1       2.108   1.732  -3.881  0.00  0.00    +0.418 C 
ATOM     17  F   UNL     1       1.891   3.109  -4.001  0.00  0.00    -0.166 F 
ATOM     18  F   UNL     1       2.143   1.381  -2.527  0.00  0.00    -0.166 F 
ATOM     19  F   UNL     1       3.326   1.397  -4.482  0.00  0.00    -0.166 F 
ENDBRANCH  15  16
ENDBRANCH   7  10
BRANCH   1  20
ATOM     20  C   UNL     1       1.210  -0.974  -1.703  0.00  0.00    +0.339 C 
ATOM     21  O   UNL     1       0.058  -0.585  -1.741  0.00  0.00    -0.245 OA
BRANCH  20  22
ATOM     22  O   UNL     1       2.000  -0.644  -0.659  0.00  0.00    -0.462 OA
BRANCH  22  24
ATOM     23  C   UNL     1       2.451   0.443   1.452  0.00  0.00    +0.048 C 
ATOM     24  C   UNL     1       1.389   0.073   0.415  0.00  0.00    +0.229 C 
ENDBRANCH  22  24
ENDBRANCH  20  22
ENDBRANCH   1  20
BRANCH   2  25
ATOM     25  C   UNL     1       1.353  -3.774  -1.354  0.00  0.00    +0.136 C 
BRANCH  25  26
ATOM     26  N   UNL     1       0.133  -4.550  -1.612  0.00  0.00    -0.294 NA
ATOM     27  C   UNL     1      -0.984  -3.668  -1.977  0.00  0.00    +0.104 C 
ATOM     28  C   UNL     1      -2.181  -4.520  -2.413  0.00  0.00    +0.123 C 
ATOM     29  N   UNL     1      -2.477  -5.490  -1.348  0.00  0.00    -0.299 N 
ATOM     30  C   UNL     1      -1.374  -6.316  -0.833  0.00  0.00    +0.123 C 
ATOM     31  C   UNL     1      -0.209  -5.393  -0.459  0.00  0.00    +0.104 C 
ATOM     32  C   UNL     1      -3.725  -5.619  -0.857  0.00  0.00    +0.219 C 
ATOM     33  O   UNL     1      -4.623  -4.931  -1.294  0.00  0.00    -0.275 OA
BRANCH  32  34
ATOM     34  C   UNL     1      -4.006  -6.620   0.234  0.00  0.00    +0.075 C 
ATOM     35  C   UNL     1      -4.222  -8.052  -0.283  0.00  0.00    +0.013 C 
ATOM     36  C   UNL     1      -5.346  -8.175   0.760  0.00  0.00    +0.001 C 
ATOM     37  C   UNL     1      -5.476  -6.645   0.684  0.00  0.00    +0.013 C 
ENDBRANCH  32  34
ENDBRANCH  25  26
ENDBRANCH   2  25
TORSDOF 8
