REMARK  Name = ZINC36485135
REMARK  12 active torsions:
REMARK  status: ('A' for Active; 'I' for Inactive)
REMARK    1  A    between atoms: C_1  and  C_2
REMARK    2  A    between atoms: C_2  and  C_3
REMARK    3  A    between atoms: C_2  and  C_4
REMARK    4  A    between atoms: C_2  and  N_5
REMARK    5  A    between atoms: C_6  and  C_8
REMARK    6  A    between atoms: C_8  and  C_10
REMARK    7  A    between atoms: C_8  and  N_19
REMARK    8  A    between atoms: C_13  and  N_16
REMARK    9  A    between atoms: N_19  and  C_20
REMARK   10  A    between atoms: C_27  and  C_29
REMARK   11  A    between atoms: C_33  and  O_36
REMARK   12  A    between atoms: C_34  and  O_35
REMARK                            x       y       z     vdW  Elec       q    Type
REMARK                         _______ _______ _______ _____ _____    ______ ____
ROOT
ATOM      1  N   UNL     1       4.186  -0.552  -2.707  0.00  0.00    -0.251 N 
ATOM      2  C   UNL     1       4.613  -1.690  -2.125  0.00  0.00    +0.255 C 
ATOM      3  O   UNL     1       5.507  -2.336  -2.636  0.00  0.00    -0.269 OA
ENDROOT
BRANCH   1   4
ATOM      4  C   UNL     1       4.888  -0.015  -3.790  0.00  0.00    +0.039 A 
ATOM      5  C   UNL     1       6.117   0.601  -3.587  0.00  0.00    +0.023 A 
ATOM      6  C   UNL     1       6.808   1.131  -4.658  0.00  0.00    +0.003 A 
ATOM      7  C   UNL     1       6.279   1.050  -5.933  0.00  0.00    +0.020 A 
ATOM      8  C   UNL     1       5.056   0.438  -6.140  0.00  0.00    +0.043 A 
ATOM      9  C   UNL     1       4.361  -0.100  -5.072  0.00  0.00    +0.043 A 
ATOM     10 CL   UNL     1       4.395   0.339  -7.742  0.00  0.00    -0.083 Cl
ENDBRANCH   1   4
BRANCH   2  11
ATOM     11  C   UNL     1       3.997  -2.151  -0.867  0.00  0.00    +0.082 A 
ATOM     12  C   UNL     1       2.709  -1.731  -0.520  0.00  0.00    +0.017 A 
ATOM     13  C   UNL     1       2.136  -2.164   0.656  0.00  0.00    +0.005 A 
ATOM     14  C   UNL     1       2.830  -3.015   1.500  0.00  0.00    +0.049 A 
ATOM     15  C   UNL     1       4.106  -3.440   1.171  0.00  0.00    +0.159 A 
ATOM     16  C   UNL     1       4.695  -3.016  -0.016  0.00  0.00    +0.171 A 
BRANCH  16  17
ATOM     17  O   UNL     1       5.944  -3.435  -0.345  0.00  0.00    -0.503 OA
ATOM     18  H   UNL     1       6.650  -2.862  -0.017  0.00  0.00    +0.292 HD
ENDBRANCH  16  17
BRANCH  15  19
ATOM     19  O   UNL     1       4.781  -4.275   2.006  0.00  0.00    -0.503 OA
ATOM     20  H   UNL     1       4.636  -5.214   1.825  0.00  0.00    +0.292 HD
ENDBRANCH  15  19
ENDBRANCH   2  11
BRANCH   1  21
ATOM     21  C   UNL     1       2.986   0.121  -2.205  0.00  0.00    +0.197 C 
BRANCH  21  22
ATOM     22  C   UNL     1       2.788   1.417  -2.950  0.00  0.00    -0.018 A 
ATOM     23  C   UNL     1       3.672   2.463  -2.762  0.00  0.00    +0.008 A 
ATOM     24  C   UNL     1       3.491   3.652  -3.444  0.00  0.00    +0.033 A 
ATOM     25  C   UNL     1       2.427   3.793  -4.315  0.00  0.00    +0.126 A 
ATOM     26  C   UNL     1       1.544   2.747  -4.504  0.00  0.00    +0.033 A 
ATOM     27  C   UNL     1       1.727   1.557  -3.824  0.00  0.00    +0.008 A 
BRANCH  25  28
ATOM     28  N   UNL     1       2.233   5.066  -5.046  0.00  0.00    +0.056 N 
ATOM     29  O   UNL     1       3.005   5.982  -4.880  0.00  0.00    -0.126 OA
ATOM     30  O   UNL     1       1.302   5.190  -5.807  0.00  0.00    -0.126 OA
ENDBRANCH  25  28
ENDBRANCH  21  22
BRANCH  21  32
ATOM     31  N   UNL     1       2.161   1.025  -0.056  0.00  0.00    -0.309 N 
ATOM     32  C   UNL     1       3.147   0.407  -0.735  0.00  0.00    +0.239 C 
ATOM     33  O   UNL     1       4.165   0.080  -0.162  0.00  0.00    -0.273 OA
ATOM     34  H   UNL     1       1.347   1.287  -0.514  0.00  0.00    +0.149 HD
BRANCH  31  36
ATOM     35  C   UNL     1       3.536   2.204   1.588  0.00  0.00    +0.031 C 
ATOM     36  C   UNL     1       2.318   1.303   1.374  0.00  0.00    +0.026 C 
ATOM     37  C   UNL     1       2.518  -0.013   2.130  0.00  0.00    +0.031 C 
ATOM     38  C   UNL     1       1.065   2.006   1.898  0.00  0.00    +0.031 C 
ENDBRANCH  31  36
ENDBRANCH  21  32
ENDBRANCH   1  21
TORSDOF 9
