REMARK  Name = ZINC02407612
REMARK  7 active torsions:
REMARK  status: ('A' for Active; 'I' for Inactive)
REMARK    1  A    between atoms: C_1  and  C_2
REMARK    2  A    between atoms: C_5  and  N_8
REMARK    3  A    between atoms: C_11  and  C_13
REMARK    4  A    between atoms: C_14  and  C_35
REMARK    5  A    between atoms: N_27  and  C_28
REMARK    6  A    between atoms: C_32  and  C_34
REMARK    7  A    between atoms: C_39  and  O_41
REMARK                            x       y       z     vdW  Elec       q    Type
REMARK                         _______ _______ _______ _____ _____    ______ ____
ROOT
ATOM      1  N   UNL     1      -0.816   7.678  -2.716  0.00  0.00    -0.214 N 
ATOM      2  C   UNL     1      -1.017   7.162  -1.464  0.00  0.00    +0.164 A 
ATOM      3  C   UNL     1       0.066   6.347  -1.196  0.00  0.00    +0.044 A 
ATOM      4  C   UNL     1       0.919   6.381  -2.293  0.00  0.00    +0.068 A 
ATOM      5  N   UNL     1       0.396   7.171  -3.200  0.00  0.00    -0.169 NA
ATOM      6  C   UNL     1       2.222   5.635  -2.420  0.00  0.00    +0.068 C 
ATOM      7  C   UNL     1       0.111   5.639   0.140  0.00  0.00    +0.146 C 
ATOM      8  N   UNL     1      -1.028   5.890   1.036  0.00  0.00    -0.269 N 
ATOM      9  C   UNL     1      -1.102   5.299   2.283  0.00  0.00    +0.062 A 
ATOM     10  C   UNL     1      -0.096   4.447   2.722  0.00  0.00    +0.025 A 
ATOM     11  C   UNL     1      -0.180   3.864   3.969  0.00  0.00    +0.002 A 
ATOM     12  C   UNL     1      -1.266   4.119   4.792  0.00  0.00    +0.002 A 
ATOM     13  C   UNL     1      -2.274   4.959   4.376  0.00  0.00    +0.030 A 
ATOM     14  C   UNL     1      -2.206   5.562   3.114  0.00  0.00    +0.087 A 
ATOM     15  N   UNL     1      -3.198   6.391   2.703  0.00  0.00    -0.227 NA
ATOM     16  C   UNL     1      -3.167   6.971   1.529  0.00  0.00    +0.164 C 
ATOM     17  C   UNL     1      -2.034   6.732   0.616  0.00  0.00    +0.169 C 
ATOM     18  N   UNL     1      -2.006   7.314  -0.557  0.00  0.00    -0.209 NA
ATOM     19  N   UNL     1      -4.198   7.810   1.146  0.00  0.00    -0.297 N 
ATOM     20  H   UNL     1      -4.217   8.176   0.248  0.00  0.00    +0.154 HD
ENDROOT
BRANCH   1  25
ATOM     21  C   UNL     1      -4.280  11.240  -5.456  0.00  0.00    +0.044 C 
ATOM     22  C   UNL     1      -3.360  10.294  -4.728  0.00  0.00    -0.050 A 
ATOM     23  C   UNL     1      -1.991  10.405  -4.887  0.00  0.00    +0.005 A 
ATOM     24  C   UNL     1      -1.145   9.540  -4.221  0.00  0.00    +0.028 A 
ATOM     25  C   UNL     1      -1.671   8.557  -3.392  0.00  0.00    +0.068 A 
ATOM     26  C   UNL     1      -3.047   8.445  -3.240  0.00  0.00    +0.028 A 
ATOM     27  C   UNL     1      -3.887   9.318  -3.903  0.00  0.00    +0.005 A 
ENDBRANCH   1  25
BRANCH  19  28
ATOM     28  C   UNL     1      -5.212   8.131   2.053  0.00  0.00    +0.033 A 
ATOM     29  C   UNL     1      -4.909   8.325   3.395  0.00  0.00    +0.023 A 
ATOM     30  C   UNL     1      -5.913   8.642   4.288  0.00  0.00    +0.002 A 
ATOM     31  C   UNL     1      -7.218   8.767   3.848  0.00  0.00    +0.003 A 
ATOM     32  C   UNL     1      -7.523   8.575   2.513  0.00  0.00    -0.049 A 
ATOM     33  C   UNL     1      -6.523   8.262   1.613  0.00  0.00    +0.026 A 
ATOM     34  C   UNL     1      -8.946   8.713   2.038  0.00  0.00    +0.044 C 
ENDBRANCH  19  28
BRANCH   7  35
ATOM     35  C   UNL     1       0.190   4.157  -0.116  0.00  0.00    -0.019 A 
ATOM     36  C   UNL     1      -0.964   3.437  -0.369  0.00  0.00    +0.006 A 
ATOM     37  C   UNL     1      -0.894   2.077  -0.610  0.00  0.00    +0.004 A 
ATOM     38  C   UNL     1       0.328   1.432  -0.587  0.00  0.00    +0.045 A 
ATOM     39  C   UNL     1       1.486   2.152  -0.332  0.00  0.00    +0.117 A 
ATOM     40  C   UNL     1       1.414   3.517  -0.097  0.00  0.00    +0.051 A 
BRANCH  39  41
ATOM     41  O   UNL     1       2.689   1.520  -0.313  0.00  0.00    -0.507 OA
ATOM     42  H   UNL     1       3.132   1.492  -1.173  0.00  0.00    +0.292 HD
ENDBRANCH  39  41
ENDBRANCH   7  35
TORSDOF 4
