REMARK  Name = ZINC39466724
REMARK  7 active torsions:
REMARK  status: ('A' for Active; 'I' for Inactive)
REMARK    1  A    between atoms: C_1  and  C_2
REMARK    2  A    between atoms: C_2  and  C_3
REMARK    3  A    between atoms: C_2  and  S_4
REMARK    4  A    between atoms: S_4  and  C_7
REMARK    5  A    between atoms: C_19  and  O_20
REMARK    6  A    between atoms: P_23  and  C_26
REMARK    7  A    between atoms: C_26  and  C_27
REMARK                            x       y       z     vdW  Elec       q    Type
REMARK                         _______ _______ _______ _____ _____    ______ ____
ROOT
ATOM      1  C   UNL     1      -1.536  -2.381   0.152  0.00  0.00    +0.126 C 
ATOM      2  C   UNL     1      -1.985  -3.012   1.237  0.00  0.00    +0.006 C 
ATOM      3  C   UNL     1      -1.842  -4.506   1.317  0.00  0.00    +0.006 C 
ATOM      4  C   UNL     1      -2.847  -5.118   2.286  0.00  0.00    -0.046 C 
ATOM      5  N   UNL     1      -2.640  -6.575   2.365  0.00  0.00    +0.397 N 
ATOM      6  C   UNL     1      -2.815  -7.212   1.061  0.00  0.00    -0.020 C 
ATOM      7  C   UNL     1      -1.863  -6.610   0.017  0.00  0.00    -0.002 C 
ATOM      8  C   UNL     1      -2.099  -5.106  -0.071  0.00  0.00    +0.019 C 
ATOM      9  C   UNL     1      -1.165  -4.461  -1.058  0.00  0.00    +0.024 C 
ATOM     10  C   UNL     1      -0.906  -3.154  -0.936  0.00  0.00    +0.138 C 
ATOM     11  C   UNL     1      -2.502  -8.713   1.123  0.00  0.00    +0.156 C 
ATOM     12  O   UNL     1      -3.416  -9.354   2.031  0.00  0.00    -0.319 OA
ATOM     13  P   UNL     1      -3.599  -8.698   3.509  0.00  0.00    +0.262 P 
ATOM     14  O   UNL     1      -2.489  -9.112   4.395  0.00  0.00    -0.274 OA
ATOM     15  N   UNL     1      -3.573  -7.050   3.262  0.00  0.00    -0.291 NA
ATOM     16  H   UNL     1      -4.169  -6.447   3.733  0.00  0.00    +0.111 HD
ATOM     17  H   UNL     1      -1.712  -6.764   2.712  0.00  0.00    -0.055 HD
ENDROOT
BRANCH   1  18
ATOM     18  S   UNL     1      -1.700  -0.632   0.015  0.00  0.00    +0.002 S 
ATOM     19  O   UNL     1      -2.359  -0.234   1.209  0.00  0.00    -0.169 OA
ATOM     20  O   UNL     1      -2.308  -0.423  -1.252  0.00  0.00    -0.169 OA
BRANCH  18  22
ATOM     21  C   UNL     1      -0.019   1.526   0.010  0.00  0.00    +0.032 C 
ATOM     22  C   UNL     1       0.002  -0.004   0.002  0.00  0.00    +0.130 C 
ATOM     23  C   UNL     1       0.742  -0.511   1.242  0.00  0.00    +0.032 C 
ENDBRANCH  18  22
ENDBRANCH   1  18
BRANCH  10  24
ATOM     24  O   UNL     1      -0.062  -2.543  -1.808  0.00  0.00    -0.505 OA
ATOM     25  H   UNL     1       0.299  -3.133  -2.484  0.00  0.00    +0.292 HD
ENDBRANCH  10  24
BRANCH  13  26
ATOM     26  C   UNL     1      -5.199  -9.195   4.228  0.00  0.00    +0.147 C 
BRANCH  26  27
ATOM     27  C   UNL     1      -5.251 -10.697   4.345  0.00  0.00    -0.037 A 
ATOM     28  C   UNL     1      -5.742 -11.456   3.299  0.00  0.00    +0.004 A 
ATOM     29  C   UNL     1      -5.790 -12.833   3.407  0.00  0.00    +0.000 A 
ATOM     30  C   UNL     1      -5.347 -13.451   4.561  0.00  0.00    +0.000 A 
ATOM     31  C   UNL     1      -4.856 -12.693   5.607  0.00  0.00    +0.000 A 
ATOM     32  C   UNL     1      -4.804 -11.316   5.497  0.00  0.00    +0.004 A 
ENDBRANCH  26  27
ENDBRANCH  13  26
TORSDOF 5
