REMARK  Name = ZINC39635748
REMARK  4 active torsions:
REMARK  status: ('A' for Active; 'I' for Inactive)
REMARK    1  A    between atoms: C_1  and  C_2
REMARK    2  A    between atoms: C_8  and  N_10
REMARK    3  A    between atoms: C_11  and  C_13
REMARK    4  A    between atoms: C_24  and  C_26
REMARK                            x       y       z     vdW  Elec       q    Type
REMARK                         _______ _______ _______ _____ _____    ______ ____
ROOT
ATOM      1  C   UNL     1       0.033   0.579   4.842  0.00  0.00    +0.100 C 
ATOM      2  C   UNL     1      -0.380   2.060   4.681  0.00  0.00    +0.121 C 
ATOM      3  N   UNL     1      -0.172   2.654   6.023  0.00  0.00    -0.296 N 
ATOM      4  C   UNL     1       1.081   2.031   6.512  0.00  0.00    +0.115 C 
ATOM      5  C   UNL     1       0.992   0.565   6.044  0.00  0.00    -0.004 C 
ATOM      6  C   UNL     1       2.368   0.063   5.616  0.00  0.00    -0.010 C 
ATOM      7  C   UNL     1       3.287   0.002   6.840  0.00  0.00    -0.082 C 
ATOM      8  N   UNL     1       2.707  -0.897   7.845  0.00  0.00    +0.379 N 
ATOM      9  C   UNL     1       1.426  -0.358   8.319  0.00  0.00    -0.082 C 
ATOM     10  C   UNL     1       0.429  -0.312   7.159  0.00  0.00    -0.010 C 
ATOM     11  C   UNL     1      -0.948   3.557   6.655  0.00  0.00    +0.252 C 
ATOM     12  O   UNL     1      -0.641   3.951   7.763  0.00  0.00    -0.270 OA
ATOM     13  H   UNL     1       2.557  -1.806   7.435  0.00  0.00    -0.086 HD
ATOM     14  H   UNL     1       3.343  -0.983   8.624  0.00  0.00    -0.086 HD
ENDROOT
BRANCH  11  15
ATOM     15  C   UNL     1      -2.169   4.066   6.003  0.00  0.00    +0.107 A 
ATOM     16  C   UNL     1      -3.392   3.414   6.193  0.00  0.00    +0.138 A 
ATOM     17  C   UNL     1      -4.532   3.898   5.579  0.00  0.00    +0.039 A 
ATOM     18  C   UNL     1      -4.465   5.023   4.777  0.00  0.00    +0.006 A 
ATOM     19  C   UNL     1      -3.260   5.673   4.582  0.00  0.00    +0.039 A 
ATOM     20  C   UNL     1      -2.112   5.206   5.195  0.00  0.00    +0.138 A 
ATOM     21  F   UNL     1      -0.937   5.846   5.008  0.00  0.00    -0.205 F 
ATOM     22  F   UNL     1      -3.460   2.315   6.975  0.00  0.00    -0.205 F 
ENDBRANCH  11  15
BRANCH   1  24
ATOM     23  N   UNL     1       0.674  -1.208   3.257  0.00  0.00    -0.312 N 
ATOM     24  C   UNL     1       0.738   0.093   3.602  0.00  0.00    +0.218 C 
ATOM     25  O   UNL     1       1.363   0.873   2.915  0.00  0.00    -0.275 OA
ATOM     26  H   UNL     1       0.174  -1.832   3.807  0.00  0.00    +0.149 HD
BRANCH  23  33
ATOM     27  C   UNL     1      -0.787  -2.636   1.204  0.00  0.00    +0.009 C 
ATOM     28  C   UNL     1       0.673  -2.947   1.537  0.00  0.00    +0.006 C 
ATOM     29  C   UNL     1       1.389  -3.441   0.279  0.00  0.00    +0.005 C 
ATOM     30  C   UNL     1       2.850  -3.752   0.612  0.00  0.00    +0.000 C 
ATOM     31  C   UNL     1       3.537  -2.485   1.126  0.00  0.00    +0.002 C 
ATOM     32  C   UNL     1       2.821  -1.992   2.385  0.00  0.00    +0.022 C 
ATOM     33  C   UNL     1       1.360  -1.681   2.051  0.00  0.00    +0.076 C 
ENDBRANCH  23  33
ENDBRANCH   1  24
TORSDOF 3
