REMARK  Name = ZINC13563278
REMARK  16 active torsions:
REMARK  status: ('A' for Active; 'I' for Inactive)
REMARK    1  A    between atoms: C_1  and  C_2
REMARK    2  A    between atoms: C_2  and  N_3
REMARK    3  A    between atoms: N_3  and  C_4
REMARK    4  A    between atoms: N_3  and  C_6
REMARK    5  A    between atoms: C_4  and  C_5
REMARK    6  A    between atoms: C_9  and  C_22
REMARK    7  A    between atoms: C_10  and  O_12
REMARK    8  A    between atoms: O_12  and  C_13
REMARK    9  A    between atoms: C_13  and  C_14
REMARK   10  A    between atoms: C_23  and  C_24
REMARK   11  A    between atoms: C_23  and  C_26
REMARK   12  A    between atoms: C_27  and  C_35
REMARK   13  A    between atoms: C_28  and  N_34
REMARK   14  A    between atoms: N_29  and  C_31
REMARK   15  A    between atoms: C_31  and  C_32
REMARK   16  A    between atoms: C_32  and  O_33
REMARK                            x       y       z     vdW  Elec       q    Type
REMARK                         _______ _______ _______ _____ _____    ______ ____
ROOT
ATOM      1  C   UNL     1      -5.687  -1.670   0.124  0.00  0.00    +0.033 A 
ATOM      2  C   UNL     1      -5.460  -3.035   0.288  0.00  0.00    +0.024 A 
ATOM      3  C   UNL     1      -4.190  -3.533   0.246  0.00  0.00    +0.013 A 
ATOM      4  C   UNL     1      -3.104  -2.672   0.036  0.00  0.00    +0.018 A 
ATOM      5  C   UNL     1      -3.329  -1.294  -0.130  0.00  0.00    +0.130 A 
ATOM      6  C   UNL     1      -4.621  -0.801  -0.080  0.00  0.00    +0.069 A 
ENDROOT
BRANCH   4   7
ATOM      7  C   UNL     1      -1.741  -3.205  -0.010  0.00  0.00    +0.032 C 
ATOM      8  C   UNL     1      -1.512  -4.450  -0.518  0.00  0.00    +0.081 C 
BRANCH   8   9
ATOM      9  C   UNL     1      -0.162  -5.050  -0.428  0.00  0.00    +0.122 A 
ATOM     10  C   UNL     1       0.240  -6.371  -0.924  0.00  0.00    +0.119 A 
ATOM     11  C   UNL     1       1.591  -6.506  -0.622  0.00  0.00    +0.133 A 
ATOM     12  N   UNL     1       1.984  -5.376   0.001  0.00  0.00    -0.247 N 
ATOM     13  N   UNL     1       0.904  -4.496   0.105  0.00  0.00    -0.167 NA
BRANCH  11  14
ATOM     14  N   UNL     1       2.387  -7.599  -0.907  0.00  0.00    -0.342 N 
ATOM     15  H   UNL     1       2.009  -8.368  -1.361  0.00  0.00    +0.144 HD
ATOM     16  H   UNL     1       3.323  -7.597  -0.654  0.00  0.00    +0.144 HD
ENDBRANCH  11  14
BRANCH  10  17
ATOM     17  C   UNL     1      -0.592  -7.331  -1.587  0.00  0.00    +0.105 C 
ATOM     18  N   UNL     1      -1.252  -8.091  -2.112  0.00  0.00    -0.191 NA
ENDBRANCH  10  17
BRANCH  12  19
ATOM     19  C   UNL     1       3.340  -5.109   0.488  0.00  0.00    +0.173 C 
BRANCH  19  20
ATOM     20  C   UNL     1       4.155  -4.434  -0.617  0.00  0.00    +0.179 C 
BRANCH  20  21
ATOM     21  O   UNL     1       5.477  -4.173  -0.141  0.00  0.00    -0.393 OA
ATOM     22  H   UNL     1       6.051  -3.744  -0.791  0.00  0.00    +0.209 HD
ENDBRANCH  20  21
ENDBRANCH  19  20
ENDBRANCH  12  19
ENDBRANCH   8   9
BRANCH   8  23
ATOM     23  C   UNL     1      -2.579  -5.178  -1.138  0.00  0.00    +0.101 C 
ATOM     24  N   UNL     1      -3.425  -5.755  -1.629  0.00  0.00    -0.191 NA
ENDBRANCH   8  23
ENDBRANCH   4   7
BRANCH   1  25
ATOM     25  N   UNL     1      -6.986  -1.173   0.169  0.00  0.00    -0.330 N 
BRANCH  25  27
ATOM     26  C   UNL     1      -8.380  -2.210   1.891  0.00  0.00    +0.024 C 
ATOM     27  C   UNL     1      -8.112  -2.084   0.390  0.00  0.00    +0.102 C 
ENDBRANCH  25  27
BRANCH  25  28
ATOM     28  C   UNL     1      -7.228   0.262  -0.003  0.00  0.00    +0.102 C 
ATOM     29  C   UNL     1      -7.436   0.569  -1.487  0.00  0.00    +0.024 C 
ENDBRANCH  25  28
ENDBRANCH   1  25
BRANCH   5  30
ATOM     30  O   UNL     1      -2.285  -0.451  -0.333  0.00  0.00    -0.487 OA
BRANCH  30  31
ATOM     31  C   UNL     1      -2.592   0.936  -0.493  0.00  0.00    +0.266 C 
BRANCH  31  32
ATOM     32  C   UNL     1      -1.317   1.711  -0.707  0.00  0.00    +0.008 A 
ATOM     33  C   UNL     1      -0.102   1.052  -0.722  0.00  0.00    +0.010 A 
ATOM     34  C   UNL     1       1.067   1.761  -0.924  0.00  0.00    +0.020 A 
ATOM     35  C   UNL     1       1.022   3.132  -1.105  0.00  0.00    +0.042 A 
ATOM     36  C   UNL     1      -0.193   3.793  -1.084  0.00  0.00    +0.040 A 
ATOM     37  C   UNL     1      -1.363   3.082  -0.882  0.00  0.00    +0.049 A 
ATOM     38 CL   UNL     1      -2.889   3.910  -0.856  0.00  0.00    -0.083 Cl
ATOM     39 CL   UNL     1       2.490   4.023  -1.358  0.00  0.00    -0.083 Cl
ENDBRANCH  31  32
ENDBRANCH  30  31
ENDBRANCH   5  30
TORSDOF 14
