REMARK  Name = ZINC08789978
REMARK  9 active torsions:
REMARK  status: ('A' for Active; 'I' for Inactive)
REMARK    1  A    between atoms: C_1  and  C_2
REMARK    2  A    between atoms: C_2  and  C_3
REMARK    3  A    between atoms: C_17  and  C_19
REMARK    4  A    between atoms: C_19  and  C_20
REMARK    5  A    between atoms: C_20  and  S_21
REMARK    6  A    between atoms: S_21  and  C_22
REMARK    7  A    between atoms: N_25  and  C_28
REMARK    8  A    between atoms: C_28  and  C_29
REMARK    9  A    between atoms: C_29  and  C_30
REMARK                            x       y       z     vdW  Elec       q    Type
REMARK                         _______ _______ _______ _____ _____    ______ ____
ROOT
ATOM      1  C   UNL     1       2.485   1.412  -0.014  0.00  0.00    -0.026 A 
ATOM      2  C   UNL     1       3.456   2.393  -0.017  0.00  0.00    +0.005 A 
ATOM      3  C   UNL     1       3.099   3.728  -0.004  0.00  0.00    +0.001 A 
ATOM      4  C   UNL     1       1.761   4.084   0.010  0.00  0.00    +0.004 A 
ATOM      5  C   UNL     1       0.789   3.109   0.011  0.00  0.00    -0.027 A 
ATOM      6  C   UNL     1       1.137   1.761   0.001  0.00  0.00    +0.039 A 
ATOM      7  N   UNL     1      -0.011   0.966   0.007  0.00  0.00    -0.286 N 
ATOM      8  C   UNL     1      -1.139   1.702   0.016  0.00  0.00    +0.211 C 
ATOM      9  O   UNL     1      -2.277   1.284   0.020  0.00  0.00    -0.277 OA
ATOM     10  C   UNL     1      -0.713   3.145   0.023  0.00  0.00    +0.050 C 
ATOM     11  C   UNL     1      -1.268   3.894  -1.195  0.00  0.00    +0.088 C 
ATOM     12  C   UNL     1      -2.533   4.622  -0.662  0.00  0.00    +0.073 C 
ATOM     13  C   UNL     1      -2.619   4.230   0.828  0.00  0.00    -0.057 C 
ATOM     14  C   UNL     1      -2.168   6.084  -0.774  0.00  0.00    +0.224 C 
ATOM     15  O   UNL     1      -2.881   7.011  -0.453  0.00  0.00    -0.275 OA
ATOM     16  N   UNL     1      -0.936   6.197  -1.284  0.00  0.00    -0.241 N 
ATOM     17  C   UNL     1      -0.340   5.031  -1.558  0.00  0.00    +0.225 C 
ATOM     18  O   UNL     1       0.772   4.906  -2.025  0.00  0.00    -0.275 OA
ATOM     19  H   UNL     1       0.002  -0.004   0.002  0.00  0.00    +0.155 HD
ATOM     20  N   UNL     1      -1.247   3.851   1.175  0.00  0.00    +0.394 N 
ATOM     21  H   UNL     1      -0.686   4.688   1.369  0.00  0.00    -0.083 HD
ATOM     22  H   UNL     1      -1.245   3.238   1.999  0.00  0.00    -0.083 HD
ENDROOT
BRANCH   1  24
ATOM     23  C   UNL     1       2.886  -0.556  -1.468  0.00  0.00    +0.009 C 
ATOM     24  C   UNL     1       2.885  -0.041  -0.028  0.00  0.00    +0.033 C 
ENDBRANCH   1  24
BRANCH  13  25
ATOM     25  C   UNL     1      -3.100   5.418   1.664  0.00  0.00    -0.004 C 
BRANCH  25  26
ATOM     26  C   UNL     1      -3.296   4.974   3.115  0.00  0.00    +0.067 C 
BRANCH  26  27
ATOM     27  S   UNL     1      -3.866   6.382   4.106  0.00  0.00    -0.164 S 
ATOM     28  C   UNL     1      -4.048   5.698   5.777  0.00  0.00    +0.084 C 
ENDBRANCH  26  27
ENDBRANCH  25  26
ENDBRANCH  13  25
BRANCH  16  29
ATOM     29  C   UNL     1      -0.292   7.491  -1.521  0.00  0.00    +0.121 C 
BRANCH  29  30
ATOM     30  C   UNL     1      -0.622   7.972  -2.936  0.00  0.00    +0.054 C 
BRANCH  30  31
ATOM     31  C   UNL     1       0.041   9.304  -3.180  0.00  0.00    -0.046 A 
ATOM     32  C   UNL     1      -0.630  10.475  -2.881  0.00  0.00    +0.004 A 
ATOM     33  C   UNL     1      -0.021  11.696  -3.101  0.00  0.00    +0.000 A 
ATOM     34  C   UNL     1       1.255  11.747  -3.630  0.00  0.00    +0.000 A 
ATOM     35  C   UNL     1       1.924  10.576  -3.934  0.00  0.00    +0.000 A 
ATOM     36  C   UNL     1       1.317   9.354  -3.709  0.00  0.00    +0.004 A 
ENDBRANCH  30  31
ENDBRANCH  29  30
ENDBRANCH  16  29
TORSDOF 7
