REMARK  Name = ZINC39197265
REMARK  9 active torsions:
REMARK  status: ('A' for Active; 'I' for Inactive)
REMARK    1  A    between atoms: C_1  and  C_2
REMARK    2  A    between atoms: C_2  and  C_3
REMARK    3  A    between atoms: C_8  and  N_9
REMARK    4  A    between atoms: C_10  and  C_27
REMARK    5  A    between atoms: C_12  and  C_14
REMARK    6  A    between atoms: N_16  and  C_17
REMARK    7  A    between atoms: C_17  and  C_18
REMARK    8  A    between atoms: C_18  and  O_19
REMARK    9  A    between atoms: O_19  and  C_20
REMARK                            x       y       z     vdW  Elec       q    Type
REMARK                         _______ _______ _______ _____ _____    ______ ____
ROOT
ATOM      1  N   UNL     1      -1.357  -0.459   2.668  0.00  0.00    -0.231 N 
ATOM      2  C   UNL     1      -1.921  -0.184   3.882  0.00  0.00    +0.075 A 
ATOM      3  C   UNL     1      -3.112   0.440   3.632  0.00  0.00    +0.063 A 
ATOM      4  C   UNL     1      -3.210   0.512   2.225  0.00  0.00    +0.148 A 
ATOM      5  N   UNL     1      -2.122  -0.040   1.725  0.00  0.00    -0.161 NA
ENDROOT
BRANCH   2   6
ATOM      6  C   UNL     1      -1.353  -0.500   5.211  0.00  0.00    +0.002 A 
ATOM      7  C   UNL     1       0.022  -0.687   5.356  0.00  0.00    +0.014 A 
ATOM      8  C   UNL     1       0.554  -0.981   6.595  0.00  0.00    +0.048 A 
ATOM      9  C   UNL     1      -0.277  -1.092   7.699  0.00  0.00    +0.142 A 
ATOM     10  C   UNL     1      -1.653  -0.907   7.560  0.00  0.00    +0.076 A 
ATOM     11  C   UNL     1      -2.191  -0.606   6.322  0.00  0.00    +0.037 A 
ATOM     12  N   UNL     1      -2.478  -1.024   8.688  0.00  0.00    -0.280 N 
ATOM     13  C   UNL     1      -1.915  -0.996   9.916  0.00  0.00    +0.255 C 
ATOM     14  O   UNL     1      -2.605  -1.126  10.905  0.00  0.00    -0.272 OA
ATOM     15  C   UNL     1      -0.426  -0.804  10.052  0.00  0.00    +0.325 C 
ATOM     16  O   UNL     1       0.238  -1.381   8.924  0.00  0.00    -0.481 OA
ATOM     17  H   UNL     1      -3.437  -1.123   8.588  0.00  0.00    +0.155 HD
ENDBRANCH   2   6
BRANCH   1  23
ATOM     18  C   UNL     1       0.884  -0.466   1.766  0.00  0.00    -0.022 A 
ATOM     19  C   UNL     1       2.100  -1.097   1.588  0.00  0.00    +0.006 A 
ATOM     20  C   UNL     1       2.310  -2.358   2.114  0.00  0.00    +0.000 A 
ATOM     21  C   UNL     1       1.305  -2.992   2.821  0.00  0.00    +0.002 A 
ATOM     22  C   UNL     1       0.087  -2.367   3.003  0.00  0.00    +0.028 A 
ATOM     23  C   UNL     1      -0.126  -1.098   2.480  0.00  0.00    +0.069 A 
BRANCH  18  25
ATOM     24  C   UNL     1       0.845   1.957   2.289  0.00  0.00    +0.009 C 
ATOM     25  C   UNL     1       0.655   0.908   1.192  0.00  0.00    +0.034 C 
ENDBRANCH  18  25
ENDBRANCH   1  23
BRANCH   4  26
ATOM     26  C   UNL     1      -4.324   1.103   1.456  0.00  0.00    +0.264 C 
ATOM     27  O   UNL     1      -5.275   1.589   2.038  0.00  0.00    -0.268 OA
ATOM     28  N   UNL     1      -4.287   1.104   0.109  0.00  0.00    -0.307 N 
ATOM     29  H   UNL     1      -3.529   0.717  -0.356  0.00  0.00    +0.149 HD
BRANCH  28  30
ATOM     30  C   UNL     1      -5.392   1.690  -0.654  0.00  0.00    +0.145 C 
BRANCH  30  31
ATOM     31  C   UNL     1      -5.102   1.562  -2.151  0.00  0.00    +0.248 C 
BRANCH  31  32
ATOM     32  O   UNL     1      -5.082   0.180  -2.516  0.00  0.00    -0.489 OA
BRANCH  32  33
ATOM     33  C   UNL     1      -4.836  -0.110  -3.821  0.00  0.00    +0.139 A 
ATOM     34  C   UNL     1      -4.613   0.913  -4.730  0.00  0.00    +0.047 A 
ATOM     35  C   UNL     1      -4.363   0.616  -6.056  0.00  0.00    +0.004 A 
ATOM     36  C   UNL     1      -4.335  -0.701  -6.477  0.00  0.00    +0.002 A 
ATOM     37  C   UNL     1      -4.557  -1.723  -5.574  0.00  0.00    +0.023 A 
ATOM     38  C   UNL     1      -4.802  -1.431  -4.245  0.00  0.00    +0.083 A 
ATOM     39 CL   UNL     1      -5.074  -2.716  -3.109  0.00  0.00    -0.080 Cl
ENDBRANCH  32  33
ENDBRANCH  31  32
ENDBRANCH  30  31
ENDBRANCH  28  30
ENDBRANCH   4  26
TORSDOF 8
