REMARK  Name = ZINC36610451
REMARK  17 active torsions:
REMARK  status: ('A' for Active; 'I' for Inactive)
REMARK    1  A    between atoms: C_1  and  C_2
REMARK    2  A    between atoms: C_2  and  C_3
REMARK    3  A    between atoms: C_2  and  C_4
REMARK    4  A    between atoms: C_2  and  C_5
REMARK    5  A    between atoms: C_5  and  C_6
REMARK    6  A    between atoms: C_6  and  C_7
REMARK    7  A    between atoms: C_6  and  C_8
REMARK    8  A    between atoms: C_6  and  N_9
REMARK    9  A    between atoms: C_10  and  C_12
REMARK   10  A    between atoms: C_12  and  C_14
REMARK   11  A    between atoms: C_12  and  N_22
REMARK   12  A    between atoms: C_17  and  O_20
REMARK   13  A    between atoms: O_20  and  C_21
REMARK   14  A    between atoms: N_22  and  C_23
REMARK   15  A    between atoms: C_29  and  C_31
REMARK   16  A    between atoms: C_35  and  O_38
REMARK   17  A    between atoms: C_36  and  O_37
REMARK                            x       y       z     vdW  Elec       q    Type
REMARK                         _______ _______ _______ _____ _____    ______ ____
ROOT
ATOM      1  C   UNL     1       4.754  -0.147  -4.126  0.00  0.00    +0.197 C 
ENDROOT
BRANCH   1   2
ATOM      2  C   UNL     1       4.619  -1.617  -4.429  0.00  0.00    -0.018 A 
ATOM      3  C   UNL     1       5.480  -2.525  -3.841  0.00  0.00    +0.009 A 
ATOM      4  C   UNL     1       5.359  -3.873  -4.118  0.00  0.00    +0.046 A 
ATOM      5  C   UNL     1       4.372  -4.316  -4.987  0.00  0.00    +0.120 A 
ATOM      6  C   UNL     1       3.509  -3.403  -5.576  0.00  0.00    +0.046 A 
ATOM      7  C   UNL     1       3.631  -2.056  -5.291  0.00  0.00    +0.009 A 
BRANCH   5   8
ATOM      8  O   UNL     1       4.251  -5.641  -5.262  0.00  0.00    -0.495 OA
ATOM      9  C   UNL     1       3.212  -6.024  -6.165  0.00  0.00    +0.277 C 
ENDBRANCH   5   8
ENDBRANCH   1   2
BRANCH   1  11
ATOM     10  N   UNL     1       3.046  -0.179  -2.337  0.00  0.00    -0.308 N 
ATOM     11  C   UNL     1       4.307   0.116  -2.711  0.00  0.00    +0.239 C 
ATOM     12  O   UNL     1       5.081   0.595  -1.909  0.00  0.00    -0.273 OA
ATOM     13  H   UNL     1       2.427  -0.562  -2.978  0.00  0.00    +0.149 HD
BRANCH  10  14
ATOM     14  C   UNL     1       2.611   0.077  -0.961  0.00  0.00    +0.030 C 
ATOM     15  C   UNL     1       2.896   1.536  -0.600  0.00  0.00    +0.031 C 
ATOM     16  C   UNL     1       3.373  -0.843  -0.005  0.00  0.00    +0.031 C 
BRANCH  14  17
ATOM     17  C   UNL     1       1.110  -0.194  -0.842  0.00  0.00    +0.031 C 
BRANCH  17  19
ATOM     18  C   UNL     1       0.513  -0.573  -3.238  0.00  0.00    +0.010 C 
ATOM     19  C   UNL     1       0.388   0.392  -2.057  0.00  0.00    -0.036 C 
ATOM     20  C   UNL     1       1.019   1.735  -2.427  0.00  0.00    +0.010 C 
ATOM     21  C   UNL     1      -1.090   0.598  -1.721  0.00  0.00    +0.010 C 
ENDBRANCH  17  19
ENDBRANCH  14  17
ENDBRANCH  10  14
ENDBRANCH   1  11
BRANCH   1  22
ATOM     22  N   UNL     1       6.154   0.256  -4.279  0.00  0.00    -0.251 N 
ATOM     23  C   UNL     1       6.506   1.545  -4.102  0.00  0.00    +0.255 C 
ATOM     24  O   UNL     1       7.657   1.891  -4.287  0.00  0.00    -0.269 OA
BRANCH  22  25
ATOM     25  C   UNL     1       7.124  -0.695  -4.607  0.00  0.00    +0.038 A 
ATOM     26  C   UNL     1       7.089  -1.327  -5.844  0.00  0.00    +0.023 A 
ATOM     27  C   UNL     1       8.048  -2.267  -6.165  0.00  0.00    +0.002 A 
ATOM     28  C   UNL     1       9.044  -2.579  -5.258  0.00  0.00    +0.000 A 
ATOM     29  C   UNL     1       9.082  -1.952  -4.026  0.00  0.00    +0.002 A 
ATOM     30  C   UNL     1       8.129  -1.007  -3.701  0.00  0.00    +0.023 A 
ENDBRANCH  22  25
BRANCH  23  31
ATOM     31  C   UNL     1       5.496   2.536  -3.685  0.00  0.00    +0.082 A 
ATOM     32  C   UNL     1       4.138   2.207  -3.708  0.00  0.00    +0.017 A 
ATOM     33  C   UNL     1       3.197   3.134  -3.318  0.00  0.00    +0.005 A 
ATOM     34  C   UNL     1       3.590   4.396  -2.901  0.00  0.00    +0.049 A 
ATOM     35  C   UNL     1       4.931   4.737  -2.872  0.00  0.00    +0.159 A 
ATOM     36  C   UNL     1       5.894   3.809  -3.258  0.00  0.00    +0.171 A 
BRANCH  36  37
ATOM     37  O   UNL     1       7.210   4.137  -3.225  0.00  0.00    -0.503 OA
ATOM     38  H   UNL     1       7.538   4.528  -4.047  0.00  0.00    +0.292 HD
ENDBRANCH  36  37
BRANCH  35  39
ATOM     39  O   UNL     1       5.309   5.977  -2.462  0.00  0.00    -0.503 OA
ATOM     40  H   UNL     1       5.474   6.044  -1.511  0.00  0.00    +0.292 HD
ENDBRANCH  35  39
ENDBRANCH  23  31
ENDBRANCH   1  22
TORSDOF 11
