REMARK  Name = ZINC39533652
REMARK  7 active torsions:
REMARK  status: ('A' for Active; 'I' for Inactive)
REMARK    1  A    between atoms: C_4  and  C_7
REMARK    2  A    between atoms: C_10  and  C_13
REMARK    3  A    between atoms: C_13  and  C_15
REMARK    4  A    between atoms: C_13  and  N_18
REMARK    5  A    between atoms: C_15  and  N_16
REMARK    6  A    between atoms: C_22  and  C_25
REMARK    7  A    between atoms: C_30  and  O_31
REMARK                            x       y       z     vdW  Elec       q    Type
REMARK                         _______ _______ _______ _____ _____    ______ ____
ROOT
ATOM      1  C   UNL     1       7.434  -2.768  -0.085  0.00  0.00    +0.102 C 
ENDROOT
BRANCH   1   2
ATOM      2  N   UNL     1       7.343  -4.000  -0.880  0.00  0.00    -0.297 NA
ATOM      3  C   UNL     1       6.747  -5.090  -0.094  0.00  0.00    +0.066 C 
ATOM      4  C   UNL     1       6.615  -6.336  -0.974  0.00  0.00    -0.066 C 
ATOM      5  N   UNL     1       7.941  -6.731  -1.466  0.00  0.00    +0.385 N 
ATOM      6  C   UNL     1       8.512  -5.641  -2.269  0.00  0.00    -0.023 C 
ATOM      7  C   UNL     1       8.661  -4.391  -1.400  0.00  0.00    +0.074 C 
ATOM      8  H   UNL     1       8.547  -6.924  -0.682  0.00  0.00    -0.085 HD
ATOM      9  H   UNL     1       7.856  -7.559  -2.036  0.00  0.00    -0.085 HD
BRANCH   6  10
ATOM     10  C   UNL     1       9.865  -6.056  -2.788  0.00  0.00    -0.019 A 
ATOM     11  C   UNL     1      10.553  -7.088  -2.179  0.00  0.00    +0.005 A 
ATOM     12  C   UNL     1      11.794  -7.468  -2.654  0.00  0.00    +0.000 A 
ATOM     13  C   UNL     1      12.351  -6.817  -3.739  0.00  0.00    +0.004 A 
ATOM     14  C   UNL     1      11.668  -5.785  -4.352  0.00  0.00    +0.045 A 
ATOM     15  C   UNL     1      10.419  -5.404  -3.880  0.00  0.00    +0.118 A 
BRANCH  15  16
ATOM     16  O   UNL     1       9.742  -4.393  -4.484  0.00  0.00    -0.507 OA
ATOM     17  H   UNL     1       9.932  -3.518  -4.117  0.00  0.00    +0.292 HD
ENDBRANCH  15  16
ENDBRANCH   6  10
ENDBRANCH   1   2
BRANCH   1  21
ATOM     18  C   UNL     1       3.562  -0.984   0.230  0.00  0.00    -0.018 A 
ATOM     19  C   UNL     1       4.682  -0.313   0.715  0.00  0.00    +0.009 A 
ATOM     20  C   UNL     1       5.930  -0.893   0.611  0.00  0.00    +0.006 A 
ATOM     21  C   UNL     1       6.069  -2.139   0.026  0.00  0.00    -0.029 A 
ATOM     22  C   UNL     1       4.960  -2.810  -0.457  0.00  0.00    +0.006 A 
ATOM     23  C   UNL     1       3.707  -2.241  -0.353  0.00  0.00    +0.009 A 
BRANCH  18  27
ATOM     24  C   UNL     1      -0.290   0.790   0.543  0.00  0.00    +0.000 A 
ATOM     25  C   UNL     1       0.820   1.464   1.021  0.00  0.00    +0.001 A 
ATOM     26  C   UNL     1       2.072   0.892   0.922  0.00  0.00    +0.008 A 
ATOM     27  C   UNL     1       2.217  -0.365   0.340  0.00  0.00    -0.018 A 
ATOM     28  C   UNL     1       1.096  -1.039  -0.140  0.00  0.00    +0.008 A 
ATOM     29  C   UNL     1      -0.152  -0.458  -0.036  0.00  0.00    +0.001 A 
ENDBRANCH  18  27
ENDBRANCH   1  21
BRANCH   1  30
ATOM     30  C   UNL     1       7.958  -3.101   1.314  0.00  0.00    +0.122 C 
BRANCH  30  31
ATOM     31  N   UNL     1       9.274  -3.744   1.204  0.00  0.00    -0.231 NA
ATOM     32 CL   UNL     1       9.897  -4.134   2.748  0.00  0.00    -0.024 Cl
ATOM     33  H   UNL     1       9.919  -3.163   0.690  0.00  0.00    +0.141 HD
ENDBRANCH  30  31
ENDBRANCH   1  30
TORSDOF 7
