REMARK  Name = ZINC39709883
REMARK  11 active torsions:
REMARK  status: ('A' for Active; 'I' for Inactive)
REMARK    1  A    between atoms: C_1  and  C_2
REMARK    2  A    between atoms: C_6  and  C_8
REMARK    3  A    between atoms: C_11  and  S_18
REMARK    4  A    between atoms: N_12  and  C_13
REMARK    5  A    between atoms: C_13  and  C_14
REMARK    6  A    between atoms: C_14  and  C_15
REMARK    7  A    between atoms: S_18  and  C_19
REMARK    8  A    between atoms: C_19  and  C_20
REMARK    9  A    between atoms: N_25  and  C_26
REMARK   10  A    between atoms: C_31  and  C_36
REMARK   11  A    between atoms: C_33  and  C_35
REMARK                            x       y       z     vdW  Elec       q    Type
REMARK                         _______ _______ _______ _____ _____    ______ ____
ROOT
ATOM      1  S   UNL     1       0.321  -6.003   4.742  0.00  0.00    -0.077 S 
ENDROOT
BRANCH   1   5
ATOM      2  C   UNL     1       0.076  -2.842   2.460  0.00  0.00    +0.165 A 
ATOM      3  N   UNL     1      -0.124  -2.347   3.659  0.00  0.00    -0.128 NA
ATOM      4  N   UNL     1      -0.072  -3.286   4.535  0.00  0.00    -0.122 NA
ATOM      5  C   UNL     1       0.165  -4.438   3.948  0.00  0.00    +0.192 A 
ATOM      6  N   UNL     1       0.263  -4.197   2.607  0.00  0.00    -0.302 N 
BRANCH   2  12
ATOM      7  C   UNL     1      -1.096   1.250  -0.144  0.00  0.00    +0.044 C 
ATOM      8  C   UNL     1      -0.470  -0.118  -0.068  0.00  0.00    -0.050 A 
ATOM      9  C   UNL     1       0.122  -0.670  -1.190  0.00  0.00    +0.003 A 
ATOM     10  C   UNL     1       0.699  -1.926  -1.129  0.00  0.00    +0.001 A 
ATOM     11  C   UNL     1       0.688  -2.636   0.054  0.00  0.00    +0.011 A 
ATOM     12  C   UNL     1       0.092  -2.086   1.189  0.00  0.00    +0.020 A 
ATOM     13  C   UNL     1      -0.483  -0.816   1.122  0.00  0.00    +0.015 A 
ENDBRANCH   2  12
BRANCH   6  14
ATOM     14  C   UNL     1       0.515  -5.176   1.548  0.00  0.00    +0.137 C 
BRANCH  14  15
ATOM     15  C   UNL     1       2.023  -5.375   1.385  0.00  0.00    +0.147 C 
BRANCH  15  16
ATOM     16  C   UNL     1       2.283  -6.382   0.295  0.00  0.00    +0.358 C 
ATOM     17  O   UNL     1       1.349  -6.894  -0.297  0.00  0.00    -0.246 OA
ATOM     18  O   UNL     1       3.428  -6.685   0.006  0.00  0.00    -0.246 OA
ENDBRANCH  15  16
ENDBRANCH  14  15
ENDBRANCH   6  14
ENDBRANCH   1   5
BRANCH   1  19
ATOM     19  C   UNL     1       0.080  -5.629   6.500  0.00  0.00    +0.173 C 
BRANCH  19  20
ATOM     20  C   UNL     1       0.190  -6.900   7.304  0.00  0.00    +0.231 C 
ATOM     21  O   UNL     1       0.410  -7.953   6.745  0.00  0.00    -0.274 OA
ATOM     22  N   UNL     1       0.045  -6.864   8.643  0.00  0.00    -0.239 N 
ATOM     23  C   UNL     1       0.143  -8.001   9.362  0.00  0.00    +0.306 C 
ATOM     24  O   UNL     1       0.363  -9.056   8.802  0.00  0.00    -0.252 OA
ATOM     25  N   UNL     1      -0.002  -7.965  10.701  0.00  0.00    -0.296 N 
ATOM     26  H   UNL     1      -0.131  -6.022   9.090  0.00  0.00    +0.159 HD
ATOM     27  H   UNL     1      -0.177  -7.122  11.148  0.00  0.00    +0.151 HD
BRANCH  25  28
ATOM     28  C   UNL     1       0.105  -9.200  11.482  0.00  0.00    +0.078 C 
ATOM     29  C   UNL     1       1.576  -9.479  11.796  0.00  0.00    +0.022 C 
ATOM     30  C   UNL     1       1.688 -10.769  12.612  0.00  0.00    +0.002 C 
ATOM     31  C   UNL     1       0.908 -10.615  13.919  0.00  0.00    +0.003 C 
ATOM     32  C   UNL     1      -0.563 -10.336  13.605  0.00  0.00    -0.009 C 
ATOM     33  C   UNL     1      -0.675  -9.046  12.790  0.00  0.00    +0.009 C 
ATOM     34  C   UNL     1      -2.146  -8.767  12.476  0.00  0.00    +0.009 C 
ATOM     35  C   UNL     1      -1.143 -11.500  12.800  0.00  0.00    +0.008 C 
ENDBRANCH  25  28
ENDBRANCH  19  20
ENDBRANCH   1  19
TORSDOF 8
