REMARK  Name = ZINC14541476
REMARK  6 active torsions:
REMARK  status: ('A' for Active; 'I' for Inactive)
REMARK    1  A    between atoms: N_9  and  C_10
REMARK    2  A    between atoms: C_10  and  C_11
REMARK    3  A    between atoms: C_15  and  O_28
REMARK    4  A    between atoms: N_18  and  C_22
REMARK    5  A    between atoms: O_28  and  C_29
REMARK    6  A    between atoms: C_29  and  C_30
REMARK                            x       y       z     vdW  Elec       q    Type
REMARK                         _______ _______ _______ _____ _____    ______ ____
ROOT
ATOM      1  C   UNL     1       1.456   0.297   3.332  0.00  0.00    +0.238 C 
ATOM      2  O   UNL     1       0.503   0.122   4.062  0.00  0.00    -0.274 OA
ATOM      3  N   UNL     1       1.360   0.011   2.018  0.00  0.00    -0.289 N 
ATOM      4  C   UNL     1       0.122  -0.509   1.457  0.00  0.00    +0.141 C 
ATOM      5  C   UNL     1      -0.005   0.000   0.008  0.00  0.00    +0.153 C 
ATOM      6  C   UNL     1      -0.020   1.531   0.018  0.00  0.00    +0.141 C 
ATOM      7  N   UNL     1       1.325   2.087   0.001  0.00  0.00    -0.295 N 
ATOM      8  C   UNL     1       2.434   1.603   0.548  0.00  0.00    +0.233 C 
ATOM      9  O   UNL     1       3.423   2.303   0.588  0.00  0.00    -0.274 OA
ATOM     10  C   UNL     1       2.501   0.215   1.119  0.00  0.00    +0.203 C 
ENDROOT
BRANCH   7  11
ATOM     11  C   UNL     1       1.476   3.353  -0.720  0.00  0.00    +0.076 C 
ATOM     12  C   UNL     1       0.483   4.377  -0.166  0.00  0.00    +0.022 C 
ATOM     13  C   UNL     1       0.642   5.700  -0.918  0.00  0.00    +0.002 C 
ATOM     14  C   UNL     1       0.366   5.476  -2.407  0.00  0.00    +0.000 C 
ATOM     15  C   UNL     1       1.359   4.452  -2.961  0.00  0.00    +0.002 C 
ATOM     16  C   UNL     1       1.201   3.129  -2.208  0.00  0.00    +0.022 C 
ENDBRANCH   7  11
BRANCH   1  17
ATOM     17  C   UNL     1       2.747   0.834   3.893  0.00  0.00    +0.239 C 
BRANCH  17  26
ATOM     18  C   UNL     1       3.205  -1.220   8.702  0.00  0.00    +0.001 A 
ATOM     19  C   UNL     1       3.478  -1.840   7.489  0.00  0.00    +0.002 A 
ATOM     20  C   UNL     1       3.310  -1.173   6.309  0.00  0.00    +0.028 A 
ATOM     21  C   UNL     1       2.860   0.145   6.315  0.00  0.00    +0.069 A 
ATOM     22  C   UNL     1       2.583   0.775   7.544  0.00  0.00    +0.020 A 
ATOM     23  C   UNL     1       2.763   0.071   8.739  0.00  0.00    +0.011 A 
ATOM     24  C   UNL     1       2.139   2.127   7.220  0.00  0.00    +0.143 A 
ATOM     25  N   UNL     1       2.166   2.255   5.924  0.00  0.00    -0.178 NA
ATOM     26  N   UNL     1       2.596   1.063   5.332  0.00  0.00    -0.255 N 
ENDBRANCH  17  26
ENDBRANCH   1  17
BRANCH   5  27
ATOM     27  O   UNL     1      -1.219  -0.487  -0.566  0.00  0.00    -0.367 OA
BRANCH  27  28
ATOM     28  C   UNL     1      -1.083  -1.741  -1.236  0.00  0.00    +0.215 C 
BRANCH  28  29
ATOM     29  C   UNL     1      -2.418  -2.157  -1.800  0.00  0.00    +0.067 A 
ATOM     30  C   UNL     1      -3.520  -1.344  -1.615  0.00  0.00    +0.025 A 
ATOM     31  C   UNL     1      -4.743  -1.736  -2.138  0.00  0.00    +0.003 A 
ATOM     32  C   UNL     1      -4.812  -2.936  -2.829  0.00  0.00    +0.020 A 
ATOM     33  C   UNL     1      -3.667  -3.696  -2.974  0.00  0.00    +0.111 A 
ATOM     34  N   UNL     1      -2.519  -3.290  -2.467  0.00  0.00    -0.258 NA
ENDBRANCH  28  29
ENDBRANCH  27  28
ENDBRANCH   5  27
TORSDOF 6
