REMARK  Name = ZINC06552271
REMARK  13 active torsions:
REMARK  status: ('A' for Active; 'I' for Inactive)
REMARK    1  A    between atoms: C_1  and  C_2
REMARK    2  A    between atoms: C_2  and  C_28
REMARK    3  A    between atoms: C_6  and  C_7
REMARK    4  A    between atoms: C_6  and  C_8
REMARK    5  A    between atoms: N_11  and  C_15
REMARK    6  A    between atoms: C_15  and  N_65
REMARK    7  A    between atoms: C_16  and  N_65
REMARK    8  A    between atoms: C_17  and  C_18
REMARK    9  A    between atoms: C_17  and  N_65
REMARK   10  A    between atoms: C_22  and  O_26
REMARK   11  A    between atoms: C_23  and  O_24
REMARK   12  A    between atoms: O_24  and  C_25
REMARK   13  A    between atoms: O_26  and  C_27
REMARK                            x       y       z     vdW  Elec       q    Type
REMARK                         _______ _______ _______ _____ _____    ______ ____
ROOT
ATOM      1  C   UNL     1       1.806   4.800  -2.349  0.00  0.00    -0.010 C 
ATOM      2  C   UNL     1       1.087   3.972  -1.255  0.00  0.00    -0.071 C 
ATOM      3  C   UNL     1       1.715   2.585  -1.254  0.00  0.00    +0.022 C 
ATOM      4  C   UNL     1       1.377   1.793  -0.002  0.00  0.00    +0.110 C 
ATOM      5  C   UNL     1       1.731   2.575   1.252  0.00  0.00    +0.022 C 
ATOM      6  C   UNL     1       1.129   3.974   1.261  0.00  0.00    -0.071 C 
ATOM      7  C   UNL     1       1.897   4.795   2.327  0.00  0.00    -0.010 C 
ATOM      8  C   UNL     1      -0.333   3.913   1.723  0.00  0.00    -0.010 C 
ATOM      9  C   UNL     1       2.163   0.491  -0.019  0.00  0.00    +0.245 C 
ATOM     10  O   UNL     1       3.370   0.378  -0.035  0.00  0.00    -0.273 OA
ATOM     11  N   UNL     1       1.246  -0.494  -0.012  0.00  0.00    -0.241 N 
ATOM     12  C   UNL     1       0.002  -0.004   0.002  0.00  0.00    +0.308 C 
ATOM     13  O   UNL     1      -1.000  -0.692   0.008  0.00  0.00    -0.252 OA
ATOM     14  N   UNL     1      -0.016   1.344   0.009  0.00  0.00    -0.285 N 
ATOM     15  C   UNL     1      -0.388   3.890  -1.663  0.00  0.00    -0.010 C 
ATOM     16  H   UNL     1      -0.822   1.885   0.024  0.00  0.00    +0.151 HD
ATOM     17  N   UNL     1       1.262   4.751   0.000  0.00  0.00    +0.386 N 
ATOM     18  H   UNL     1       0.555   5.496   0.012  0.00  0.00    -0.084 HD
ATOM     19  H   UNL     1       2.199   5.170  -0.016  0.00  0.00    -0.084 HD
ENDROOT
BRANCH  11  20
ATOM     20  C   UNL     1       1.568  -1.924  -0.020  0.00  0.00    +0.043 C 
BRANCH  20  22
ATOM     21  C   UNL     1       2.970  -2.073  -1.988  0.00  0.00    -0.093 C 
ATOM     22  N   UNL     1       1.641  -2.384  -1.423  0.00  0.00    +0.391 N 
ATOM     23  H   UNL     1       0.923  -1.896  -1.971  0.00  0.00    -0.079 HD
BRANCH  22  24
ATOM     24  C   UNL     1       1.390  -3.839  -1.490  0.00  0.00    -0.037 C 
BRANCH  24  25
ATOM     25  C   UNL     1       1.251  -4.241  -2.936  0.00  0.00    -0.019 A 
ATOM     26  C   UNL     1      -0.005  -4.408  -3.490  0.00  0.00    +0.005 A 
ATOM     27  C   UNL     1      -0.136  -4.777  -4.815  0.00  0.00    +0.004 A 
ATOM     28  C   UNL     1       0.989  -4.981  -5.593  0.00  0.00    +0.049 A 
ATOM     29  C   UNL     1       2.250  -4.816  -5.045  0.00  0.00    +0.162 A 
ATOM     30  C   UNL     1       2.382  -4.438  -3.712  0.00  0.00    +0.163 A 
BRANCH  30  31
ATOM     31  O   UNL     1       3.618  -4.269  -3.171  0.00  0.00    -0.491 OA
ATOM     32  C   UNL     1       4.227  -5.415  -2.573  0.00  0.00    +0.277 C 
ENDBRANCH  30  31
BRANCH  29  33
ATOM     33  O   UNL     1       3.357  -5.016  -5.810  0.00  0.00    -0.491 OA
ATOM     34  C   UNL     1       3.145  -5.396  -7.171  0.00  0.00    +0.277 C 
ENDBRANCH  29  33
ENDBRANCH  24  25
ENDBRANCH  22  24
ENDBRANCH  20  22
ENDBRANCH  11  20
TORSDOF 6
