REMARK  Name = ZINC12003761
REMARK  10 active torsions:
REMARK  status: ('A' for Active; 'I' for Inactive)
REMARK    1  A    between atoms: C_1  and  C_2
REMARK    2  A    between atoms: C_4  and  C_10
REMARK    3  A    between atoms: C_7  and  O_8
REMARK    4  A    between atoms: O_8  and  C_9
REMARK    5  A    between atoms: C_10  and  N_56
REMARK    6  A    between atoms: C_16  and  C_18
REMARK    7  A    between atoms: C_18  and  C_19
REMARK    8  A    between atoms: N_21  and  C_22
REMARK    9  A    between atoms: N_21  and  C_23
REMARK   10  A    between atoms: C_23  and  C_24
REMARK                            x       y       z     vdW  Elec       q    Type
REMARK                         _______ _______ _______ _____ _____    ______ ____
ROOT
ATOM      1  C   UNL     1      -6.371   1.225   1.076  0.00  0.00    -0.058 C 
ATOM      2  C   UNL     1      -6.930   0.609  -0.208  0.00  0.00    +0.085 C 
ATOM      3  N   UNL     1      -6.175   1.087  -1.363  0.00  0.00    -0.318 N 
ATOM      4  C   UNL     1      -4.962   1.640  -1.259  0.00  0.00    +0.200 C 
ATOM      5  O   UNL     1      -4.390   1.981  -2.273  0.00  0.00    -0.278 OA
ATOM      6  C   UNL     1      -4.277   1.856   0.061  0.00  0.00    +0.028 C 
ATOM      7  H   UNL     1      -6.570   0.999  -2.244  0.00  0.00    +0.149 HD
ATOM      8  N   UNL     1      -4.911   1.009   1.089  0.00  0.00    +0.391 N 
ATOM      9  H   UNL     1      -4.715   0.023   0.879  0.00  0.00    -0.080 HD
ENDROOT
BRANCH   8  10
ATOM     10  C   UNL     1      -4.360   1.335   2.424  0.00  0.00    -0.042 C 
BRANCH  10  14
ATOM     11  C   UNL     1      -8.134   0.936   5.685  0.00  0.00    +0.047 C 
ATOM     12  C   UNL     1      -6.908   0.353   5.030  0.00  0.00    -0.009 A 
ATOM     13  C   UNL     1      -6.223   1.079   4.075  0.00  0.00    +0.008 A 
ATOM     14  C   UNL     1      -5.102   0.544   3.470  0.00  0.00    -0.063 A 
ATOM     15  C   UNL     1      -4.655  -0.716   3.828  0.00  0.00    +0.005 A 
ATOM     16  C   UNL     1      -5.333  -1.443   4.787  0.00  0.00    +0.046 A 
ATOM     17  C   UNL     1      -6.462  -0.910   5.391  0.00  0.00    +0.123 A 
BRANCH  17  18
ATOM     18  O   UNL     1      -7.131  -1.624   6.334  0.00  0.00    -0.495 OA
ATOM     19  C   UNL     1      -6.615  -2.917   6.655  0.00  0.00    +0.277 C 
ENDBRANCH  17  18
ENDBRANCH  10  14
ENDBRANCH   8  10
BRANCH   6  20
ATOM     20  C   UNL     1      -2.802   1.468  -0.063  0.00  0.00    +0.090 C 
BRANCH  20  21
ATOM     21  C   UNL     1      -2.695   0.004  -0.406  0.00  0.00    +0.215 C 
ATOM     22  O   UNL     1      -3.692  -0.686  -0.438  0.00  0.00    -0.276 OA
ATOM     23  N   UNL     1      -1.491  -0.538  -0.678  0.00  0.00    -0.299 N 
ATOM     24  C   UNL     1      -0.287   0.296  -0.640  0.00  0.00    +0.132 C 
BRANCH  23  25
ATOM     25  C   UNL     1      -1.387  -1.961  -1.012  0.00  0.00    +0.164 C 
BRANCH  25  26
ATOM     26  C   UNL     1      -1.180  -2.759   0.250  0.00  0.00    +0.077 A 
ATOM     27  C   UNL     1      -2.265  -3.323   0.897  0.00  0.00    +0.135 A 
ATOM     28  N   UNL     1      -2.083  -4.027   2.001  0.00  0.00    -0.260 NA
ATOM     29  C   UNL     1      -0.866  -4.183   2.492  0.00  0.00    +0.130 A 
ATOM     30  C   UNL     1       0.218  -3.614   1.847  0.00  0.00    +0.131 A 
ATOM     31  N   UNL     1       0.037  -2.915   0.741  0.00  0.00    -0.255 NA
ENDBRANCH  25  26
ENDBRANCH  23  25
ENDBRANCH  20  21
ENDBRANCH   6  20
TORSDOF 7
