REMARK  Name = ZINC10090245
REMARK  11 active torsions:
REMARK  status: ('A' for Active; 'I' for Inactive)
REMARK    1  A    between atoms: C_1  and  C_2
REMARK    2  A    between atoms: C_5  and  C_8
REMARK    3  A    between atoms: C_8  and  C_10
REMARK    4  A    between atoms: C_8  and  N_50
REMARK    5  A    between atoms: C_10  and  N_11
REMARK    6  A    between atoms: N_11  and  S_12
REMARK    7  A    between atoms: S_12  and  C_15
REMARK    8  A    between atoms: C_18  and  C_22
REMARK    9  A    between atoms: C_19  and  C_21
REMARK   10  A    between atoms: C_23  and  N_50
REMARK   11  A    between atoms: C_24  and  N_50
REMARK                            x       y       z     vdW  Elec       q    Type
REMARK                         _______ _______ _______ _____ _____    ______ ____
ROOT
ATOM      1  C   UNL     1      -3.512   3.165  -2.424  0.00  0.00    +0.095 C 
ENDROOT
BRANCH   1   2
ATOM      2  N   UNL     1      -3.001   4.378  -1.781  0.00  0.00    -0.191 NA
ATOM      3  H   UNL     1      -3.010   5.221  -2.259  0.00  0.00    +0.148 HD
BRANCH   2   4
ATOM      4  S   UNL     1      -2.407   4.308  -0.236  0.00  0.00    +0.058 S 
ATOM      5  O   UNL     1      -3.373   3.612   0.539  0.00  0.00    -0.153 OA
ATOM      6  O   UNL     1      -1.970   5.620   0.090  0.00  0.00    -0.153 OA
BRANCH   4   7
ATOM      7  C   UNL     1      -0.968   3.292  -0.277  0.00  0.00    +0.106 A 
ATOM      8  C   UNL     1      -1.078   1.928  -0.082  0.00  0.00    +0.029 A 
ATOM      9  C   UNL     1       0.052   1.133  -0.108  0.00  0.00    +0.005 A 
ATOM     10  C   UNL     1       1.291   1.699  -0.341  0.00  0.00    -0.047 A 
ATOM     11  C   UNL     1       1.401   3.062  -0.541  0.00  0.00    -0.046 A 
ATOM     12  C   UNL     1       0.272   3.859  -0.509  0.00  0.00    +0.032 A 
ATOM     13  C   UNL     1       2.752   3.680  -0.794  0.00  0.00    +0.044 C 
ATOM     14  C   UNL     1       2.522   0.831  -0.376  0.00  0.00    +0.044 C 
ENDBRANCH   4   7
ENDBRANCH   2   4
ENDBRANCH   1   2
BRANCH   1  15
ATOM     15  C   UNL     1      -4.413   3.552  -3.599  0.00  0.00    -0.023 C 
BRANCH  15  20
ATOM     16  C   UNL     1      -6.347  -1.232  -6.200  0.00  0.00    +0.044 C 
ATOM     17  C   UNL     1      -5.843   0.016  -5.522  0.00  0.00    -0.050 A 
ATOM     18  C   UNL     1      -4.841   0.766  -6.110  0.00  0.00    +0.003 A 
ATOM     19  C   UNL     1      -4.379   1.910  -5.488  0.00  0.00    +0.002 A 
ATOM     20  C   UNL     1      -4.917   2.305  -4.278  0.00  0.00    -0.060 A 
ATOM     21  C   UNL     1      -5.915   1.552  -3.687  0.00  0.00    +0.002 A 
ATOM     22  C   UNL     1      -6.381   0.410  -4.312  0.00  0.00    +0.003 A 
ENDBRANCH  15  20
BRANCH  15  25
ATOM     23  C   UNL     1      -5.880   3.973  -1.720  0.00  0.00    -0.096 C 
ATOM     24  C   UNL     1      -5.292   5.777  -3.224  0.00  0.00    -0.096 C 
ATOM     25  N   UNL     1      -5.575   4.330  -3.121  0.00  0.00    +0.381 N 
ATOM     26  H   UNL     1      -6.389   4.107  -3.707  0.00  0.00    -0.082 HD
ENDBRANCH  15  25
ENDBRANCH   1  15
TORSDOF 6
