REMARK  Name = ZINC67236401
REMARK  11 active torsions:
REMARK  status: ('A' for Active; 'I' for Inactive)
REMARK    1  A    between atoms: C_1  and  C_2
REMARK    2  A    between atoms: N_10  and  C_29
REMARK    3  A    between atoms: C_11  and  S_13
REMARK    4  A    between atoms: S_13  and  C_14
REMARK    5  A    between atoms: C_14  and  C_15
REMARK    6  A    between atoms: N_17  and  C_18
REMARK    7  A    between atoms: C_21  and  O_26
REMARK    8  A    between atoms: C_23  and  O_24
REMARK    9  A    between atoms: O_24  and  C_25
REMARK   10  A    between atoms: O_26  and  C_27
REMARK   11  A    between atoms: C_29  and  C_30
REMARK                            x       y       z     vdW  Elec       q    Type
REMARK                         _______ _______ _______ _____ _____    ______ ____
ROOT
ATOM      1  C   UNL     1      -0.098   1.499   0.014  0.00  0.00    +0.063 C 
ATOM      2  C   UNL     1      -0.069  -0.008   0.005  0.00  0.00    +0.016 A 
ATOM      3  C   UNL     1      -0.052  -0.779  -1.101  0.00  0.00    +0.051 A 
ATOM      4  C   UNL     1      -0.027  -2.130  -0.688  0.00  0.00    +0.097 A 
ATOM      5  C   UNL     1      -0.029  -2.120   0.712  0.00  0.00    +0.131 A 
ATOM      6  N   UNL     1      -0.050  -0.800   1.112  0.00  0.00    -0.353 N 
ATOM      7  H   UNL     1      -0.053  -0.488   2.030  0.00  0.00    +0.166 HD
ATOM      8  C   UNL     1      -0.007  -3.349   1.397  0.00  0.00    +0.279 A 
ATOM      9  O   UNL     1      -0.009  -3.383   2.617  0.00  0.00    -0.265 OA
ATOM     10  N   UNL     1       0.017  -4.490   0.675  0.00  0.00    -0.279 N 
ATOM     11  C   UNL     1       0.019  -4.444  -0.690  0.00  0.00    +0.173 A 
ATOM     12  N   UNL     1      -0.003  -3.306  -1.344  0.00  0.00    -0.221 NA
ENDROOT
BRANCH  11  13
ATOM     13  S   UNL     1       0.052  -5.953  -1.598  0.00  0.00    -0.078 S 
BRANCH  13  14
ATOM     14  C   UNL     1       0.045  -5.423  -3.333  0.00  0.00    +0.173 C 
BRANCH  14  15
ATOM     15  C   UNL     1       0.071  -6.634  -4.229  0.00  0.00    +0.228 C 
ATOM     16  O   UNL     1       0.093  -7.746  -3.745  0.00  0.00    -0.275 OA
ATOM     17  N   UNL     1       0.071  -6.481  -5.568  0.00  0.00    -0.282 N 
ATOM     18  H   UNL     1      -0.011  -5.596  -5.955  0.00  0.00    +0.155 HD
BRANCH  17  19
ATOM     19  C   UNL     1       0.190  -7.604  -6.401  0.00  0.00    +0.077 A 
ATOM     20  C   UNL     1      -0.382  -8.811  -6.027  0.00  0.00    +0.050 A 
ATOM     21  C   UNL     1      -0.264  -9.916  -6.848  0.00  0.00    +0.084 A 
ATOM     22  C   UNL     1       0.426  -9.821  -8.049  0.00  0.00    +0.142 A 
ATOM     23  C   UNL     1       0.999  -8.617  -8.427  0.00  0.00    +0.094 A 
ATOM     24  C   UNL     1       0.878  -7.505  -7.608  0.00  0.00    +0.145 A 
ATOM     25 CL   UNL     1      -0.980 -11.426  -6.377  0.00  0.00    -0.080 Cl
BRANCH  24  26
ATOM     26  O   UNL     1       1.435  -6.322  -7.980  0.00  0.00    -0.493 OA
ATOM     27  C   UNL     1       2.125  -6.295  -9.231  0.00  0.00    +0.277 C 
ENDBRANCH  24  26
BRANCH  22  28
ATOM     28  O   UNL     1       0.541 -10.911  -8.855  0.00  0.00    -0.494 OA
ATOM     29  C   UNL     1       1.264 -10.741 -10.075  0.00  0.00    +0.277 C 
ENDBRANCH  22  28
ENDBRANCH  17  19
ENDBRANCH  14  15
ENDBRANCH  13  14
ENDBRANCH  11  13
BRANCH  10  30
ATOM     30  C   UNL     1       0.041  -5.785   1.359  0.00  0.00    +0.201 C 
BRANCH  30  31
ATOM     31  C   UNL     1      -1.371  -6.256   1.591  0.00  0.00    +0.125 A 
ATOM     32  C   UNL     1      -2.095  -7.017   0.750  0.00  0.00    +0.046 A 
ATOM     33  C   UNL     1      -3.354  -7.219   1.361  0.00  0.00    +0.041 A 
ATOM     34  C   UNL     1      -3.324  -6.570   2.539  0.00  0.00    +0.195 A 
ATOM     35  O   UNL     1      -2.119  -5.994   2.675  0.00  0.00    -0.466 OA
ENDBRANCH  30  31
ENDBRANCH  10  30
TORSDOF 8
