REMARK  Name = ZINC35956845
REMARK  15 active torsions:
REMARK  status: ('A' for Active; 'I' for Inactive)
REMARK    1  A    between atoms: C_1  and  O_2
REMARK    2  A    between atoms: O_2  and  S_3
REMARK    3  A    between atoms: S_3  and  C_6
REMARK    4  A    between atoms: C_9  and  O_12
REMARK    5  A    between atoms: O_12  and  C_13
REMARK    6  A    between atoms: C_18  and  C_19
REMARK    7  A    between atoms: C_19  and  N_20
REMARK    8  A    between atoms: N_20  and  C_21
REMARK    9  A    between atoms: C_21  and  C_22
REMARK   10  A    between atoms: C_27  and  C_29
REMARK   11  A    between atoms: C_29  and  C_30
REMARK   12  A    between atoms: C_30  and  C_31
REMARK   13  A    between atoms: C_31  and  C_32
REMARK   14  A    between atoms: C_32  and  C_33
REMARK   15  A    between atoms: C_33  and  N_34
REMARK                            x       y       z     vdW  Elec       q    Type
REMARK                         _______ _______ _______ _____ _____    ______ ____
ROOT
ATOM      1  C   UNL     1       9.222   0.555   0.105  0.00  0.00    +0.147 C 
ENDROOT
BRANCH   1   7
ATOM      2  C   UNL     1       7.152  -0.848   0.290  0.00  0.00    +0.133 A 
ATOM      3  C   UNL     1       6.487  -1.984   0.731  0.00  0.00    +0.046 A 
ATOM      4  C   UNL     1       7.164  -2.936   1.468  0.00  0.00    +0.004 A 
ATOM      5  C   UNL     1       8.502  -2.757   1.768  0.00  0.00    +0.001 A 
ATOM      6  C   UNL     1       9.166  -1.626   1.331  0.00  0.00    +0.009 A 
ATOM      7  C   UNL     1       8.496  -0.674   0.587  0.00  0.00    +0.012 A 
BRANCH   2   8
ATOM      8  O   UNL     1       6.488   0.089  -0.436  0.00  0.00    -0.456 OA
BRANCH   8  12
ATOM      9  C   UNL     1       2.418  -0.365  -0.931  0.00  0.00    +0.117 A 
ATOM     10  C   UNL     1       2.934  -0.077   0.320  0.00  0.00    +0.033 A 
ATOM     11  C   UNL     1       4.296   0.075   0.488  0.00  0.00    +0.048 A 
ATOM     12  C   UNL     1       5.148  -0.060  -0.599  0.00  0.00    +0.129 A 
ATOM     13  C   UNL     1       4.628  -0.349  -1.853  0.00  0.00    +0.048 A 
ATOM     14  C   UNL     1       3.265  -0.505  -2.015  0.00  0.00    +0.033 A 
BRANCH   9  15
ATOM     15  S   UNL     1       0.679  -0.559  -1.142  0.00  0.00    +0.112 S 
ATOM     16  O   UNL     1       0.404  -0.291  -2.510  0.00  0.00    -0.142 OA
ATOM     17  O   UNL     1       0.059   0.160  -0.084  0.00  0.00    -0.142 OA
BRANCH  15  19
ATOM     18  C   UNL     1       0.391  -2.425   0.459  0.00  0.00    +0.230 C 
ATOM     19  O   UNL     1       0.360  -2.030  -0.914  0.00  0.00    -0.238 OA
ENDBRANCH  15  19
ENDBRANCH   9  15
ENDBRANCH   8  12
ENDBRANCH   2   8
ENDBRANCH   1   7
BRANCH   1  20
ATOM     20  N   UNL     1       8.918   1.681   0.992  0.00  0.00    -0.290 N 
ATOM     21  C   UNL     1       7.862   2.478   0.732  0.00  0.00    +0.216 C 
ATOM     22  O   UNL     1       7.164   2.263  -0.236  0.00  0.00    -0.276 OA
BRANCH  20  23
ATOM     23  C   UNL     1       9.761   1.941   2.162  0.00  0.00    +0.182 C 
BRANCH  23  24
ATOM     24  C   UNL     1      10.880   2.873   1.777  0.00  0.00    +0.122 A 
ATOM     25  C   UNL     1      10.843   4.216   1.841  0.00  0.00    +0.046 A 
ATOM     26  C   UNL     1      12.098   4.683   1.387  0.00  0.00    +0.041 A 
ATOM     27  C   UNL     1      12.828   3.598   1.074  0.00  0.00    +0.195 A 
ATOM     28  O   UNL     1      12.087   2.504   1.317  0.00  0.00    -0.466 OA
ENDBRANCH  23  24
ENDBRANCH  20  23
BRANCH  21  29
ATOM     29  C   UNL     1       7.550   3.636   1.645  0.00  0.00    +0.096 C 
BRANCH  29  30
ATOM     30  C   UNL     1       6.312   4.372   1.128  0.00  0.00    +0.009 C 
BRANCH  30  31
ATOM     31  C   UNL     1       5.995   5.548   2.054  0.00  0.00    -0.001 C 
BRANCH  31  32
ATOM     32  C   UNL     1       4.757   6.285   1.538  0.00  0.00    -0.020 C 
BRANCH  32  33
ATOM     33  C   UNL     1       4.440   7.460   2.464  0.00  0.00    -0.086 C 
BRANCH  33  34
ATOM     34  N   UNL     1       3.252   8.168   1.968  0.00  0.00    +0.378 N 
ATOM     35  H   UNL     1       3.042   8.943   2.579  0.00  0.00    -0.090 HD
ATOM     36  H   UNL     1       3.430   8.512   1.036  0.00  0.00    -0.090 HD
ATOM     37  H   UNL     1       2.467   7.534   1.948  0.00  0.00    -0.090 HD
ENDBRANCH  33  34
ENDBRANCH  32  33
ENDBRANCH  31  32
ENDBRANCH  30  31
ENDBRANCH  29  30
ENDBRANCH  21  29
ENDBRANCH   1  20
TORSDOF 14
