REMARK  Name = ZINC04684005
REMARK  7 active torsions:
REMARK  status: ('A' for Active; 'I' for Inactive)
REMARK    1  A    between atoms: C_1  and  O_2
REMARK    2  A    between atoms: O_2  and  C_3
REMARK    3  A    between atoms: C_8  and  C_9
REMARK    4  A    between atoms: C_9  and  N_10
REMARK    5  A    between atoms: N_10  and  C_11
REMARK    6  A    between atoms: C_14  and  N_20
REMARK    7  A    between atoms: C_16  and  N_17
REMARK                            x       y       z     vdW  Elec       q    Type
REMARK                         _______ _______ _______ _____ _____    ______ ____
ROOT
ATOM      1  C   UNL     1      -2.198  -3.856   0.517  0.00  0.00    +0.058 A 
ATOM      2  C   UNL     1      -1.597  -4.580   1.538  0.00  0.00    +0.027 A 
ATOM      3  C   UNL     1      -2.363  -5.087   2.569  0.00  0.00    +0.026 A 
ATOM      4  C   UNL     1      -3.735  -4.872   2.584  0.00  0.00    +0.046 A 
ATOM      5  C   UNL     1      -4.336  -4.148   1.563  0.00  0.00    +0.058 A 
ATOM      6  C   UNL     1      -3.569  -3.636   0.535  0.00  0.00    +0.149 A 
ENDROOT
BRANCH   4   7
ATOM      7  N   UNL     1      -4.514  -5.388   3.631  0.00  0.00    -0.210 N 
ATOM      8  C   UNL     1      -5.861  -5.223   3.709  0.00  0.00    +0.230 C 
ATOM      9  O   UNL     1      -6.596  -4.819   2.834  0.00  0.00    -0.274 OA
ATOM     10  C   UNL     1      -6.254  -5.639   5.093  0.00  0.00    +0.092 C 
ATOM     11  C   UNL     1      -7.594  -6.319   5.284  0.00  0.00    +0.040 C 
ATOM     12  C   UNL     1      -7.582  -6.936   6.667  0.00  0.00    -0.030 C 
ATOM     13  C   UNL     1      -6.506  -7.165   7.358  0.00  0.00    -0.030 C 
ATOM     14  C   UNL     1      -5.101  -6.875   6.874  0.00  0.00    +0.040 C 
ATOM     15  C   UNL     1      -5.162  -6.716   5.376  0.00  0.00    +0.092 C 
ATOM     16  C   UNL     1      -3.996  -6.105   4.662  0.00  0.00    +0.230 C 
ATOM     17  O   UNL     1      -2.824  -6.225   4.948  0.00  0.00    -0.274 OA
ENDBRANCH   4   7
BRANCH   6  18
ATOM     18  N   UNL     1      -4.209  -2.859  -0.550  0.00  0.00    +0.058 N 
ATOM     19  O   UNL     1      -3.642  -1.902  -1.024  0.00  0.00    -0.126 OA
ATOM     20  O   UNL     1      -5.299  -3.181  -0.962  0.00  0.00    -0.126 OA
ENDBRANCH   6  18
BRANCH   1  21
ATOM     21  N   UNL     1      -1.421  -3.343  -0.527  0.00  0.00    -0.338 N 
ATOM     22  H   UNL     1      -1.850  -2.912  -1.283  0.00  0.00    +0.146 HD
BRANCH  21  23
ATOM     23  C   UNL     1       0.038  -3.458  -0.479  0.00  0.00    +0.140 C 
BRANCH  23  29
ATOM     24  C   UNL     1       0.778  -1.454  -1.793  0.00  0.00    +0.125 A 
ATOM     25  C   UNL     1       1.330  -0.881  -2.929  0.00  0.00    +0.046 A 
ATOM     26  C   UNL     1       1.728  -1.682  -3.982  0.00  0.00    +0.004 A 
ATOM     27  C   UNL     1       1.577  -3.054  -3.903  0.00  0.00    +0.001 A 
ATOM     28  C   UNL     1       1.027  -3.628  -2.772  0.00  0.00    +0.009 A 
ATOM     29  C   UNL     1       0.632  -2.831  -1.715  0.00  0.00    +0.011 A 
BRANCH  24  31
ATOM     30  C   UNL     1       0.565   0.742  -0.906  0.00  0.00    +0.277 C 
ATOM     31  O   UNL     1       0.386  -0.668  -0.756  0.00  0.00    -0.495 OA
ENDBRANCH  24  31
ENDBRANCH  23  29
ENDBRANCH  21  23
ENDBRANCH   1  21
TORSDOF 6
