REMARK  Name = ZINC09408760
REMARK  5 active torsions:
REMARK  status: ('A' for Active; 'I' for Inactive)
REMARK    1  A    between atoms: C_5  and  N_7
REMARK    2  A    between atoms: N_10  and  C_13
REMARK    3  A    between atoms: C_19  and  N_21
REMARK    4  A    between atoms: N_21  and  S_22
REMARK    5  A    between atoms: S_22  and  C_25
REMARK                            x       y       z     vdW  Elec       q    Type
REMARK                         _______ _______ _______ _____ _____    ______ ____
ROOT
ATOM      1  C   UNL     1       3.255  -5.744  -0.052  0.00  0.00    -0.050 C 
ATOM      2  C   UNL     1       3.096  -6.623   1.190  0.00  0.00    -0.014 C 
ATOM      3  C   UNL     1       4.162  -7.720   1.178  0.00  0.00    -0.001 C 
ATOM      4  C   UNL     1       3.998  -8.578  -0.078  0.00  0.00    +0.001 C 
ATOM      5  C   UNL     1       4.157  -7.699  -1.320  0.00  0.00    +0.019 C 
ATOM      6  C   UNL     1       3.090  -6.602  -1.309  0.00  0.00    +0.063 C 
ENDROOT
BRANCH   1  10
ATOM      7  N   UNL     1       1.236  -2.079  -0.021  0.00  0.00    -0.331 N 
ATOM      8  C   UNL     1       1.254  -2.842   1.236  0.00  0.00    +0.086 C 
ATOM      9  C   UNL     1       2.390  -3.869   1.165  0.00  0.00    -0.059 C 
ATOM     10  N   UNL     1       2.231  -4.691  -0.041  0.00  0.00    +0.385 N 
ATOM     11  C   UNL     1       2.378  -3.855  -1.239  0.00  0.00    -0.059 C 
ATOM     12  C   UNL     1       1.236  -2.828  -1.287  0.00  0.00    +0.086 C 
ATOM     13  H   UNL     1       1.315  -5.115  -0.039  0.00  0.00    -0.081 HD
BRANCH   7  18
ATOM     14  C   UNL     1      -0.017   1.377   0.010  0.00  0.00    +0.002 A 
ATOM     15  C   UNL     1       1.170   2.087   0.002  0.00  0.00    +0.003 A 
ATOM     16  C   UNL     1       2.380   1.418  -0.013  0.00  0.00    +0.040 A 
ATOM     17  C   UNL     1       2.406   0.035  -0.021  0.00  0.00    +0.144 A 
ATOM     18  C   UNL     1       1.214  -0.681  -0.013  0.00  0.00    +0.065 A 
ATOM     19  C   UNL     1       0.002  -0.004   0.002  0.00  0.00    +0.026 A 
ATOM     20  F   UNL     1       3.588  -0.619  -0.036  0.00  0.00    -0.204 F 
ENDBRANCH   7  18
ENDBRANCH   1  10
BRANCH   6  21
ATOM     21  N   UNL     1       1.759  -7.214  -1.311  0.00  0.00    -0.188 NA
ATOM     22  H   UNL     1       1.351  -7.491  -0.475  0.00  0.00    +0.148 HD
BRANCH  21  23
ATOM     23  S   UNL     1       0.952  -7.435  -2.740  0.00  0.00    +0.059 S 
ATOM     24  O   UNL     1      -0.280  -8.066  -2.417  0.00  0.00    -0.153 OA
ATOM     25  O   UNL     1       1.014  -6.198  -3.437  0.00  0.00    -0.153 OA
BRANCH  23  26
ATOM     26  C   UNL     1       1.879  -8.595  -3.688  0.00  0.00    +0.105 A 
ATOM     27  C   UNL     1       2.868  -8.152  -4.546  0.00  0.00    +0.030 A 
ATOM     28  C   UNL     1       3.595  -9.062  -5.291  0.00  0.00    +0.022 A 
ATOM     29  C   UNL     1       3.333 -10.415  -5.177  0.00  0.00    +0.041 A 
ATOM     30  C   UNL     1       2.343 -10.858  -4.318  0.00  0.00    +0.022 A 
ATOM     31  C   UNL     1       1.620  -9.948  -3.570  0.00  0.00    +0.030 A 
ATOM     32 CL   UNL     1       4.246 -11.558  -6.112  0.00  0.00    -0.084 Cl
ENDBRANCH  23  26
ENDBRANCH  21  23
ENDBRANCH   6  21
TORSDOF 5
