REMARK  Name = ZINC26895846
REMARK  6 active torsions:
REMARK  status: ('A' for Active; 'I' for Inactive)
REMARK    1  A    between atoms: C_1  and  C_2
REMARK    2  A    between atoms: C_2  and  C_33
REMARK    3  A    between atoms: C_6  and  N_25
REMARK    4  A    between atoms: C_13  and  N_18
REMARK    5  A    between atoms: N_18  and  C_19
REMARK    6  A    between atoms: C_19  and  C_20
REMARK                            x       y       z     vdW  Elec       q    Type
REMARK                         _______ _______ _______ _____ _____    ______ ____
ROOT
ATOM      1  C   UNL     1       4.603   3.805  -5.715  0.00  0.00    +0.041 C 
ATOM      2  C   UNL     1       4.857   4.085  -4.232  0.00  0.00    +0.068 C 
ATOM      3  C   UNL     1       3.906   3.244  -3.378  0.00  0.00    +0.070 C 
ATOM      4  C   UNL     1       4.339   3.295  -1.937  0.00  0.00    -0.025 A 
ATOM      5  C   UNL     1       5.580   3.711  -1.571  0.00  0.00    +0.020 A 
ATOM      6  C   UNL     1       5.939   3.734  -0.219  0.00  0.00    +0.105 A 
ATOM      7  N   UNL     1       5.078   3.353   0.710  0.00  0.00    -0.337 N 
ATOM      8  C   UNL     1       3.869   2.945   0.392  0.00  0.00    +0.089 A 
ATOM      9  C   UNL     1       3.415   2.890  -0.942  0.00  0.00    +0.031 A 
ATOM     10  C   UNL     1       2.038   2.417  -1.122  0.00  0.00    +0.055 A 
ATOM     11  C   UNL     1       1.355   2.071   0.007  0.00  0.00    +0.050 A 
ATOM     12  S   UNL     1       2.477   2.368   1.336  0.00  0.00    -0.070 S 
ATOM     13  C   UNL     1      -0.051   1.555   0.020  0.00  0.00    +0.189 C 
ATOM     14  N   UNL     1      -0.664   2.014  -1.244  0.00  0.00    -0.359 N 
ATOM     15  C   UNL     1       0.110   2.097  -2.375  0.00  0.00    +0.157 C 
ATOM     16  N   UNL     1       1.390   2.310  -2.348  0.00  0.00    -0.306 N 
ATOM     17  C   UNL     1       6.592   4.159  -2.595  0.00  0.00    +0.199 C 
ATOM     18  O   UNL     1       6.203   3.725  -3.897  0.00  0.00    -0.369 OA
ATOM     19  C   UNL     1       4.633   5.571  -3.942  0.00  0.00    +0.041 C 
ATOM     20  H   UNL     1      -1.729   2.286  -1.285  0.00  0.00    +0.162 HD
ATOM     21  H   UNL     1       5.369   3.374   1.771  0.00  0.00    +0.168 HD
ATOM     22  H   UNL     1       1.962   2.406  -3.283  0.00  0.00    +0.153 HD
ENDROOT
BRANCH   6  23
ATOM     23  N   UNL     1       7.210   4.159   0.150  0.00  0.00    -0.312 N 
ATOM     24  C   UNL     1       7.949   3.085   0.830  0.00  0.00    +0.134 C 
ATOM     25  C   UNL     1       9.360   3.576   1.165  0.00  0.00    +0.178 C 
ATOM     26  O   UNL     1       9.270   4.760   1.962  0.00  0.00    -0.377 OA
ATOM     27  C   UNL     1       8.558   5.827   1.330  0.00  0.00    +0.178 C 
ATOM     28  C   UNL     1       7.139   5.359   0.997  0.00  0.00    +0.134 C 
ENDBRANCH   6  23
BRANCH  13  29
ATOM     29  N   UNL     1      -0.051   0.088   0.080  0.00  0.00    -0.286 NA
ATOM     30  H   UNL     1      -0.314  -0.319  -0.908  0.00  0.00    +0.125 HD
BRANCH  29  31
ATOM     31  C   UNL     1      -1.026  -0.399   1.065  0.00  0.00    +0.157 C 
BRANCH  31  32
ATOM     32  C   UNL     1      -0.998  -1.906   1.098  0.00  0.00    +0.119 A 
ATOM     33  C   UNL     1      -0.216  -2.660   1.890  0.00  0.00    +0.046 A 
ATOM     34  C   UNL     1      -0.513  -4.010   1.593  0.00  0.00    +0.041 A 
ATOM     35  C   UNL     1      -1.460  -4.000   0.637  0.00  0.00    +0.195 A 
ATOM     36  O   UNL     1      -1.753  -2.722   0.345  0.00  0.00    -0.467 OA
ENDBRANCH  31  32
ENDBRANCH  29  31
ENDBRANCH  13  29
TORSDOF 4
