REMARK  Name = ZINC36659912
REMARK  7 active torsions:
REMARK  status: ('A' for Active; 'I' for Inactive)
REMARK    1  A    between atoms: C_1  and  C_2
REMARK    2  A    between atoms: N_10  and  C_14
REMARK    3  A    between atoms: C_14  and  C_15
REMARK    4  A    between atoms: N_17  and  C_18
REMARK    5  A    between atoms: C_18  and  C_19
REMARK    6  A    between atoms: C_19  and  C_21
REMARK    7  A    between atoms: C_19  and  N_27
REMARK                            x       y       z     vdW  Elec       q    Type
REMARK                         _______ _______ _______ _____ _____    ______ ____
ROOT
ATOM      1  C   UNL     1       3.601  -6.184  -1.434  0.00  0.00    +0.231 C 
ATOM      2  O   UNL     1       3.457  -5.377  -2.328  0.00  0.00    -0.274 OA
ATOM      3  N   UNL     1       3.991  -7.443  -1.719  0.00  0.00    -0.315 N 
ATOM      4  H   UNL     1       4.106  -8.088  -1.004  0.00  0.00    +0.149 HD
ENDROOT
BRANCH   1   5
ATOM      5  C   UNL     1       3.344  -5.780  -0.005  0.00  0.00    +0.213 C 
BRANCH   5  15
ATOM      6  C   UNL     1       0.585   1.723   0.184  0.00  0.00    +0.007 C 
ATOM      7  C   UNL     1       0.487   0.199   0.090  0.00  0.00    -0.014 C 
ATOM      8  C   UNL     1       1.274  -0.289  -1.128  0.00  0.00    +0.006 C 
ATOM      9  C   UNL     1       1.166  -1.813  -1.226  0.00  0.00    +0.035 C 
ATOM     10  C   UNL     1       1.721  -2.446   0.045  0.00  0.00    +0.113 C 
ATOM     11  C   UNL     1       0.959  -1.952   1.270  0.00  0.00    +0.035 C 
ATOM     12  C   UNL     1       1.067  -0.427   1.360  0.00  0.00    +0.006 C 
ATOM     13  C   UNL     1       1.656  -3.953  -0.044  0.00  0.00    +0.247 C 
ATOM     14  O   UNL     1       0.664  -4.639  -0.165  0.00  0.00    -0.273 OA
ATOM     15  N   UNL     1       2.935  -4.374   0.038  0.00  0.00    -0.215 N 
ATOM     16  C   UNL     1       3.785  -3.347   0.166  0.00  0.00    +0.310 C 
ATOM     17  O   UNL     1       4.990  -3.475   0.259  0.00  0.00    -0.252 OA
ATOM     18  N   UNL     1       3.154  -2.158   0.180  0.00  0.00    -0.285 N 
ATOM     19  H   UNL     1       3.566  -1.283   0.263  0.00  0.00    +0.151 HD
ENDBRANCH   5  15
ENDBRANCH   1   5
BRANCH   3  20
ATOM     20  C   UNL     1       4.241  -7.836  -3.108  0.00  0.00    +0.093 C 
BRANCH  20  21
ATOM     21  C   UNL     1       4.770  -9.271  -3.145  0.00  0.00    -0.020 C 
BRANCH  21  22
ATOM     22  C   UNL     1       3.697 -10.214  -2.663  0.00  0.00    -0.059 A 
ATOM     23  C   UNL     1       2.687 -10.607  -3.521  0.00  0.00    +0.002 A 
ATOM     24  C   UNL     1       1.703 -11.472  -3.080  0.00  0.00    +0.000 A 
ATOM     25  C   UNL     1       1.730 -11.944  -1.781  0.00  0.00    +0.000 A 
ATOM     26  C   UNL     1       2.741 -11.552  -0.924  0.00  0.00    +0.000 A 
ATOM     27  C   UNL     1       3.727 -10.691  -1.366  0.00  0.00    +0.002 A 
ENDBRANCH  21  22
BRANCH  21  28
ATOM     28  N   UNL     1       5.146  -9.619  -4.521  0.00  0.00    +0.385 N 
ATOM     29  C   UNL     1       6.254  -8.745  -4.986  0.00  0.00    -0.078 C 
ATOM     30  C   UNL     1       6.889  -9.561  -6.140  0.00  0.00    -0.020 C 
ATOM     31  C   UNL     1       6.796 -11.016  -5.626  0.00  0.00    -0.020 C 
ATOM     32  C   UNL     1       5.673 -11.000  -4.572  0.00  0.00    -0.078 C 
ATOM     33  H   UNL     1       4.349  -9.528  -5.134  0.00  0.00    -0.081 HD
ENDBRANCH  21  28
ENDBRANCH  20  21
ENDBRANCH   3  20
TORSDOF 6
