REMARK  Name = ZINC47139099
REMARK  9 active torsions:
REMARK  status: ('A' for Active; 'I' for Inactive)
REMARK    1  A    between atoms: C_1  and  O_2
REMARK    2  A    between atoms: O_2  and  C_3
REMARK    3  A    between atoms: C_5  and  C_10
REMARK    4  A    between atoms: C_8  and  O_9
REMARK    5  A    between atoms: N_14  and  C_28
REMARK    6  A    between atoms: N_16  and  N_17
REMARK    7  A    between atoms: C_18  and  C_19
REMARK    8  A    between atoms: C_24  and  O_25
REMARK    9  A    between atoms: C_28  and  C_29
REMARK                            x       y       z     vdW  Elec       q    Type
REMARK                         _______ _______ _______ _____ _____    ______ ____
ROOT
ATOM      1  C   UNL     1      -5.897   0.221   3.058  0.00  0.00    +0.028 C 
ATOM      2  C   UNL     1      -6.902  -0.414   2.402  0.00  0.00    +0.078 C 
ATOM      3  C   UNL     1      -8.103   0.150   1.758  0.00  0.00    +0.259 C 
ATOM      4  O   UNL     1      -8.321   1.348   1.757  0.00  0.00    -0.269 OA
ATOM      5  N   UNL     1      -8.932  -0.704   1.182  0.00  0.00    -0.237 N 
ATOM      6  C   UNL     1      -8.668  -2.056   1.194  0.00  0.00    +0.190 C 
ATOM      7  N   UNL     1      -9.381  -3.035   0.673  0.00  0.00    -0.126 NA
ATOM      8  S   UNL     1      -7.121  -2.158   2.080  0.00  0.00    -0.047 S 
ENDROOT
BRANCH   1  11
ATOM      9  C   UNL     1      -2.788  -0.662   4.960  0.00  0.00    +0.162 A 
ATOM     10  C   UNL     1      -3.742   0.077   4.289  0.00  0.00    +0.057 A 
ATOM     11  C   UNL     1      -4.878  -0.558   3.771  0.00  0.00    -0.020 A 
ATOM     12  C   UNL     1      -5.038  -1.940   3.937  0.00  0.00    +0.012 A 
ATOM     13  C   UNL     1      -4.080  -2.668   4.607  0.00  0.00    +0.050 A 
ATOM     14  C   UNL     1      -2.952  -2.038   5.115  0.00  0.00    +0.158 A 
BRANCH   9  16
ATOM     15  C   UNL     1      -1.580   1.363   5.268  0.00  0.00    +0.277 C 
ATOM     16  O   UNL     1      -1.684  -0.048   5.464  0.00  0.00    -0.491 OA
ENDBRANCH   9  16
BRANCH  14  17
ATOM     17  O   UNL     1      -2.009  -2.763   5.771  0.00  0.00    -0.503 OA
ATOM     18  H   UNL     1      -2.160  -2.836   6.723  0.00  0.00    +0.292 HD
ENDBRANCH  14  17
ENDBRANCH   1  11
BRANCH   7  19
ATOM     19  N   UNL     1     -10.482  -2.773   0.055  0.00  0.00    -0.155 NA
ATOM     20  C   UNL     1     -11.188  -3.744  -0.461  0.00  0.00    +0.146 C 
BRANCH  20  21
ATOM     21  C   UNL     1     -10.747  -5.137  -0.305  0.00  0.00    +0.038 A 
ATOM     22  C   UNL     1      -9.386  -5.436  -0.189  0.00  0.00    +0.033 A 
ATOM     23  C   UNL     1      -8.980  -6.746  -0.043  0.00  0.00    +0.042 A 
ATOM     24  C   UNL     1      -9.915  -7.768  -0.009  0.00  0.00    +0.023 A 
ATOM     25  C   UNL     1     -11.264  -7.485  -0.123  0.00  0.00    +0.047 A 
ATOM     26  C   UNL     1     -11.690  -6.176  -0.265  0.00  0.00    +0.126 A 
ATOM     27 CL   UNL     1      -7.290  -7.117   0.100  0.00  0.00    -0.084 Cl
BRANCH  26  28
ATOM     28  O   UNL     1     -13.016  -5.898  -0.370  0.00  0.00    -0.506 OA
ATOM     29  H   UNL     1     -13.363  -5.974  -1.269  0.00  0.00    +0.292 HD
ENDBRANCH  26  28
ENDBRANCH  20  21
ENDBRANCH   7  19
BRANCH   5  30
ATOM     30  C   UNL     1     -10.144  -0.208   0.525  0.00  0.00    +0.190 C 
BRANCH  30  31
ATOM     31  C   UNL     1      -9.845   0.092  -0.921  0.00  0.00    +0.123 A 
ATOM     32  C   UNL     1      -9.967  -0.772  -1.945  0.00  0.00    +0.046 A 
ATOM     33  C   UNL     1      -9.584  -0.077  -3.115  0.00  0.00    +0.041 A 
ATOM     34  C   UNL     1      -9.251   1.170  -2.736  0.00  0.00    +0.195 A 
ATOM     35  O   UNL     1      -9.416   1.268  -1.407  0.00  0.00    -0.466 OA
ENDBRANCH  30  31
ENDBRANCH   5  30
TORSDOF 8
