REMARK  Name = ZINC17526458
REMARK  6 active torsions:
REMARK  status: ('A' for Active; 'I' for Inactive)
REMARK    1  A    between atoms: C_4  and  O_30
REMARK    2  A    between atoms: C_5  and  C_7
REMARK    3  A    between atoms: N_9  and  N_10
REMARK    4  A    between atoms: C_11  and  C_13
REMARK    5  A    between atoms: N_16  and  S_19
REMARK    6  A    between atoms: S_19  and  C_22
REMARK                            x       y       z     vdW  Elec       q    Type
REMARK                         _______ _______ _______ _____ _____    ______ ____
ROOT
ATOM      1  C   UNL     1      -2.376   0.681  -0.119  0.00  0.00    +0.079 C 
ATOM      2  C   UNL     1      -2.540  -0.215  -1.349  0.00  0.00    +0.030 C 
ATOM      3  C   UNL     1      -3.884  -0.947  -1.267  0.00  0.00    +0.110 C 
ATOM      4  N   UNL     1      -4.953   0.046  -1.097  0.00  0.00    -0.176 NA
ATOM      5  C   UNL     1      -4.848   1.016   0.002  0.00  0.00    +0.110 C 
ATOM      6  C   UNL     1      -3.494   1.726  -0.094  0.00  0.00    +0.030 C 
ENDROOT
BRANCH   1   8
ATOM      7  N   UNL     1       0.096   0.652  -0.210  0.00  0.00    -0.234 N 
ATOM      8  C   UNL     1      -1.040   1.376  -0.180  0.00  0.00    +0.232 C 
ATOM      9  O   UNL     1      -0.988   2.588  -0.201  0.00  0.00    -0.274 OA
ATOM     10  H   UNL     1       0.054  -0.317  -0.194  0.00  0.00    +0.173 HD
BRANCH   7  13
ATOM     11  C   UNL     1       2.473   0.574  -0.308  0.00  0.00    +0.264 C 
ATOM     12  O   UNL     1       2.420  -0.641  -0.287  0.00  0.00    -0.269 OA
ATOM     13  N   UNL     1       1.337   1.298  -0.272  0.00  0.00    -0.230 N 
ATOM     14  H   UNL     1       1.379   2.267  -0.289  0.00  0.00    +0.173 HD
BRANCH  11  19
ATOM     15  C   UNL     1       5.069   3.280  -0.460  0.00  0.00    +0.001 A 
ATOM     16  C   UNL     1       6.237   2.535  -0.497  0.00  0.00    +0.004 A 
ATOM     17  C   UNL     1       6.187   1.156  -0.473  0.00  0.00    +0.046 A 
ATOM     18  C   UNL     1       4.964   0.505  -0.412  0.00  0.00    +0.129 A 
ATOM     19  C   UNL     1       3.780   1.254  -0.374  0.00  0.00    +0.079 A 
ATOM     20  C   UNL     1       3.845   2.650  -0.404  0.00  0.00    +0.017 A 
BRANCH  18  21
ATOM     21  O   UNL     1       4.913  -0.850  -0.389  0.00  0.00    -0.506 OA
ATOM     22  H   UNL     1       4.862  -1.257  -1.265  0.00  0.00    +0.292 HD
ENDBRANCH  18  21
ENDBRANCH  11  19
ENDBRANCH   7  13
ENDBRANCH   1   8
BRANCH   4  23
ATOM     23  S   UNL     1      -6.253   0.071  -2.123  0.00  0.00    +0.062 S 
ATOM     24  O   UNL     1      -6.263  -1.181  -2.796  0.00  0.00    -0.153 OA
ATOM     25  O   UNL     1      -7.360   0.538  -1.365  0.00  0.00    -0.153 OA
BRANCH  23  26
ATOM     26  C   UNL     1      -5.927   1.297  -3.346  0.00  0.00    +0.125 A 
ATOM     27  C   UNL     1      -6.690   2.448  -3.391  0.00  0.00    +0.050 A 
ATOM     28  C   UNL     1      -6.431   3.413  -4.348  0.00  0.00    +0.043 A 
ATOM     29  C   UNL     1      -5.414   3.221  -5.267  0.00  0.00    +0.021 A 
ATOM     30  C   UNL     1      -4.654   2.067  -5.225  0.00  0.00    +0.023 A 
ATOM     31  C   UNL     1      -4.910   1.105  -4.265  0.00  0.00    +0.067 A 
ATOM     32 CL   UNL     1      -3.956  -0.344  -4.212  0.00  0.00    -0.082 Cl
ATOM     33 CL   UNL     1      -7.385   4.862  -4.401  0.00  0.00    -0.083 Cl
ENDBRANCH  23  26
ENDBRANCH   4  23
TORSDOF 6
