REMARK  Name = ZINC21234545
REMARK  6 active torsions:
REMARK  status: ('A' for Active; 'I' for Inactive)
REMARK    1  A    between atoms: C_1  and  C_2
REMARK    2  A    between atoms: C_2  and  C_3
REMARK    3  A    between atoms: C_2  and  O_4
REMARK    4  A    between atoms: O_4  and  C_5
REMARK    5  A    between atoms: C_8  and  C_11
REMARK    6  A    between atoms: C_16  and  C_26
REMARK                            x       y       z     vdW  Elec       q    Type
REMARK                         _______ _______ _______ _____ _____    ______ ____
ROOT
ATOM      1  C   UNL     1       2.096   1.768   0.883  0.00  0.00    +0.032 C 
ATOM      2  C   UNL     1       2.384   0.514   0.058  0.00  0.00    +0.059 C 
ATOM      3  C   UNL     1       1.161  -0.388   0.045  0.00  0.00    +0.017 C 
ATOM      4  C   UNL     1      -0.073   0.140   0.078  0.00  0.00    +0.036 C 
ATOM      5  C   UNL     1      -1.370  -0.633   0.033  0.00  0.00    +0.136 C 
ATOM      6  N   UNL     1      -1.222  -2.062   0.215  0.00  0.00    -0.331 N 
ATOM      7  C   UNL     1      -0.531  -2.839  -0.714  0.00  0.00    +0.049 A 
ATOM      8  C   UNL     1      -1.173  -3.811  -1.464  0.00  0.00    +0.025 A 
ATOM      9  C   UNL     1      -0.454  -4.527  -2.406  0.00  0.00    +0.002 A 
ATOM     10  C   UNL     1       0.891  -4.274  -2.601  0.00  0.00    +0.002 A 
ATOM     11  C   UNL     1       1.539  -3.315  -1.841  0.00  0.00    +0.025 A 
ATOM     12  C   UNL     1       0.827  -2.613  -0.884  0.00  0.00    +0.052 A 
ATOM     13  N   UNL     1       1.437  -1.716  -0.015  0.00  0.00    -0.316 N 
ATOM     14  C   UNL     1      -0.247   1.542   0.159  0.00  0.00    +0.163 C 
ATOM     15  O   UNL     1      -1.376   1.993   0.163  0.00  0.00    -0.292 OA
ATOM     16  C   UNL     1       0.911   2.491   0.233  0.00  0.00    +0.088 C 
ATOM     17  H   UNL     1      -1.657  -2.552   1.098  0.00  0.00    +0.147 HD
ATOM     18  H   UNL     1       2.193  -2.151   0.655  0.00  0.00    +0.152 HD
ENDROOT
BRANCH   5  19
ATOM     19  C   UNL     1      -2.027  -0.387  -1.301  0.00  0.00    -0.015 A 
ATOM     20  C   UNL     1      -1.304   0.118  -2.337  0.00  0.00    +0.006 A 
ATOM     21  C   UNL     1      -1.895   0.352  -3.578  0.00  0.00    +0.001 A 
ATOM     22  C   UNL     1      -3.212   0.082  -3.789  0.00  0.00    +0.008 A 
ATOM     23  C   UNL     1      -3.991  -0.440  -2.743  0.00  0.00    -0.018 A 
ATOM     24  C   UNL     1      -3.389  -0.683  -1.482  0.00  0.00    -0.013 A 
ATOM     25  C   UNL     1      -4.170  -1.200  -0.434  0.00  0.00    +0.009 A 
ATOM     26  C   UNL     1      -5.487  -1.470  -0.645  0.00  0.00    +0.001 A 
ATOM     27  C   UNL     1      -6.077  -1.236  -1.886  0.00  0.00    +0.001 A 
ATOM     28  C   UNL     1      -5.354  -0.731  -2.922  0.00  0.00    +0.008 A 
ENDBRANCH   5  19
BRANCH   1  32
ATOM     29  C   UNL     1       5.524   4.319   0.887  0.00  0.00    +0.121 A 
ATOM     30  C   UNL     1       5.028   3.820   2.082  0.00  0.00    +0.046 A 
ATOM     31  C   UNL     1       3.920   2.995   2.078  0.00  0.00    +0.007 A 
ATOM     32  C   UNL     1       3.305   2.667   0.884  0.00  0.00    -0.043 A 
ATOM     33  C   UNL     1       3.801   3.159  -0.309  0.00  0.00    +0.007 A 
ATOM     34  C   UNL     1       4.906   3.988  -0.310  0.00  0.00    +0.046 A 
BRANCH  29  35
ATOM     35  O   UNL     1       6.615   5.130   0.888  0.00  0.00    -0.489 OA
BRANCH  35  37
ATOM     36  C   UNL     1       8.735   5.706   1.895  0.00  0.00    +0.051 C 
ATOM     37  C   UNL     1       7.271   5.332   2.141  0.00  0.00    +0.167 C 
ATOM     38  C   UNL     1       6.578   6.463   2.904  0.00  0.00    +0.051 C 
ENDBRANCH  35  37
ENDBRANCH  29  35
ENDBRANCH   1  32
TORSDOF 4
