REMARK  Name = ZINC47533293
REMARK  9 active torsions:
REMARK  status: ('A' for Active; 'I' for Inactive)
REMARK    1  A    between atoms: C_1  and  C_2
REMARK    2  A    between atoms: C_2  and  C_3
REMARK    3  A    between atoms: C_2  and  C_4
REMARK    4  A    between atoms: C_2  and  O_5
REMARK    5  A    between atoms: O_5  and  C_6
REMARK    6  A    between atoms: N_8  and  C_9
REMARK    7  A    between atoms: C_15  and  C_17
REMARK    8  A    between atoms: C_20  and  C_23
REMARK    9  A    between atoms: C_23  and  N_24
REMARK                            x       y       z     vdW  Elec       q    Type
REMARK                         _______ _______ _______ _____ _____    ______ ____
ROOT
ATOM      1  C   UNL     1       3.887  -1.047  -2.633  0.00  0.00    +0.079 C 
ATOM      2  C   UNL     1       5.026  -1.678  -1.829  0.00  0.00    +0.041 C 
ATOM      3  C   UNL     1       6.302  -0.854  -2.027  0.00  0.00    +0.110 C 
ATOM      4  N   UNL     1       6.572  -0.739  -3.466  0.00  0.00    -0.297 N 
ATOM      5  C   UNL     1       5.511  -0.228  -4.345  0.00  0.00    +0.110 C 
ATOM      6  C   UNL     1       4.244  -1.058  -4.122  0.00  0.00    +0.041 C 
ATOM      7  C   UNL     1       7.770  -1.094  -3.971  0.00  0.00    +0.247 C 
ATOM      8  O   UNL     1       8.663  -1.449  -3.226  0.00  0.00    -0.270 OA
ENDROOT
BRANCH   7   9
ATOM      9  C   UNL     1       8.000  -1.051  -5.431  0.00  0.00    +0.037 A 
ATOM     10  C   UNL     1       7.686   0.099  -6.157  0.00  0.00    +0.013 A 
ATOM     11  C   UNL     1       7.902   0.133  -7.519  0.00  0.00    +0.006 A 
ATOM     12  C   UNL     1       8.429  -0.971  -8.165  0.00  0.00    -0.030 A 
ATOM     13  C   UNL     1       8.742  -2.115  -7.452  0.00  0.00    +0.006 A 
ATOM     14  C   UNL     1       8.536  -2.159  -6.089  0.00  0.00    +0.013 A 
BRANCH  12  15
ATOM     15  C   UNL     1       8.663  -0.928  -9.654  0.00  0.00    +0.141 C 
BRANCH  15  16
ATOM     16  N   UNL     1      10.014  -0.431  -9.921  0.00  0.00    -0.295 N 
ATOM     17  C   UNL     1      10.447  -0.306 -11.192  0.00  0.00    +0.297 C 
ATOM     18  O   UNL     1       9.716  -0.607 -12.115  0.00  0.00    -0.253 OA
ATOM     19  N   UNL     1      11.691   0.151 -11.438  0.00  0.00    -0.313 N 
ATOM     20  H   UNL     1      10.598  -0.191  -9.185  0.00  0.00    +0.151 HD
ATOM     21  H   UNL     1      12.274   0.391 -10.701  0.00  0.00    +0.146 HD
ATOM     22  H   UNL     1      12.002   0.240 -12.352  0.00  0.00    +0.146 HD
ENDBRANCH  15  16
ENDBRANCH  12  15
ENDBRANCH   7   9
BRANCH   1  25
ATOM     23  C   UNL     1       1.876  -1.551  -1.353  0.00  0.00    +0.401 C 
ATOM     24  O   UNL     1       2.193  -0.680  -0.567  0.00  0.00    -0.226 OA
ATOM     25  N   UNL     1       2.656  -1.812  -2.421  0.00  0.00    -0.278 N 
ATOM     26  H   UNL     1       2.403  -2.507  -3.048  0.00  0.00    +0.152 HD
BRANCH  23  27
ATOM     27  O   UNL     1       0.745  -2.255  -1.157  0.00  0.00    -0.445 OA
BRANCH  27  29
ATOM     28  C   UNL     1      -0.470  -0.461  -0.087  0.00  0.00    +0.055 C 
ATOM     29  C   UNL     1      -0.034  -1.925  -0.006  0.00  0.00    +0.107 C 
ATOM     30  C   UNL     1       0.806  -2.138   1.256  0.00  0.00    +0.055 C 
ATOM     31  C   UNL     1      -1.271  -2.823   0.048  0.00  0.00    +0.055 C 
ENDBRANCH  27  29
ENDBRANCH  23  27
ENDBRANCH   1  25
TORSDOF 6
