REMARK  Name = ZINC16730746
REMARK  9 active torsions:
REMARK  status: ('A' for Active; 'I' for Inactive)
REMARK    1  A    between atoms: C_1  and  C_2
REMARK    2  A    between atoms: C_2  and  C_3
REMARK    3  A    between atoms: C_3  and  C_4
REMARK    4  A    between atoms: C_4  and  C_5
REMARK    5  A    between atoms: C_5  and  C_6
REMARK    6  A    between atoms: C_6  and  N_7
REMARK    7  A    between atoms: N_18  and  C_21
REMARK    8  A    between atoms: C_21  and  C_22
REMARK    9  A    between atoms: N_24  and  C_25
REMARK                            x       y       z     vdW  Elec       q    Type
REMARK                         _______ _______ _______ _____ _____    ______ ____
ROOT
ATOM      1  N   UNL     1      -1.263   2.689   0.063  0.00  0.00    -0.255 N 
ATOM      2  C   UNL     1      -1.090   4.000   0.101  0.00  0.00    +0.259 C 
ATOM      3  O   UNL     1      -2.028   4.768   0.194  0.00  0.00    -0.269 OA
ATOM      4  C   UNL     1       0.315   4.483   0.015  0.00  0.00    +0.089 C 
ATOM      5  C   UNL     1       0.805   5.774   0.024  0.00  0.00    +0.065 C 
ATOM      6  C   UNL     1       0.031   7.030  -0.059  0.00  0.00    +0.010 A 
ATOM      7  C   UNL     1      -1.329   7.307  -0.162  0.00  0.00    +0.010 A 
ATOM      8  C   UNL     1      -1.758   8.617  -0.221  0.00  0.00    +0.001 A 
ATOM      9  C   UNL     1      -0.838   9.652  -0.177  0.00  0.00    +0.002 A 
ATOM     10  C   UNL     1       0.513   9.389  -0.067  0.00  0.00    +0.024 A 
ATOM     11  C   UNL     1       0.965   8.075  -0.011  0.00  0.00    +0.045 A 
ATOM     12  N   UNL     1       2.246   7.543   0.085  0.00  0.00    -0.258 N 
ATOM     13  C   UNL     1       2.217   6.199   0.110  0.00  0.00    +0.253 C 
ATOM     14  O   UNL     1       3.183   5.464   0.189  0.00  0.00    -0.270 OA
ATOM     15  S   UNL     1       1.194   2.930  -0.100  0.00  0.00    -0.060 S 
ATOM     16  C   UNL     1      -0.220   1.842  -0.035  0.00  0.00    +0.121 C 
ATOM     17  S   UNL     1      -0.244   0.131  -0.090  0.00  0.00    -0.027 S 
ENDROOT
BRANCH   1  18
ATOM     18  C   UNL     1      -2.621   2.145   0.136  0.00  0.00    +0.115 C 
BRANCH  18  19
ATOM     19  C   UNL     1      -2.999   1.908   1.599  0.00  0.00    +0.019 C 
BRANCH  19  20
ATOM     20  C   UNL     1      -4.417   1.340   1.675  0.00  0.00    +0.002 C 
BRANCH  20  21
ATOM     21  C   UNL     1      -4.794   1.103   3.138  0.00  0.00    -0.000 C 
BRANCH  21  23
ATOM     22  C   UNL     1      -6.590   0.297   4.677  0.00  0.00    +0.004 C 
ATOM     23  C   UNL     1      -6.213   0.534   3.213  0.00  0.00    -0.003 C 
ENDBRANCH  21  23
ENDBRANCH  20  21
ENDBRANCH  19  20
ENDBRANCH  18  19
ENDBRANCH   1  18
BRANCH  12  24
ATOM     24  C   UNL     1       3.471   8.344   0.152  0.00  0.00    +0.210 C 
BRANCH  24  25
ATOM     25  C   UNL     1       3.986   8.591  -1.243  0.00  0.00    +0.235 C 
ATOM     26  O   UNL     1       3.389   8.141  -2.198  0.00  0.00    -0.274 OA
ATOM     27  N   UNL     1       5.110   9.310  -1.429  0.00  0.00    -0.283 N 
ATOM     28  H   UNL     1       5.629   9.605  -0.664  0.00  0.00    +0.155 HD
BRANCH  27  29
ATOM     29  C   UNL     1       5.529   9.632  -2.725  0.00  0.00    +0.052 A 
ATOM     30  C   UNL     1       4.591   9.863  -3.722  0.00  0.00    +0.025 A 
ATOM     31  C   UNL     1       5.007  10.180  -5.000  0.00  0.00    +0.002 A 
ATOM     32  C   UNL     1       6.357  10.268  -5.288  0.00  0.00    +0.002 A 
ATOM     33  C   UNL     1       7.294  10.039  -4.298  0.00  0.00    +0.022 A 
ATOM     34  C   UNL     1       6.884   9.727  -3.016  0.00  0.00    +0.062 A 
ATOM     35 CL   UNL     1       8.062   9.446  -1.771  0.00  0.00    -0.082 Cl
ENDBRANCH  27  29
ENDBRANCH  24  25
ENDBRANCH  12  24
TORSDOF 8
