REMARK  Name = ZINC67242719
REMARK  9 active torsions:
REMARK  status: ('A' for Active; 'I' for Inactive)
REMARK    1  A    between atoms: C_1  and  C_2
REMARK    2  A    between atoms: C_2  and  N_3
REMARK    3  A    between atoms: C_4  and  C_6
REMARK    4  A    between atoms: C_6  and  N_7
REMARK    5  A    between atoms: C_13  and  C_15
REMARK    6  A    between atoms: C_22  and  C_25
REMARK    7  A    between atoms: C_25  and  C_26
REMARK    8  A    between atoms: C_25  and  C_27
REMARK    9  A    between atoms: C_25  and  C_28
REMARK                            x       y       z     vdW  Elec       q    Type
REMARK                         _______ _______ _______ _____ _____    ______ ____
ROOT
ATOM      1  N   UNL     1       1.552  -3.749  -2.673  0.00  0.00    -0.261 N 
ATOM      2  C   UNL     1       1.097  -4.543  -3.665  0.00  0.00    +0.111 A 
ATOM      3  C   UNL     1       1.294  -5.828  -3.292  0.00  0.00    +0.065 A 
ATOM      4  C   UNL     1       1.894  -5.821  -2.023  0.00  0.00    +0.147 A 
ATOM      5  N   UNL     1       2.053  -4.571  -1.655  0.00  0.00    -0.156 NA
ATOM      6  N   UNL     1       2.263  -6.950  -1.280  0.00  0.00    -0.265 N 
ATOM      7  C   UNL     1       2.047  -8.184  -1.779  0.00  0.00    +0.256 C 
ATOM      8  O   UNL     1       1.533  -8.317  -2.874  0.00  0.00    -0.269 OA
ATOM      9  H   UNL     1       2.673  -6.844  -0.408  0.00  0.00    +0.157 HD
ENDROOT
BRANCH   7  10
ATOM     10  C   UNL     1       2.433  -9.365  -1.002  0.00  0.00    +0.075 A 
ATOM     11  C   UNL     1       2.307 -10.703  -1.329  0.00  0.00    +0.024 A 
ATOM     12  C   UNL     1       2.763 -11.622  -0.395  0.00  0.00    -0.036 A 
ATOM     13  C   UNL     1       3.291 -11.114   0.756  0.00  0.00    -0.006 A 
ATOM     14  S   UNL     1       3.196  -9.454   0.607  0.00  0.00    -0.088 S 
ATOM     15  C   UNL     1       3.848 -11.896   1.909  0.00  0.00    +0.043 C 
ATOM     16  C   UNL     1       4.081 -13.341   1.448  0.00  0.00    +0.009 C 
ATOM     17  C   UNL     1       2.825 -13.838   0.727  0.00  0.00    -0.001 C 
ATOM     18  C   UNL     1       2.686 -13.129  -0.621  0.00  0.00    +0.040 C 
BRANCH  17  19
ATOM     19  C   UNL     1       2.932 -15.347   0.498  0.00  0.00    -0.035 C 
ATOM     20  C   UNL     1       3.063 -16.059   1.845  0.00  0.00    +0.011 C 
ATOM     21  C   UNL     1       1.677 -15.844  -0.222  0.00  0.00    +0.011 C 
ATOM     22  C   UNL     1       4.164 -15.646  -0.359  0.00  0.00    +0.011 C 
ENDBRANCH  17  19
ENDBRANCH   7  10
BRANCH   1  23
ATOM     23  C   UNL     1       1.532  -2.285  -2.665  0.00  0.00    +0.239 C 
BRANCH  23  25
ATOM     24  N   UNL     1       0.688  -0.476  -1.203  0.00  0.00    -0.314 N 
ATOM     25  C   UNL     1       0.827  -1.799  -1.425  0.00  0.00    +0.234 C 
ATOM     26  O   UNL     1       0.384  -2.597  -0.627  0.00  0.00    -0.274 OA
ATOM     27  H   UNL     1       1.042   0.162  -1.842  0.00  0.00    +0.149 HD
BRANCH  24  29
ATOM     28  C   UNL     1      -0.019   1.526   0.010  0.00  0.00    +0.024 C 
ATOM     29  C   UNL     1       0.002  -0.004   0.002  0.00  0.00    +0.101 C 
ENDBRANCH  24  29
ENDBRANCH  23  25
ENDBRANCH   1  23
TORSDOF 5
