REMARK  Name = ZINC32895082
REMARK  5 active torsions:
REMARK  status: ('A' for Active; 'I' for Inactive)
REMARK    1  A    between atoms: C_1  and  N_2
REMARK    2  A    between atoms: N_2  and  C_3
REMARK    3  A    between atoms: N_2  and  S_12
REMARK    4  A    between atoms: C_8  and  C_9
REMARK    5  A    between atoms: S_12  and  C_15
REMARK                            x       y       z     vdW  Elec       q    Type
REMARK                         _______ _______ _______ _____ _____    ______ ____
ROOT
ATOM      1  S   UNL     1       3.784   2.232  -0.062  0.00  0.00    +0.075 S 
ATOM      2  O   UNL     1       3.535   3.482   0.568  0.00  0.00    -0.150 OA
ATOM      3  O   UNL     1       4.695   1.279   0.469  0.00  0.00    -0.150 OA
ENDROOT
BRANCH   1   4
ATOM      4  C   UNL     1       2.228   1.419  -0.202  0.00  0.00    +0.111 A 
ATOM      5  C   UNL     1       2.177   0.041  -0.303  0.00  0.00    +0.032 A 
ATOM      6  C   UNL     1       0.959  -0.605  -0.412  0.00  0.00    +0.049 A 
ATOM      7  C   UNL     1      -0.214   0.130  -0.419  0.00  0.00    +0.142 A 
ATOM      8  C   UNL     1      -0.162   1.519  -0.317  0.00  0.00    +0.078 A 
ATOM      9  C   UNL     1       1.061   2.161  -0.208  0.00  0.00    +0.055 A 
ATOM     10  N   UNL     1      -1.357   2.253  -0.333  0.00  0.00    -0.280 N 
ATOM     11  C   UNL     1      -2.524   1.605  -0.117  0.00  0.00    +0.255 C 
ATOM     12  O   UNL     1      -3.573   2.213  -0.152  0.00  0.00    -0.272 OA
ATOM     13  C   UNL     1      -2.517   0.123   0.160  0.00  0.00    +0.325 C 
ATOM     14  O   UNL     1      -1.420  -0.489  -0.523  0.00  0.00    -0.481 OA
ATOM     15  H   UNL     1      -1.335   3.337  -0.517  0.00  0.00    +0.155 HD
ENDBRANCH   1   4
BRANCH   1  17
ATOM     16  C   UNL     1       3.838   3.787  -2.275  0.00  0.00    +0.157 C 
ATOM     17  N   UNL     1       4.299   2.572  -1.599  0.00  0.00    -0.205 N 
BRANCH  17  18
ATOM     18  C   UNL     1       5.167   1.704  -2.248  0.00  0.00    +0.063 A 
ATOM     19  C   UNL     1       4.669   0.718  -3.092  0.00  0.00    +0.025 A 
ATOM     20  C   UNL     1       5.534  -0.140  -3.739  0.00  0.00    +0.002 A 
ATOM     21  C   UNL     1       6.903  -0.033  -3.548  0.00  0.00    +0.001 A 
ATOM     22  C   UNL     1       7.415   0.934  -2.711  0.00  0.00    +0.015 A 
ATOM     23  C   UNL     1       6.553   1.814  -2.052  0.00  0.00    +0.059 A 
BRANCH  23  24
ATOM     24  C   UNL     1       7.094   2.851  -1.155  0.00  0.00    +0.243 C 
ATOM     25  O   UNL     1       6.338   3.558  -0.516  0.00  0.00    -0.270 OA
ATOM     26  N   UNL     1       8.427   3.016  -1.044  0.00  0.00    -0.325 N 
ATOM     27  H   UNL     1       8.831   3.790  -0.374  0.00  0.00    +0.145 HD
ATOM     28  H   UNL     1       9.111   2.377  -1.622  0.00  0.00    +0.145 HD
ENDBRANCH  23  24
ENDBRANCH  17  18
ENDBRANCH   1  17
TORSDOF 4
