REMARK  Name = ZINC44458635
REMARK  6 active torsions:
REMARK  status: ('A' for Active; 'I' for Inactive)
REMARK    1  A    between atoms: C_3  and  S_24
REMARK    2  A    between atoms: C_6  and  C_7
REMARK    3  A    between atoms: C_7  and  N_8
REMARK    4  A    between atoms: C_9  and  C_11
REMARK    5  A    between atoms: N_20  and  C_21
REMARK    6  A    between atoms: S_24  and  N_27
REMARK                            x       y       z     vdW  Elec       q    Type
REMARK                         _______ _______ _______ _____ _____    ______ ____
ROOT
ATOM      1  N   UNL     1      -1.722  -1.020  -1.369  0.00  0.00    -0.311 N 
ATOM      2  C   UNL     1      -2.863  -1.698  -1.608  0.00  0.00    +0.218 C 
ATOM      3  O   UNL     1      -3.530  -2.107  -0.681  0.00  0.00    -0.275 OA
ATOM      4  H   UNL     1      -1.189  -0.693  -2.110  0.00  0.00    +0.149 HD
ENDROOT
BRANCH   2   5
ATOM      5  C   UNL     1      -3.309  -1.946  -3.025  0.00  0.00    +0.092 C 
ATOM      6  C   UNL     1      -4.624  -2.729  -3.017  0.00  0.00    +0.016 C 
ATOM      7  C   UNL     1      -5.061  -3.011  -4.457  0.00  0.00    +0.020 C 
ATOM      8  C   UNL     1      -5.294  -1.683  -5.184  0.00  0.00    +0.109 C 
ATOM      9  N   UNL     1      -4.080  -0.863  -5.072  0.00  0.00    -0.285 N 
ATOM     10  C   UNL     1      -3.521  -0.606  -3.737  0.00  0.00    +0.122 C 
ATOM     11  C   UNL     1      -3.489  -0.356  -6.172  0.00  0.00    +0.302 C 
ATOM     12  O   UNL     1      -2.539   0.395  -6.061  0.00  0.00    -0.253 OA
ATOM     13  N   UNL     1      -3.950  -0.682  -7.396  0.00  0.00    -0.296 N 
ATOM     14  H   UNL     1      -4.752  -1.221  -7.484  0.00  0.00    +0.151 HD
BRANCH  13  15
ATOM     15  C   UNL     1      -3.242  -0.222  -8.592  0.00  0.00    +0.075 C 
ATOM     16  C   UNL     1      -4.085   0.325  -9.746  0.00  0.00    +0.024 C 
ATOM     17  C   UNL     1      -3.410  -1.043  -9.873  0.00  0.00    +0.024 C 
ENDBRANCH  13  15
ENDBRANCH   2   5
BRANCH   1  18
ATOM     18  C   UNL     1      -1.289  -0.778   0.009  0.00  0.00    +0.139 C 
BRANCH  18  24
ATOM     19  C   UNL     1      -0.015   1.376   0.009  0.00  0.00    +0.007 A 
ATOM     20  C   UNL     1       1.173   2.085   0.001  0.00  0.00    +0.029 A 
ATOM     21  C   UNL     1       2.379   1.411  -0.015  0.00  0.00    +0.105 A 
ATOM     22  C   UNL     1       2.399   0.029  -0.023  0.00  0.00    +0.029 A 
ATOM     23  C   UNL     1       1.212  -0.680  -0.015  0.00  0.00    +0.007 A 
ATOM     24  C   UNL     1       0.005  -0.006   0.000  0.00  0.00    -0.030 A 
BRANCH  21  25
ATOM     25  S   UNL     1       3.893   2.314  -0.026  0.00  0.00    +0.056 S 
ATOM     26  O   UNL     1       4.873   1.455  -0.592  0.00  0.00    -0.153 OA
ATOM     27  O   UNL     1       3.597   3.594  -0.567  0.00  0.00    -0.153 OA
BRANCH  25  28
ATOM     28  N   UNL     1       4.330   2.556   1.553  0.00  0.00    -0.204 NA
ATOM     29  H   UNL     1       3.771   2.214   2.268  0.00  0.00    +0.144 HD
ATOM     30  H   UNL     1       5.144   3.039   1.762  0.00  0.00    +0.144 HD
ENDBRANCH  25  28
ENDBRANCH  21  25
ENDBRANCH  18  24
ENDBRANCH   1  18
TORSDOF 6
