REMARK  Name = ZINC14667187
REMARK  10 active torsions:
REMARK  status: ('A' for Active; 'I' for Inactive)
REMARK    1  A    between atoms: C_1  and  C_2
REMARK    2  A    between atoms: C_2  and  C_3
REMARK    3  A    between atoms: C_2  and  C_4
REMARK    4  A    between atoms: C_4  and  O_5
REMARK    5  A    between atoms: O_5  and  C_6
REMARK    6  A    between atoms: C_11  and  C_12
REMARK    7  A    between atoms: N_14  and  C_15
REMARK    8  A    between atoms: C_15  and  N_17
REMARK    9  A    between atoms: N_17  and  C_18
REMARK   10  A    between atoms: C_23  and  N_24
REMARK                            x       y       z     vdW  Elec       q    Type
REMARK                         _______ _______ _______ _____ _____    ______ ____
ROOT
ATOM      1  C   UNL     1      -5.889  -0.992   0.617  0.00  0.00    +0.253 C 
ATOM      2  O   UNL     1      -5.804  -2.191   0.796  0.00  0.00    -0.270 OA
ATOM      3  N   UNL     1      -4.775  -0.261   0.415  0.00  0.00    -0.263 N 
ATOM      4  H   UNL     1      -4.842   0.696   0.273  0.00  0.00    +0.157 HD
ENDROOT
BRANCH   1  10
ATOM      5  C   UNL     1      -8.371  -1.093   0.831  0.00  0.00    +0.133 A 
ATOM      6  C   UNL     1      -9.608  -0.467   0.833  0.00  0.00    +0.047 A 
ATOM      7  C   UNL     1      -9.695   0.896   0.631  0.00  0.00    +0.019 A 
ATOM      8  C   UNL     1      -8.549   1.648   0.423  0.00  0.00    +0.019 A 
ATOM      9  C   UNL     1      -7.311   1.043   0.422  0.00  0.00    +0.032 A 
ATOM     10  C   UNL     1      -7.210  -0.337   0.621  0.00  0.00    +0.080 A 
ATOM     11 BR   UNL     1      -8.685   3.514   0.147  0.00  0.00    -0.050 Br
BRANCH   5  12
ATOM     12  O   UNL     1      -8.285  -2.433   1.030  0.00  0.00    -0.491 OA
BRANCH  12  13
ATOM     13  C   UNL     1      -9.510  -3.138   1.237  0.00  0.00    +0.232 C 
BRANCH  13  15
ATOM     14  C   UNL     1      -8.417  -4.813   2.734  0.00  0.00    +0.010 C 
ATOM     15  C   UNL     1      -9.215  -4.625   1.442  0.00  0.00    +0.020 C 
ATOM     16  C   UNL     1     -10.531  -5.398   1.539  0.00  0.00    +0.010 C 
ENDBRANCH  13  15
ENDBRANCH  12  13
ENDBRANCH   5  12
ENDBRANCH   1  10
BRANCH   3  17
ATOM     17  C   UNL     1      -3.567  -0.860   0.412  0.00  0.00    +0.141 C 
ATOM     18  S   UNL     1      -3.448  -2.549   0.663  0.00  0.00    -0.018 S 
BRANCH  17  19
ATOM     19  N   UNL     1      -2.453  -0.128   0.210  0.00  0.00    -0.295 N 
ATOM     20  H   UNL     1      -2.512   0.838   0.143  0.00  0.00    +0.154 HD
BRANCH  19  21
ATOM     21  C   UNL     1      -1.211  -0.762   0.096  0.00  0.00    +0.063 A 
ATOM     22  C   UNL     1      -1.079  -1.898  -0.692  0.00  0.00    +0.025 A 
ATOM     23  C   UNL     1       0.148  -2.522  -0.802  0.00  0.00    +0.002 A 
ATOM     24  C   UNL     1       1.245  -2.017  -0.128  0.00  0.00    +0.002 A 
ATOM     25  C   UNL     1       1.118  -0.883   0.653  0.00  0.00    +0.034 A 
ATOM     26  C   UNL     1      -0.108  -0.258   0.772  0.00  0.00    +0.147 A 
BRANCH  26  27
ATOM     27  N   UNL     1      -0.244   0.953   1.613  0.00  0.00    +0.058 N 
ATOM     28  O   UNL     1       0.743   1.457   2.119  0.00  0.00    -0.126 OA
ATOM     29  O   UNL     1      -1.342   1.447   1.796  0.00  0.00    -0.126 OA
ENDBRANCH  26  27
ENDBRANCH  19  21
ENDBRANCH  17  19
ENDBRANCH   3  17
TORSDOF 8
