REMARK  Name = ZINC20100983
REMARK  8 active torsions:
REMARK  status: ('A' for Active; 'I' for Inactive)
REMARK    1  A    between atoms: C_1  and  C_2
REMARK    2  A    between atoms: C_4  and  C_24
REMARK    3  A    between atoms: C_5  and  O_9
REMARK    4  A    between atoms: O_9  and  C_10
REMARK    5  A    between atoms: C_10  and  C_11
REMARK    6  A    between atoms: N_13  and  N_14
REMARK    7  A    between atoms: C_15  and  C_16
REMARK    8  A    between atoms: C_19  and  N_21
REMARK                            x       y       z     vdW  Elec       q    Type
REMARK                         _______ _______ _______ _____ _____    ______ ____
ROOT
ATOM      1  C   UNL     1       2.068   5.723   1.161  0.00  0.00    +0.270 C 
ATOM      2  O   UNL     1       1.815   6.103   0.037  0.00  0.00    -0.270 OA
ATOM      3  N   UNL     1       1.857   6.540   2.212  0.00  0.00    -0.204 N 
ATOM      4  H   UNL     1       2.087   6.196   3.231  0.00  0.00    +0.177 HD
ENDROOT
BRANCH   3   5
ATOM      5  N   UNL     1       1.344   7.828   2.006  0.00  0.00    -0.185 NA
ATOM      6  C   UNL     1       1.029   8.577   3.029  0.00  0.00    +0.176 C 
BRANCH   6   7
ATOM      7  C   UNL     1       1.047   8.033   4.337  0.00  0.00    +0.150 A 
ATOM      8  C   UNL     1       0.855   8.735   5.516  0.00  0.00    +0.053 A 
ATOM      9  C   UNL     1       0.957   7.802   6.556  0.00  0.00    +0.076 A 
ATOM     10  C   UNL     1       1.201   6.595   5.990  0.00  0.00    +0.280 A 
ATOM     11  O   UNL     1       1.248   6.738   4.657  0.00  0.00    -0.433 OA
BRANCH  10  12
ATOM     12  N   UNL     1       1.388   5.259   6.762  0.00  0.00    +0.093 N 
ATOM     13  O   UNL     1       1.319   5.243   7.978  0.00  0.00    -0.123 OA
ATOM     14  O   UNL     1       1.603   4.228   6.150  0.00  0.00    -0.123 OA
ENDBRANCH  10  12
ENDBRANCH   6   7
ENDBRANCH   3   5
BRANCH   1  15
ATOM     15  C   UNL     1       2.620   4.338   1.382  0.00  0.00    +0.326 C 
BRANCH  15  16
ATOM     16  O   UNL     1       2.754   3.672   0.125  0.00  0.00    -0.481 OA
BRANCH  16  21
ATOM     17  C   UNL     1       4.775  -1.585   0.217  0.00  0.00    +0.044 C 
ATOM     18  C   UNL     1       4.234  -0.178   0.192  0.00  0.00    -0.049 A 
ATOM     19  C   UNL     1       2.872   0.040   0.289  0.00  0.00    +0.010 A 
ATOM     20  C   UNL     1       2.374   1.328   0.267  0.00  0.00    -0.007 A 
ATOM     21  C   UNL     1       3.241   2.404   0.148  0.00  0.00    +0.138 A 
ATOM     22  C   UNL     1       4.608   2.183   0.051  0.00  0.00    +0.060 A 
ATOM     23  C   UNL     1       5.101   0.892   0.073  0.00  0.00    +0.022 A 
ATOM     24 BR   UNL     1       5.795   3.647  -0.111  0.00  0.00    -0.047 Br
ATOM     25  C   UNL     1       0.889   1.564   0.366  0.00  0.00    +0.047 C 
ENDBRANCH  16  21
ENDBRANCH  15  16
ENDBRANCH   1  15
TORSDOF 6
