REMARK  Name = ZINC35290958
REMARK  6 active torsions:
REMARK  status: ('A' for Active; 'I' for Inactive)
REMARK    1  A    between atoms: C_1  and  C_2
REMARK    2  A    between atoms: C_7  and  C_15
REMARK    3  A    between atoms: C_15  and  N_16
REMARK    4  A    between atoms: N_16  and  C_17
REMARK    5  A    between atoms: C_17  and  C_18
REMARK    6  A    between atoms: C_24  and  C_26
REMARK                            x       y       z     vdW  Elec       q    Type
REMARK                         _______ _______ _______ _____ _____    ______ ____
ROOT
ATOM      1  C   UNL     1       0.248  -6.407   0.871  0.00  0.00    +0.147 C 
ENDROOT
BRANCH   1   8
ATOM      2  C   UNL     1      -0.670   1.211  -1.329  0.00  0.00    +0.044 C 
ATOM      3  C   UNL     1      -0.479  -0.271  -1.138  0.00  0.00    -0.048 A 
ATOM      4  C   UNL     1      -0.311  -1.091  -2.245  0.00  0.00    +0.004 A 
ATOM      5  C   UNL     1      -0.136  -2.437  -2.093  0.00  0.00    +0.010 A 
ATOM      6  C   UNL     1      -0.128  -2.995  -0.810  0.00  0.00    +0.001 A 
ATOM      7  C   UNL     1       0.058  -4.435  -0.614  0.00  0.00    +0.019 A 
ATOM      8  C   UNL     1       0.059  -4.929   0.646  0.00  0.00    +0.016 A 
ATOM      9  C   UNL     1      -0.115  -4.065   1.752  0.00  0.00    +0.184 A 
ATOM     10  N   UNL     1      -0.154  -4.282   3.059  0.00  0.00    -0.108 NA
ATOM     11  N   UNL     1      -0.337  -3.178   3.690  0.00  0.00    -0.022 NA
ATOM     12  N   UNL     1      -0.428  -2.191   2.865  0.00  0.00    -0.039 NA
ATOM     13  N   UNL     1      -0.288  -2.723   1.575  0.00  0.00    -0.192 N 
ATOM     14  C   UNL     1      -0.298  -2.167   0.315  0.00  0.00    +0.077 A 
ATOM     15  C   UNL     1      -0.469  -0.798   0.135  0.00  0.00    +0.032 A 
ENDBRANCH   1   8
BRANCH   1  16
ATOM     16  N   UNL     1       1.662  -6.684   1.133  0.00  0.00    -0.291 N 
ATOM     17  C   UNL     1       2.495  -6.963   0.111  0.00  0.00    +0.247 C 
ATOM     18  O   UNL     1       2.086  -6.931  -1.033  0.00  0.00    -0.270 OA
BRANCH  17  19
ATOM     19  C   UNL     1       3.908  -7.307   0.381  0.00  0.00    +0.037 A 
ATOM     20  C   UNL     1       4.237  -8.111   1.474  0.00  0.00    +0.013 A 
ATOM     21  C   UNL     1       5.556  -8.429   1.720  0.00  0.00    +0.001 A 
ATOM     22  C   UNL     1       6.553  -7.953   0.887  0.00  0.00    +0.000 A 
ATOM     23  C   UNL     1       6.233  -7.155  -0.198  0.00  0.00    +0.001 A 
ATOM     24  C   UNL     1       4.917  -6.835  -0.459  0.00  0.00    +0.013 A 
ENDBRANCH  17  19
BRANCH  16  25
ATOM     25  C   UNL     1       2.171  -6.659   2.507  0.00  0.00    +0.140 C 
BRANCH  25  26
ATOM     26  C   UNL     1       1.718  -7.922   3.242  0.00  0.00    +0.136 C 
ATOM     27  C   UNL     1       2.308  -7.952   4.674  0.00  0.00    +0.035 C 
ATOM     28  C   UNL     1       1.276  -8.858   5.400  0.00  0.00    +0.031 C 
ATOM     29  C   UNL     1      -0.044  -8.482   4.693  0.00  0.00    +0.160 C 
ATOM     30  O   UNL     1       0.293  -7.909   3.422  0.00  0.00    -0.375 OA
ENDBRANCH  25  26
ENDBRANCH  16  25
ENDBRANCH   1  16
TORSDOF 5
