REMARK  Name = ZINC20591075
REMARK  8 active torsions:
REMARK  status: ('A' for Active; 'I' for Inactive)
REMARK    1  A    between atoms: C_1  and  C_2
REMARK    2  A    between atoms: C_2  and  C_3
REMARK    3  A    between atoms: C_3  and  C_4
REMARK    4  A    between atoms: C_7  and  C_30
REMARK    5  A    between atoms: C_8  and  N_10
REMARK    6  A    between atoms: N_13  and  C_16
REMARK    7  A    between atoms: C_16  and  C_17
REMARK    8  A    between atoms: N_19  and  C_20
REMARK                            x       y       z     vdW  Elec       q    Type
REMARK                         _______ _______ _______ _____ _____    ______ ____
ROOT
ATOM      1  N   UNL     1       4.877  -0.038   0.815  0.00  0.00    -0.318 N 
ATOM      2  C   UNL     1       4.792   0.724  -0.439  0.00  0.00    +0.088 C 
ATOM      3  C   UNL     1       3.629   1.714  -0.354  0.00  0.00    -0.059 C 
ATOM      4  N   UNL     1       2.381   0.980  -0.101  0.00  0.00    +0.387 N 
ATOM      5  C   UNL     1       2.466   0.219   1.153  0.00  0.00    -0.059 C 
ATOM      6  C   UNL     1       3.629  -0.772   1.067  0.00  0.00    +0.088 C 
ATOM      7  H   UNL     1       2.235   0.265  -0.924  0.00  0.00    -0.081 HD
ENDROOT
BRANCH   1  12
ATOM      8  C   UNL     1       7.482  -2.143  -0.409  0.00  0.00    +0.047 A 
ATOM      9  C   UNL     1       8.109  -2.593   0.741  0.00  0.00    -0.022 A 
ATOM     10  C   UNL     1       7.641  -2.174   1.973  0.00  0.00    -0.022 A 
ATOM     11  C   UNL     1       6.545  -1.306   2.014  0.00  0.00    +0.095 A 
ATOM     12  C   UNL     1       5.963  -0.895   0.802  0.00  0.00    +0.139 A 
ATOM     13  N   UNL     1       6.447  -1.330  -0.351  0.00  0.00    -0.235 NA
ATOM     14  C   UNL     1       8.473  -2.787   3.075  0.00  0.00    +0.037 C 
ATOM     15  C   UNL     1       9.763  -3.276   2.382  0.00  0.00    +0.009 C 
ATOM     16  C   UNL     1       9.290  -3.518   0.932  0.00  0.00    +0.037 C 
BRANCH  11  17
ATOM     17  C   UNL     1       6.025  -0.846   3.266  0.00  0.00    +0.103 C 
ATOM     18  N   UNL     1       5.612  -0.481   4.260  0.00  0.00    -0.191 NA
ENDBRANCH  11  17
BRANCH   8  19
ATOM     19  C   UNL     1       7.990  -2.598  -1.753  0.00  0.00    +0.055 C 
BRANCH  19  21
ATOM     20  C   UNL     1       7.784  -4.345  -3.528  0.00  0.00    +0.004 C 
ATOM     21  C   UNL     1       7.269  -3.883  -2.163  0.00  0.00    +0.003 C 
ENDBRANCH  19  21
ENDBRANCH   8  19
ENDBRANCH   1  12
BRANCH   4  22
ATOM     22  C   UNL     1       1.228   1.891  -0.087  0.00  0.00    +0.019 C 
BRANCH  22  23
ATOM     23  C   UNL     1      -0.047   1.087  -0.073  0.00  0.00    +0.201 C 
ATOM     24  O   UNL     1       0.001  -0.125  -0.074  0.00  0.00    -0.278 OA
ATOM     25  N   UNL     1      -1.239   1.715  -0.065  0.00  0.00    -0.287 N 
ATOM     26  H   UNL     1      -1.284   2.810   0.028  0.00  0.00    +0.155 HD
BRANCH  25  27
ATOM     27  C   UNL     1      -2.418   0.975  -0.174  0.00  0.00    +0.041 A 
ATOM     28  C   UNL     1      -2.409  -0.261  -0.784  0.00  0.00    +0.024 A 
ATOM     29  C   UNL     1      -3.579  -1.007  -0.897  0.00  0.00    +0.002 A 
ATOM     30  C   UNL     1      -4.762  -0.538  -0.411  0.00  0.00    +0.008 A 
ATOM     31  C   UNL     1      -4.814   0.718   0.217  0.00  0.00    -0.016 A 
ATOM     32  C   UNL     1      -3.628   1.484   0.343  0.00  0.00    +0.003 A 
ATOM     33  C   UNL     1      -3.683   2.740   0.966  0.00  0.00    +0.010 A 
ATOM     34  C   UNL     1      -4.869   3.203   1.449  0.00  0.00    +0.001 A 
ATOM     35  C   UNL     1      -6.034   2.448   1.330  0.00  0.00    +0.001 A 
ATOM     36  C   UNL     1      -6.020   1.227   0.728  0.00  0.00    +0.008 A 
ENDBRANCH  25  27
ENDBRANCH  22  23
ENDBRANCH   4  22
TORSDOF 7
