REMARK  Name = ZINC36207395
REMARK  16 active torsions:
REMARK  status: ('A' for Active; 'I' for Inactive)
REMARK    1  A    between atoms: C_1  and  C_2
REMARK    2  A    between atoms: C_8  and  C_19
REMARK    3  A    between atoms: C_12  and  C_13
REMARK    4  A    between atoms: C_13  and  O_15
REMARK    5  A    between atoms: O_15  and  C_16
REMARK    6  A    between atoms: C_16  and  C_17
REMARK    7  A    between atoms: C_16  and  C_18
REMARK    8  A    between atoms: C_19  and  N_20
REMARK    9  A    between atoms: N_20  and  C_21
REMARK   10  A    between atoms: N_20  and  C_28
REMARK   11  A    between atoms: C_21  and  C_22
REMARK   12  A    between atoms: C_28  and  C_29
REMARK   13  A    between atoms: C_29  and  C_31
REMARK   14  A    between atoms: C_29  and  O_35
REMARK   15  A    between atoms: C_31  and  C_32
REMARK   16  A    between atoms: C_32  and  C_33
REMARK                            x       y       z     vdW  Elec       q    Type
REMARK                         _______ _______ _______ _____ _____    ______ ____
ROOT
ATOM      1  C   UNL     1       2.470   0.871   0.216  0.00  0.00    +0.046 C 
ATOM      2  C   UNL     1       1.955  -0.545   0.174  0.00  0.00    -0.015 A 
ATOM      3  C   UNL     1       1.724  -1.169  -1.053  0.00  0.00    +0.076 A 
ATOM      4  C   UNL     1       1.913  -0.639  -2.423  0.00  0.00    +0.260 A 
ATOM      5  O   UNL     1       2.325   0.493  -2.604  0.00  0.00    -0.267 OA
ATOM      6  N   UNL     1       1.618  -1.442  -3.464  0.00  0.00    -0.312 N 
ATOM      7  H   UNL     1       1.736  -1.110  -4.368  0.00  0.00    +0.170 HD
ATOM      8  C   UNL     1       1.159  -2.704  -3.275  0.00  0.00    +0.094 A 
ATOM      9  N   UNL     1       0.982  -3.202  -2.081  0.00  0.00    -0.229 NA
ATOM     10  C   UNL     1       1.242  -2.497  -0.988  0.00  0.00    +0.116 A 
ATOM     11  S   UNL     1       1.135  -2.806   0.757  0.00  0.00    -0.062 S 
ATOM     12  C   UNL     1       1.719  -1.222   1.336  0.00  0.00    +0.102 A 
ENDROOT
BRANCH  12  13
ATOM     13  C   UNL     1       1.898  -0.762   2.714  0.00  0.00    +0.346 C 
ATOM     14  O   UNL     1       2.309   0.362   2.932  0.00  0.00    -0.244 OA
BRANCH  13  15
ATOM     15  O   UNL     1       1.608  -1.585   3.743  0.00  0.00    -0.458 OA
BRANCH  15  16
ATOM     16  C   UNL     1       1.806  -1.070   5.061  0.00  0.00    +0.171 C 
ATOM     17  C   UNL     1       0.809  -1.725   6.020  0.00  0.00    +0.052 C 
ATOM     18  C   UNL     1       3.232  -1.379   5.520  0.00  0.00    +0.052 C 
ENDBRANCH  15  16
ENDBRANCH  13  15
ENDBRANCH  12  13
BRANCH   8  19
ATOM     19  C   UNL     1       0.845  -3.556  -4.477  0.00  0.00    -0.003 C 
BRANCH  19  20
ATOM     20  N   UNL     1       0.368  -4.872  -4.033  0.00  0.00    +0.389 N 
ATOM     21  H   UNL     1       1.049  -5.286  -3.414  0.00  0.00    -0.081 HD
BRANCH  20  22
ATOM     22  C   UNL     1      -0.908  -4.717  -3.323  0.00  0.00    -0.042 C 
BRANCH  22  23
ATOM     23  C   UNL     1      -1.885  -3.979  -4.202  0.00  0.00    -0.064 A 
ATOM     24  C   UNL     1      -1.967  -2.600  -4.140  0.00  0.00    +0.002 A 
ATOM     25  C   UNL     1      -2.863  -1.924  -4.946  0.00  0.00    +0.000 A 
ATOM     26  C   UNL     1      -3.677  -2.626  -5.815  0.00  0.00    +0.000 A 
ATOM     27  C   UNL     1      -3.595  -4.004  -5.878  0.00  0.00    +0.000 A 
ATOM     28  C   UNL     1      -2.696  -4.681  -5.075  0.00  0.00    +0.002 A 
ENDBRANCH  22  23
ENDBRANCH  20  22
BRANCH  20  29
ATOM     29  C   UNL     1       0.176  -5.743  -5.201  0.00  0.00    -0.046 C 
BRANCH  29  30
ATOM     30  C   UNL     1       0.042  -7.195  -4.737  0.00  0.00    +0.098 C 
BRANCH  30  31
ATOM     31  O   UNL     1      -1.175  -7.351  -4.005  0.00  0.00    -0.394 OA
ATOM     32  H   UNL     1      -1.973  -7.259  -4.544  0.00  0.00    +0.210 HD
ENDBRANCH  30  31
BRANCH  30  33
ATOM     33  C   UNL     1       0.026  -8.120  -5.956  0.00  0.00    +0.033 C 
BRANCH  33  34
ATOM     34  C   UNL     1       0.018  -9.577  -5.491  0.00  0.00    +0.029 C 
BRANCH  34  35
ATOM     35  C   UNL     1       0.003 -10.488  -6.691  0.00  0.00    -0.034 C 
ATOM     36  C   UNL     1       0.924 -11.410  -6.826  0.00  0.00    +0.004 C 
ENDBRANCH  34  35
ENDBRANCH  33  34
ENDBRANCH  30  33
ENDBRANCH  29  30
ENDBRANCH  20  29
ENDBRANCH  19  20
ENDBRANCH   8  19
TORSDOF 13
