REMARK  Name = ZINC03191993
REMARK  6 active torsions:
REMARK  status: ('A' for Active; 'I' for Inactive)
REMARK    1  A    between atoms: C_3  and  C_6
REMARK    2  A    between atoms: C_6  and  O_8
REMARK    3  A    between atoms: O_8  and  N_9
REMARK    4  A    between atoms: C_10  and  C_11
REMARK    5  A    between atoms: C_10  and  C_23
REMARK    6  A    between atoms: C_13  and  C_16
REMARK                            x       y       z     vdW  Elec       q    Type
REMARK                         _______ _______ _______ _____ _____    ______ ____
ROOT
ATOM      1  N   UNL     1       5.711  -0.431  -0.065  0.00  0.00    -0.066 NA
ATOM      2  C   UNL     1       6.357  -1.563  -0.072  0.00  0.00    +0.196 C 
ENDROOT
BRANCH   2   3
ATOM      3  C   UNL     1       7.825  -1.574  -0.217  0.00  0.00    +0.135 A 
ATOM      4  N   UNL     1       8.671  -0.555  -0.240  0.00  0.00    -0.237 NA
ATOM      5  C   UNL     1       9.958  -0.809  -0.382  0.00  0.00    +0.079 A 
ATOM      6  C   UNL     1      10.374  -2.107  -0.501  0.00  0.00    +0.075 A 
ATOM      7  S   UNL     1       8.929  -2.964  -0.402  0.00  0.00    -0.073 S 
BRANCH   5   8
ATOM      8  C   UNL     1      10.943   0.300  -0.413  0.00  0.00    +0.001 A 
ATOM      9  C   UNL     1      12.300   0.025  -0.570  0.00  0.00    +0.011 A 
ATOM     10  C   UNL     1      13.212   1.061  -0.599  0.00  0.00    +0.016 A 
ATOM     11  C   UNL     1      12.780   2.370  -0.471  0.00  0.00    +0.018 A 
ATOM     12  C   UNL     1      11.433   2.647  -0.315  0.00  0.00    +0.016 A 
ATOM     13  C   UNL     1      10.513   1.620  -0.292  0.00  0.00    +0.011 A 
ATOM     14 BR   UNL     1      14.036   3.784  -0.510  0.00  0.00    -0.050 Br
ENDBRANCH   5   8
ENDBRANCH   2   3
BRANCH   2  15
ATOM     15  C   UNL     1       5.617  -2.840   0.068  0.00  0.00    +0.266 C 
ATOM     16  O   UNL     1       4.402  -2.839   0.079  0.00  0.00    -0.269 OA
ATOM     17  N   UNL     1       6.291  -4.001   0.182  0.00  0.00    -0.324 N 
ATOM     18  H   UNL     1       7.258  -4.010   0.103  0.00  0.00    +0.145 HD
ATOM     19  H   UNL     1       5.810  -4.828   0.343  0.00  0.00    +0.145 HD
ENDBRANCH   2  15
BRANCH   1  20
ATOM     20  O   UNL     1       4.295  -0.424  -0.035  0.00  0.00    -0.308 OA
BRANCH  20  21
ATOM     21  C   UNL     1       3.752   0.811  -0.031  0.00  0.00    +0.401 C 
ATOM     22  O   UNL     1       4.472   1.792  -0.053  0.00  0.00    -0.239 OA
BRANCH  21  25
ATOM     23  C   UNL     1       0.253   1.843   0.036  0.00  0.00    +0.042 A 
ATOM     24  C   UNL     1       1.620   2.159   0.005  0.00  0.00    +0.056 A 
ATOM     25  C   UNL     1       2.297   0.972  -0.001  0.00  0.00    +0.213 A 
ATOM     26  O   UNL     1       1.390  -0.026   0.024  0.00  0.00    -0.456 OA
ATOM     27  C   UNL     1       0.156   0.495   0.047  0.00  0.00    +0.196 A 
ENDBRANCH  21  25
ENDBRANCH  20  21
ENDBRANCH   1  20
TORSDOF 6
