REMARK  Name = ZINC39449193
REMARK  6 active torsions:
REMARK  status: ('A' for Active; 'I' for Inactive)
REMARK    1  A    between atoms: C_1  and  C_2
REMARK    2  A    between atoms: C_2  and  C_3
REMARK    3  A    between atoms: C_2  and  S_4
REMARK    4  A    between atoms: S_4  and  C_7
REMARK    5  A    between atoms: C_20  and  C_23
REMARK    6  A    between atoms: C_23  and  C_24
REMARK                            x       y       z     vdW  Elec       q    Type
REMARK                         _______ _______ _______ _____ _____    ______ ____
ROOT
ATOM      1  C   UNL     1      -0.038   0.027   2.837  0.00  0.00    +0.107 A 
ATOM      2  C   UNL     1       0.273   1.265   3.371  0.00  0.00    +0.044 A 
ATOM      3  C   UNL     1      -0.484   1.721   4.452  0.00  0.00    +0.069 A 
ATOM      4  C   UNL     1      -1.526   0.911   4.953  0.00  0.00    +0.099 A 
ATOM      5  C   UNL     1      -2.307   1.413   6.092  0.00  0.00    +0.082 A 
ATOM      6  C   UNL     1      -2.011   2.649   6.636  0.00  0.00    +0.122 A 
ATOM      7  N   UNL     1      -0.979   3.424   6.125  0.00  0.00    -0.237 N 
ATOM      8  C   UNL     1      -0.226   3.021   5.085  0.00  0.00    +0.271 A 
ATOM      9  O   UNL     1       0.668   3.734   4.669  0.00  0.00    -0.266 OA
ATOM     10 BR   UNL     1      -0.626   5.067   6.900  0.00  0.00    +0.058 Br
ATOM     11  C   UNL     1      -2.770   3.137   7.725  0.00  0.00    +0.184 C 
ATOM     12  O   UNL     1      -2.478   4.201   8.233  0.00  0.00    -0.290 OA
ATOM     13  C   UNL     1      -3.937   2.350   8.261  0.00  0.00    +0.103 C 
ATOM     14  C   UNL     1      -3.688   0.855   8.037  0.00  0.00    +0.082 C 
ATOM     15  N   UNL     1      -3.333   0.654   6.623  0.00  0.00    -0.337 N 
ATOM     16  N   UNL     1      -1.781  -0.268   4.401  0.00  0.00    -0.251 NA
ATOM     17  C   UNL     1      -1.081  -0.712   3.378  0.00  0.00    +0.138 A 
ATOM     18  H   UNL     1      -3.806   0.007   6.078  0.00  0.00    +0.146 HD
ENDROOT
BRANCH   1  19
ATOM     19  S   UNL     1       0.879  -0.605   1.472  0.00  0.00    +0.001 S 
ATOM     20  O   UNL     1       0.754  -2.017   1.573  0.00  0.00    -0.169 OA
ATOM     21  O   UNL     1       2.152   0.018   1.571  0.00  0.00    -0.169 OA
BRANCH  19  23
ATOM     22  C   UNL     1      -0.019   1.526   0.010  0.00  0.00    +0.032 C 
ATOM     23  C   UNL     1       0.002  -0.004   0.002  0.00  0.00    +0.130 C 
ATOM     24  C   UNL     1       0.718  -0.497  -1.257  0.00  0.00    +0.032 C 
ENDBRANCH  19  23
ENDBRANCH   1  19
BRANCH  14  25
ATOM     25  C   UNL     1      -2.539   0.383   8.930  0.00  0.00    +0.057 C 
BRANCH  25  26
ATOM     26  C   UNL     1      -2.379  -1.109   8.797  0.00  0.00    -0.046 A 
ATOM     27  C   UNL     1      -3.079  -1.957   9.635  0.00  0.00    +0.004 A 
ATOM     28  C   UNL     1      -2.932  -3.326   9.512  0.00  0.00    +0.000 A 
ATOM     29  C   UNL     1      -2.085  -3.848   8.552  0.00  0.00    +0.000 A 
ATOM     30  C   UNL     1      -1.386  -3.000   7.713  0.00  0.00    +0.000 A 
ATOM     31  C   UNL     1      -1.536  -1.631   7.833  0.00  0.00    +0.004 A 
ENDBRANCH  25  26
ENDBRANCH  14  25
TORSDOF 4
