REMARK  Name = ZINC31642057
REMARK  8 active torsions:
REMARK  status: ('A' for Active; 'I' for Inactive)
REMARK    1  A    between atoms: N_9  and  C_12
REMARK    2  A    between atoms: C_12  and  C_13
REMARK    3  A    between atoms: C_13  and  C_14
REMARK    4  A    between atoms: C_14  and  O_16
REMARK    5  A    between atoms: O_16  and  C_17
REMARK    6  A    between atoms: C_17  and  C_18
REMARK    7  A    between atoms: C_21  and  C_31
REMARK    8  A    between atoms: C_24  and  C_26
REMARK                            x       y       z     vdW  Elec       q    Type
REMARK                         _______ _______ _______ _____ _____    ______ ____
ROOT
ATOM      1  C   UNL     1      -5.728  -5.345  -2.509  0.00  0.00    +0.329 C 
ENDROOT
BRANCH   1   2
ATOM      2  C   UNL     1      -6.212  -5.667  -3.899  0.00  0.00    +0.273 C 
ATOM      3  O   UNL     1      -5.616  -5.236  -4.864  0.00  0.00    -0.270 OA
ATOM      4  N   UNL     1      -7.307  -6.433  -4.071  0.00  0.00    -0.182 N 
ATOM      5  C   UNL     1      -7.888  -6.817  -5.367  0.00  0.00    +0.144 C 
ATOM      6  C   UNL     1      -9.104  -7.681  -4.978  0.00  0.00    +0.088 C 
ATOM      7  C   UNL     1      -9.081  -7.684  -3.466  0.00  0.00    +0.075 C 
ATOM      8  N   UNL     1      -8.077  -6.986  -3.049  0.00  0.00    -0.180 NA
BRANCH   7   9
ATOM      9  C   UNL     1     -10.048  -8.373  -2.605  0.00  0.00    +0.035 A 
ATOM     10  C   UNL     1     -10.099  -8.434  -1.223  0.00  0.00    +0.017 A 
ATOM     11  C   UNL     1     -11.117  -9.149  -0.638  0.00  0.00    +0.008 A 
ATOM     12  C   UNL     1     -12.027  -9.778  -1.426  0.00  0.00    +0.046 A 
ATOM     13  S   UNL     1     -11.462  -9.360  -3.067  0.00  0.00    -0.095 S 
ENDBRANCH   7   9
BRANCH   5  14
ATOM     14  C   UNL     1      -6.902  -7.625  -6.171  0.00  0.00    +0.013 A 
ATOM     15  C   UNL     1      -6.665  -7.598  -7.505  0.00  0.00    +0.013 A 
ATOM     16  C   UNL     1      -5.698  -8.436  -8.030  0.00  0.00    +0.008 A 
ATOM     17  C   UNL     1      -5.025  -9.267  -7.197  0.00  0.00    +0.045 A 
ATOM     18  S   UNL     1      -5.751  -8.870  -5.615  0.00  0.00    -0.100 S 
ENDBRANCH   5  14
ENDBRANCH   1   2
BRANCH   1  19
ATOM     19  O   UNL     1      -4.542  -4.511  -2.590  0.00  0.00    -0.455 OA
BRANCH  19  20
ATOM     20  C   UNL     1      -3.982  -4.133  -1.430  0.00  0.00    +0.309 C 
ATOM     21  O   UNL     1      -4.467  -4.487  -0.382  0.00  0.00    -0.251 OA
BRANCH  20  22
ATOM     22  C   UNL     1      -2.748  -3.268  -1.436  0.00  0.00    +0.144 C 
BRANCH  22  23
ATOM     23  C   UNL     1      -2.318  -2.984   0.005  0.00  0.00    +0.160 C 
BRANCH  23  32
ATOM     24  C   UNL     1       1.172   2.086   0.002  0.00  0.00    +0.001 A 
ATOM     25  C   UNL     1       2.385   1.410  -0.012  0.00  0.00    +0.002 A 
ATOM     26  C   UNL     1       2.426   0.034  -0.021  0.00  0.00    +0.030 A 
ATOM     27  C   UNL     1       1.233  -0.695  -0.013  0.00  0.00    +0.100 A 
ATOM     28  C   UNL     1       0.002  -0.004   0.002  0.00  0.00    +0.068 A 
ATOM     29  C   UNL     1      -0.017   1.390   0.010  0.00  0.00    +0.015 A 
ATOM     30  C   UNL     1      -1.239  -0.794   0.009  0.00  0.00    +0.278 A 
ATOM     31  O   UNL     1      -2.331  -0.256   0.023  0.00  0.00    -0.265 OA
ATOM     32  N   UNL     1      -1.119  -2.142  -0.001  0.00  0.00    -0.210 N 
ATOM     33  N   UNL     1       0.148  -2.732  -0.016  0.00  0.00    -0.062 NA
ATOM     34  N   UNL     1       1.236  -2.051  -0.022  0.00  0.00    -0.131 NA
ENDBRANCH  23  32
ENDBRANCH  22  23
ENDBRANCH  20  22
ENDBRANCH  19  20
ENDBRANCH   1  19
TORSDOF 8
