REMARK  Name = ZINC38728598
REMARK  14 active torsions:
REMARK  status: ('A' for Active; 'I' for Inactive)
REMARK    1  A    between atoms: C_1  and  C_2
REMARK    2  A    between atoms: C_2  and  C_3
REMARK    3  A    between atoms: N_16  and  C_29
REMARK    4  A    between atoms: C_17  and  C_19
REMARK    5  A    between atoms: C_22  and  O_25
REMARK    6  A    between atoms: O_25  and  C_26
REMARK    7  A    between atoms: C_26  and  C_27
REMARK    8  A    between atoms: C_26  and  C_28
REMARK    9  A    between atoms: C_29  and  C_30
REMARK   10  A    between atoms: C_30  and  N_31
REMARK   11  A    between atoms: N_31  and  C_32
REMARK   12  A    between atoms: N_31  and  C_34
REMARK   13  A    between atoms: C_32  and  C_33
REMARK   14  A    between atoms: C_34  and  C_35
REMARK                            x       y       z     vdW  Elec       q    Type
REMARK                         _______ _______ _______ _____ _____    ______ ____
ROOT
ATOM      1  C   UNL     1      -0.704   1.238  -2.458  0.00  0.00    -0.047 A 
ATOM      2  C   UNL     1      -0.850   0.790  -1.152  0.00  0.00    +0.007 A 
ATOM      3  C   UNL     1      -1.899  -0.029  -0.801  0.00  0.00    +0.047 A 
ATOM      4  C   UNL     1      -2.833  -0.419  -1.760  0.00  0.00    +0.139 A 
ATOM      5  C   UNL     1      -2.679   0.046  -3.077  0.00  0.00    +0.065 A 
ATOM      6  C   UNL     1      -1.611   0.876  -3.415  0.00  0.00    +0.019 A 
ATOM      7  C   UNL     1      -3.678  -0.351  -4.102  0.00  0.00    +0.199 A 
ATOM      8  O   UNL     1      -3.533  -0.136  -5.292  0.00  0.00    -0.287 OA
ATOM      9  C   UNL     1      -4.854  -1.026  -3.544  0.00  0.00    +0.072 A 
ATOM     10  C   UNL     1      -4.886  -1.422  -2.238  0.00  0.00    +0.199 A 
ATOM     11  O   UNL     1      -3.852  -1.230  -1.395  0.00  0.00    -0.450 OA
ATOM     12  C   UNL     1      -6.191  -2.056  -1.978  0.00  0.00    +0.283 C 
ATOM     13  O   UNL     1      -6.541  -2.515  -0.909  0.00  0.00    -0.267 OA
ATOM     14  N   UNL     1      -6.939  -2.051  -3.099  0.00  0.00    -0.285 N 
ATOM     15  C   UNL     1      -6.157  -1.407  -4.167  0.00  0.00    +0.144 C 
ENDROOT
BRANCH  15  16
ATOM     16  C   UNL     1      -6.873  -0.179  -4.667  0.00  0.00    -0.022 A 
ATOM     17  C   UNL     1      -7.548   0.637  -3.778  0.00  0.00    +0.009 A 
ATOM     18  C   UNL     1      -8.206   1.763  -4.234  0.00  0.00    +0.046 A 
ATOM     19  C   UNL     1      -8.188   2.075  -5.586  0.00  0.00    +0.121 A 
ATOM     20  C   UNL     1      -7.510   1.255  -6.476  0.00  0.00    +0.046 A 
ATOM     21  C   UNL     1      -6.850   0.133  -6.014  0.00  0.00    +0.009 A 
BRANCH  19  22
ATOM     22  O   UNL     1      -8.835   3.182  -6.037  0.00  0.00    -0.489 OA
BRANCH  22  23
ATOM     23  C   UNL     1      -8.713   3.482  -7.429  0.00  0.00    +0.167 C 
ATOM     24  C   UNL     1      -9.895   4.348  -7.869  0.00  0.00    +0.051 C 
ATOM     25  C   UNL     1      -7.407   4.241  -7.674  0.00  0.00    +0.051 C 
ENDBRANCH  22  23
ENDBRANCH  19  22
ENDBRANCH  15  16
BRANCH   1  27
ATOM     26  C   UNL     1       0.050   3.594  -2.627  0.00  0.00    +0.009 C 
ATOM     27  C   UNL     1       0.455   2.131  -2.820  0.00  0.00    +0.032 C 
ENDBRANCH   1  27
BRANCH  14  28
ATOM     28  C   UNL     1      -8.294  -2.594  -3.232  0.00  0.00    +0.090 C 
BRANCH  28  29
ATOM     29  C   UNL     1      -9.315  -1.501  -2.908  0.00  0.00    -0.060 C 
BRANCH  29  30
ATOM     30  N   UNL     1     -10.666  -2.078  -2.909  0.00  0.00    +0.380 N 
ATOM     31  H   UNL     1     -10.826  -2.558  -3.782  0.00  0.00    -0.082 HD
BRANCH  30  32
ATOM     32  C   UNL     1     -10.794  -3.029  -1.797  0.00  0.00    -0.082 C 
ATOM     33  C   UNL     1     -12.156  -3.721  -1.872  0.00  0.00    -0.017 C 
ENDBRANCH  30  32
BRANCH  30  34
ATOM     34  C   UNL     1     -11.656  -1.004  -2.752  0.00  0.00    -0.082 C 
ATOM     35  C   UNL     1     -11.620  -0.093  -3.980  0.00  0.00    -0.017 C 
ENDBRANCH  30  34
ENDBRANCH  29  30
ENDBRANCH  28  29
ENDBRANCH  14  28
TORSDOF 9
