REMARK  Name = ZINC17090824
REMARK  6 active torsions:
REMARK  status: ('A' for Active; 'I' for Inactive)
REMARK    1  A    between atoms: C_1  and  C_2
REMARK    2  A    between atoms: C_2  and  C_3
REMARK    3  A    between atoms: C_6  and  C_9
REMARK    4  A    between atoms: C_22  and  S_24
REMARK    5  A    between atoms: S_24  and  C_25
REMARK    6  A    between atoms: C_25  and  C_26
REMARK                            x       y       z     vdW  Elec       q    Type
REMARK                         _______ _______ _______ _____ _____    ______ ____
ROOT
ATOM      1  C   UNL     1       2.797  -1.919   4.683  0.00  0.00    +0.175 C 
ATOM      2  C   UNL     1       2.619  -0.930   5.815  0.00  0.00    +0.041 C 
ATOM      3  C   UNL     1       1.803  -1.177   6.862  0.00  0.00    +0.020 C 
ATOM      4  C   UNL     1       1.632  -0.163   7.968  0.00  0.00    +0.052 C 
ATOM      5  C   UNL     1       2.928   0.631   8.143  0.00  0.00    +0.014 C 
ATOM      6  C   UNL     1       3.258   1.316   6.812  0.00  0.00    +0.080 C 
ATOM      7  C   UNL     1       3.346   0.271   5.734  0.00  0.00    +0.163 C 
ATOM      8  O   UNL     1       4.062   0.469   4.772  0.00  0.00    -0.292 OA
ATOM      9  N   UNL     1       1.101  -2.353   6.972  0.00  0.00    -0.287 N 
ATOM     10  C   UNL     1       1.460  -3.406   6.146  0.00  0.00    +0.219 A 
ATOM     11  N   UNL     1       2.259  -3.217   5.070  0.00  0.00    -0.220 N 
ATOM     12  N   UNL     1       2.422  -4.467   4.474  0.00  0.00    -0.141 NA
ATOM     13  C   UNL     1       1.730  -5.323   5.195  0.00  0.00    +0.211 A 
ATOM     14  N   UNL     1       1.150  -4.672   6.206  0.00  0.00    -0.187 NA
ATOM     15  H   UNL     1       0.375  -2.444   7.609  0.00  0.00    +0.155 HD
ENDROOT
BRANCH   1  19
ATOM     16  C   UNL     1       0.731  -0.503   1.223  0.00  0.00    -0.048 A 
ATOM     17  C   UNL     1       2.097  -0.710   1.176  0.00  0.00    +0.004 A 
ATOM     18  C   UNL     1       2.766  -1.167   2.296  0.00  0.00    +0.006 A 
ATOM     19  C   UNL     1       2.068  -1.419   3.463  0.00  0.00    -0.018 A 
ATOM     20  C   UNL     1       0.702  -1.212   3.510  0.00  0.00    +0.006 A 
ATOM     21  C   UNL     1       0.034  -0.750   2.391  0.00  0.00    +0.004 A 
BRANCH  16  23
ATOM     22  C   UNL     1      -0.019   1.526   0.010  0.00  0.00    +0.009 C 
ATOM     23  C   UNL     1       0.002  -0.004   0.002  0.00  0.00    +0.032 C 
ENDBRANCH  16  23
ENDBRANCH   1  19
BRANCH  13  24
ATOM     24  S   UNL     1       1.592  -7.051   4.878  0.00  0.00    -0.080 S 
BRANCH  24  25
ATOM     25  C   UNL     1       0.518  -7.657   6.209  0.00  0.00    +0.112 C 
BRANCH  25  26
ATOM     26  C   UNL     1       0.315  -9.142   6.055  0.00  0.00    -0.037 A 
ATOM     27  C   UNL     1      -0.736  -9.621   5.295  0.00  0.00    +0.004 A 
ATOM     28  C   UNL     1      -0.922 -10.983   5.154  0.00  0.00    +0.000 A 
ATOM     29  C   UNL     1      -0.056 -11.867   5.771  0.00  0.00    +0.000 A 
ATOM     30  C   UNL     1       0.996 -11.388   6.529  0.00  0.00    +0.000 A 
ATOM     31  C   UNL     1       1.184 -10.025   6.668  0.00  0.00    +0.004 A 
ENDBRANCH  25  26
ENDBRANCH  24  25
ENDBRANCH  13  24
TORSDOF 5
