REMARK  Name = ZINC08694317
REMARK  5 active torsions:
REMARK  status: ('A' for Active; 'I' for Inactive)
REMARK    1  A    between atoms: C_1  and  C_2
REMARK    2  A    between atoms: C_3  and  C_12
REMARK    3  A    between atoms: C_12  and  C_14
REMARK    4  A    between atoms: C_12  and  N_46
REMARK    5  A    between atoms: C_19  and  O_20
REMARK                            x       y       z     vdW  Elec       q    Type
REMARK                         _______ _______ _______ _____ _____    ______ ____
ROOT
ATOM      1  C   UNL     1      -0.017   1.070  -0.001  0.00  0.00    -0.001 C 
ENDROOT
BRANCH   1   4
ATOM      2  C   UNL     1       2.507  -0.692  -0.402  0.00  0.00    +0.063 C 
ATOM      3  C   UNL     1       2.506   0.803  -0.213  0.00  0.00    +0.016 A 
ATOM      4  C   UNL     1       1.409   1.557  -0.040  0.00  0.00    -0.029 A 
ATOM      5  C   UNL     1       1.861   2.942   0.110  0.00  0.00    +0.002 A 
ATOM      6  C   UNL     1       1.208   4.159   0.318  0.00  0.00    +0.010 A 
ATOM      7  C   UNL     1       1.935   5.311   0.418  0.00  0.00    +0.001 A 
ATOM      8  C   UNL     1       3.319   5.282   0.315  0.00  0.00    +0.002 A 
ATOM      9  C   UNL     1       3.984   4.093   0.109  0.00  0.00    +0.026 A 
ATOM     10  C   UNL     1       3.263   2.908   0.004  0.00  0.00    +0.047 A 
ATOM     11  N   UNL     1       3.623   1.594  -0.195  0.00  0.00    -0.358 N 
ATOM     12  H   UNL     1       4.533   1.275  -0.303  0.00  0.00    +0.166 HD
ENDBRANCH   1   4
BRANCH   1  13
ATOM     13  C   UNL     1      -0.711   1.444  -1.286  0.00  0.00    -0.013 A 
ATOM     14  C   UNL     1      -1.416   2.629  -1.370  0.00  0.00    +0.021 A 
ATOM     15  C   UNL     1      -2.053   2.974  -2.549  0.00  0.00    +0.019 A 
ATOM     16  C   UNL     1      -1.985   2.133  -3.646  0.00  0.00    +0.034 A 
ATOM     17  C   UNL     1      -1.280   0.947  -3.566  0.00  0.00    +0.060 A 
ATOM     18  C   UNL     1      -0.636   0.602  -2.385  0.00  0.00    +0.133 A 
ATOM     19 BR   UNL     1      -1.187  -0.202  -5.065  0.00  0.00    -0.046 Br
ATOM     20 BR   UNL     1      -3.018   4.596  -2.661  0.00  0.00    -0.050 Br
BRANCH  18  21
ATOM     21  O   UNL     1       0.062  -0.561  -2.305  0.00  0.00    -0.505 OA
ATOM     22  H   UNL     1      -0.465  -1.317  -2.011  0.00  0.00    +0.292 HD
ENDBRANCH  18  21
ENDBRANCH   1  13
BRANCH   1  28
ATOM     23  C   UNL     1      -0.016   1.418   2.396  0.00  0.00    -0.049 C 
ATOM     24  C   UNL     1      -0.743   2.131   3.539  0.00  0.00    +0.141 C 
ATOM     25  O   UNL     1      -2.107   1.701   3.572  0.00  0.00    -0.383 OA
ATOM     26  C   UNL     1      -2.818   1.952   2.357  0.00  0.00    +0.141 C 
ATOM     27  C   UNL     1      -2.112   1.237   1.201  0.00  0.00    -0.049 C 
ATOM     28  N   UNL     1      -0.716   1.718   1.129  0.00  0.00    +0.390 N 
ATOM     29  H   UNL     1      -0.720   2.734   0.982  0.00  0.00    -0.080 HD
ENDBRANCH   1  28
TORSDOF 4
