REMARK  Name = ZINC39942953
REMARK  11 active torsions:
REMARK  status: ('A' for Active; 'I' for Inactive)
REMARK    1  A    between atoms: C_1  and  C_2
REMARK    2  A    between atoms: C_2  and  C_3
REMARK    3  A    between atoms: C_2  and  C_4
REMARK    4  A    between atoms: C_4  and  N_5
REMARK    5  A    between atoms: C_6  and  C_19
REMARK    6  A    between atoms: C_9  and  S_10
REMARK    7  A    between atoms: S_10  and  C_11
REMARK    8  A    between atoms: C_11  and  C_12
REMARK    9  A    between atoms: C_12  and  C_14
REMARK   10  A    between atoms: C_23  and  S_25
REMARK   11  A    between atoms: S_25  and  N_28
REMARK                            x       y       z     vdW  Elec       q    Type
REMARK                         _______ _______ _______ _____ _____    ______ ____
ROOT
ATOM      1  N   UNL     1      -1.374  -1.993  -0.121  0.00  0.00    -0.302 N 
ATOM      2  C   UNL     1      -1.540  -2.727  -1.272  0.00  0.00    +0.165 A 
ATOM      3  N   UNL     1      -1.511  -3.994  -0.929  0.00  0.00    -0.128 NA
ATOM      4  N   UNL     1      -1.340  -4.101   0.340  0.00  0.00    -0.122 NA
ATOM      5  C   UNL     1      -1.245  -2.908   0.884  0.00  0.00    +0.192 A 
ENDROOT
BRANCH   2   6
ATOM      6  C   UNL     1      -1.718  -2.191  -2.639  0.00  0.00    +0.021 A 
ATOM      7  C   UNL     1      -1.361  -0.872  -2.926  0.00  0.00    +0.012 A 
ATOM      8  C   UNL     1      -1.530  -0.378  -4.203  0.00  0.00    +0.003 A 
ATOM      9  C   UNL     1      -2.051  -1.186  -5.198  0.00  0.00    +0.028 A 
ATOM     10  C   UNL     1      -2.407  -2.494  -4.920  0.00  0.00    +0.106 A 
ATOM     11  C   UNL     1      -2.238  -3.002  -3.648  0.00  0.00    +0.040 A 
BRANCH  10  12
ATOM     12  S   UNL     1      -3.070  -3.515  -6.194  0.00  0.00    +0.061 S 
ATOM     13  O   UNL     1      -3.830  -4.527  -5.548  0.00  0.00    -0.153 OA
ATOM     14  O   UNL     1      -3.632  -2.641  -7.163  0.00  0.00    -0.153 OA
BRANCH  12  15
ATOM     15  N   UNL     1      -1.794  -4.276  -6.925  0.00  0.00    -0.172 NA
ATOM     16  C   UNL     1      -1.105  -3.666  -8.074  0.00  0.00    +0.137 C 
ATOM     17  C   UNL     1       0.402  -3.673  -7.794  0.00  0.00    +0.177 C 
ATOM     18  O   UNL     1       0.808  -4.997  -7.440  0.00  0.00    -0.377 OA
ATOM     19  C   UNL     1       0.203  -5.496  -6.245  0.00  0.00    +0.177 C 
ATOM     20  C   UNL     1      -1.311  -5.579  -6.442  0.00  0.00    +0.137 C 
ENDBRANCH  12  15
ENDBRANCH  10  12
ENDBRANCH   2   6
BRANCH   1  21
ATOM     21  C   UNL     1      -1.337  -0.533   0.001  0.00  0.00    +0.129 C 
BRANCH  21  23
ATOM     22  C   UNL     1       0.125   1.486  -0.162  0.00  0.00    +0.009 C 
ATOM     23  C   UNL     1       0.103  -0.044  -0.165  0.00  0.00    +0.003 C 
ATOM     24  C   UNL     1       0.955  -0.568   0.993  0.00  0.00    +0.009 C 
ENDBRANCH  21  23
ENDBRANCH   1  21
BRANCH   5  25
ATOM     25  S   UNL     1      -1.000  -2.556   2.593  0.00  0.00    -0.078 S 
BRANCH  25  26
ATOM     26  C   UNL     1      -0.913  -4.192   3.371  0.00  0.00    +0.158 C 
BRANCH  26  27
ATOM     27  C   UNL     1      -0.702  -4.033   4.854  0.00  0.00    +0.188 C 
ATOM     28  O   UNL     1      -0.620  -2.924   5.340  0.00  0.00    -0.290 OA
BRANCH  27  29
ATOM     29  C   UNL     1      -0.598  -5.216   5.710  0.00  0.00    +0.088 C 
ATOM     30  N   UNL     1      -0.661  -6.463   5.334  0.00  0.00    -0.256 NA
ATOM     31  C   UNL     1      -0.533  -7.331   6.340  0.00  0.00    +0.107 C 
ATOM     32  C   UNL     1      -0.366  -6.726   7.522  0.00  0.00    -0.001 C 
ATOM     33  C   UNL     1      -0.387  -5.240   7.212  0.00  0.00    +0.087 C 
ENDBRANCH  27  29
ENDBRANCH  26  27
ENDBRANCH  25  26
ENDBRANCH   5  25
TORSDOF 9
