REMARK  Name = ZINC50362197
REMARK  9 active torsions:
REMARK  status: ('A' for Active; 'I' for Inactive)
REMARK    1  A    between atoms: C_1  and  C_2
REMARK    2  A    between atoms: C_2  and  C_3
REMARK    3  A    between atoms: C_3  and  C_4
REMARK    4  A    between atoms: C_4  and  N_5
REMARK    5  A    between atoms: N_5  and  C_6
REMARK    6  A    between atoms: N_5  and  C_9
REMARK    7  A    between atoms: C_9  and  C_11
REMARK    8  A    between atoms: C_9  and  C_13
REMARK    9  A    between atoms: C_11  and  N_12
REMARK                            x       y       z     vdW  Elec       q    Type
REMARK                         _______ _______ _______ _____ _____    ______ ____
ROOT
ATOM      1  C   UNL     1       1.129  -4.003  -2.403  0.00  0.00    -0.018 C 
ENDROOT
BRANCH   1   2
ATOM      2  C   UNL     1       1.982  -4.670  -1.354  0.00  0.00    +0.092 A 
ATOM      3  C   UNL     1       1.568  -5.611  -0.486  0.00  0.00    +0.059 A 
ATOM      4  C   UNL     1       2.686  -5.955   0.309  0.00  0.00    +0.070 A 
ATOM      5  C   UNL     1       3.717  -5.202  -0.120  0.00  0.00    +0.184 A 
ATOM      6  O   UNL     1       3.285  -4.430  -1.131  0.00  0.00    -0.454 OA
ATOM      7 BR   UNL     1       5.474  -5.231   0.576  0.00  0.00    -0.007 Br
ATOM      8 BR   UNL     1       2.725  -7.226   1.708  0.00  0.00    -0.046 Br
ENDBRANCH   1   2
BRANCH   1   9
ATOM      9  N   UNL     1       1.471  -2.576  -2.476  0.00  0.00    +0.387 N 
ATOM     10  H   UNL     1       2.395  -2.471  -2.867  0.00  0.00    -0.080 HD
BRANCH   9  11
ATOM     11  C   UNL     1       0.497  -1.883  -3.330  0.00  0.00    -0.068 C 
ATOM     12  C   UNL     1      -0.659  -2.710  -3.897  0.00  0.00    -0.017 C 
ATOM     13  C   UNL     1       0.474  -2.249  -4.816  0.00  0.00    -0.017 C 
ENDBRANCH   9  11
BRANCH   9  14
ATOM     14  C   UNL     1       1.440  -1.995  -1.127  0.00  0.00    -0.078 C 
BRANCH  14  15
ATOM     15  C   UNL     1       1.948  -0.553  -1.182  0.00  0.00    -0.019 C 
BRANCH  15  17
ATOM     16  C   UNL     1       2.324   1.528   0.148  0.00  0.00    +0.004 C 
ATOM     17  C   UNL     1       1.816   0.086   0.202  0.00  0.00    -0.005 C 
ENDBRANCH  15  17
ENDBRANCH  14  15
ENDBRANCH   9  14
ENDBRANCH   1   9
BRANCH   1  18
ATOM     18  C   UNL     1       1.385  -4.660  -3.761  0.00  0.00    -0.094 C 
BRANCH  18  19
ATOM     19  N   UNL     1       2.767  -4.391  -4.182  0.00  0.00    +0.377 N 
ATOM     20  H   UNL     1       2.929  -3.395  -4.187  0.00  0.00    -0.090 HD
ATOM     21  H   UNL     1       3.406  -4.832  -3.539  0.00  0.00    -0.090 HD
ATOM     22  H   UNL     1       2.913  -4.760  -5.110  0.00  0.00    -0.090 HD
ENDBRANCH  18  19
ENDBRANCH   1  18
TORSDOF 8
