REMARK  Name = ZINC09631186
REMARK  11 active torsions:
REMARK  status: ('A' for Active; 'I' for Inactive)
REMARK    1  A    between atoms: C_1  and  C_2
REMARK    2  A    between atoms: C_2  and  C_3
REMARK    3  A    between atoms: C_6  and  C_9
REMARK    4  A    between atoms: N_11  and  N_12
REMARK    5  A    between atoms: N_12  and  C_13
REMARK    6  A    between atoms: C_16  and  S_22
REMARK    7  A    between atoms: C_18  and  N_19
REMARK    8  A    between atoms: S_22  and  N_25
REMARK    9  A    between atoms: N_25  and  C_26
REMARK   10  A    between atoms: C_29  and  C_33
REMARK   11  A    between atoms: C_31  and  C_32
REMARK                            x       y       z     vdW  Elec       q    Type
REMARK                         _______ _______ _______ _____ _____    ______ ____
ROOT
ATOM      1  C   UNL     1       1.734   4.455   3.542  0.00  0.00    +0.075 A 
ATOM      2  C   UNL     1       1.090   5.033   2.455  0.00  0.00    +0.028 A 
ATOM      3  C   UNL     1       0.930   4.314   1.287  0.00  0.00    +0.031 A 
ATOM      4  C   UNL     1       1.400   3.016   1.202  0.00  0.00    +0.111 A 
ATOM      5  C   UNL     1       2.042   2.438   2.282  0.00  0.00    +0.063 A 
ATOM      6  C   UNL     1       2.210   3.153   3.451  0.00  0.00    +0.150 A 
ENDROOT
BRANCH   6   7
ATOM      7  N   UNL     1       2.897   2.533   4.607  0.00  0.00    +0.058 N 
ATOM      8  O   UNL     1       3.405   1.432   4.494  0.00  0.00    -0.126 OA
ATOM      9  O   UNL     1       2.954   3.124   5.671  0.00  0.00    -0.126 OA
ENDBRANCH   6   7
BRANCH   4  10
ATOM     10  S   UNL     1       1.187   2.100  -0.288  0.00  0.00    +0.072 S 
ATOM     11  O   UNL     1       2.201   1.104  -0.301  0.00  0.00    -0.150 OA
ATOM     12  O   UNL     1       1.041   3.052  -1.332  0.00  0.00    -0.150 OA
BRANCH  10  13
ATOM     13  N   UNL     1      -0.259   1.301  -0.169  0.00  0.00    -0.216 N 
ATOM     14  H   UNL     1      -0.282   0.332  -0.211  0.00  0.00    +0.174 HD
BRANCH  13  15
ATOM     15  C   UNL     1      -1.444   2.023  -0.015  0.00  0.00    +0.051 A 
ATOM     16  C   UNL     1      -1.602   3.248  -0.651  0.00  0.00    +0.025 A 
ATOM     17  C   UNL     1      -2.776   3.959  -0.497  0.00  0.00    +0.005 A 
ATOM     18  C   UNL     1      -3.794   3.452   0.290  0.00  0.00    -0.050 A 
ATOM     19  C   UNL     1      -3.641   2.233   0.925  0.00  0.00    +0.008 A 
ATOM     20  C   UNL     1      -2.471   1.515   0.771  0.00  0.00    -0.028 A 
ATOM     21  C   UNL     1      -2.307   0.184   1.458  0.00  0.00    +0.046 C 
ATOM     22  C   UNL     1      -5.074   4.230   0.455  0.00  0.00    +0.044 C 
ENDBRANCH  13  15
ENDBRANCH  10  13
ENDBRANCH   4  10
BRANCH   1  23
ATOM     23  N   UNL     1       1.903   5.181   4.723  0.00  0.00    -0.262 N 
ATOM     24  H   UNL     1       2.279   4.751   5.507  0.00  0.00    +0.170 HD
BRANCH  23  27
ATOM     25  C   UNL     1       1.690   7.230   5.916  0.00  0.00    +0.260 C 
ATOM     26  O   UNL     1       2.162   6.692   6.898  0.00  0.00    -0.269 OA
ATOM     27  N   UNL     1       1.528   6.529   4.776  0.00  0.00    -0.232 N 
ATOM     28  H   UNL     1       1.151   6.959   3.992  0.00  0.00    +0.173 HD
BRANCH  25  32
ATOM     29  C   UNL     1       0.554  11.320   6.075  0.00  0.00    -0.048 A 
ATOM     30  C   UNL     1       1.091  10.710   7.195  0.00  0.00    +0.004 A 
ATOM     31  C   UNL     1       1.461   9.382   7.150  0.00  0.00    +0.013 A 
ATOM     32  C   UNL     1       1.294   8.654   5.971  0.00  0.00    +0.038 A 
ATOM     33  C   UNL     1       0.758   9.276   4.844  0.00  0.00    +0.013 A 
ATOM     34  C   UNL     1       0.386  10.604   4.904  0.00  0.00    +0.004 A 
BRANCH  29  36
ATOM     35  C   UNL     1       1.337  13.647   5.727  0.00  0.00    +0.009 C 
ATOM     36  C   UNL     1       0.150  12.771   6.132  0.00  0.00    +0.032 C 
ENDBRANCH  29  36
ENDBRANCH  25  32
ENDBRANCH  23  27
ENDBRANCH   1  23
TORSDOF 8
