REMARK  Name = ZINC12024070
REMARK  5 active torsions:
REMARK  status: ('A' for Active; 'I' for Inactive)
REMARK    1  A    between atoms: C_1  and  C_2
REMARK    2  A    between atoms: N_8  and  C_11
REMARK    3  A    between atoms: C_14  and  C_18
REMARK    4  A    between atoms: N_20  and  C_21
REMARK    5  A    between atoms: C_21  and  C_22
REMARK                            x       y       z     vdW  Elec       q    Type
REMARK                         _______ _______ _______ _____ _____    ______ ____
ROOT
ATOM      1  C   UNL     1      -9.565   1.984   0.081  0.00  0.00    +0.061 A 
ATOM      2  C   UNL     1      -8.431   2.588   0.614  0.00  0.00    +0.026 A 
ATOM      3  C   UNL     1      -7.181   2.237   0.155  0.00  0.00    +0.016 A 
ATOM      4  C   UNL     1      -7.053   1.281  -0.856  0.00  0.00    +0.055 A 
ATOM      5  C   UNL     1      -8.195   0.676  -1.390  0.00  0.00    +0.055 A 
ATOM      6  C   UNL     1      -9.443   1.028  -0.921  0.00  0.00    +0.046 A 
ATOM      7 CL   UNL     1      -8.042  -0.518  -2.642  0.00  0.00    -0.083 Cl
ENDROOT
BRANCH   1  14
ATOM      8  C   UNL     1     -13.618   4.086   0.005  0.00  0.00    +0.019 C 
ATOM      9  C   UNL     1     -13.244   2.701   0.537  0.00  0.00    +0.097 C 
ATOM     10  C   UNL     1     -13.004   2.778   2.068  0.00  0.00    +0.201 C 
ATOM     11  S   UNL     1     -11.174   2.970   2.065  0.00  0.00    +0.053 S 
ATOM     12  O   UNL     1     -10.569   2.086   2.999  0.00  0.00    -0.155 OA
ATOM     13  O   UNL     1     -10.808   4.342   2.000  0.00  0.00    -0.155 OA
ATOM     14  N   UNL     1     -10.829   2.338   0.553  0.00  0.00    -0.143 N 
ATOM     15  C   UNL     1     -11.982   2.237  -0.125  0.00  0.00    +0.243 C 
ATOM     16  O   UNL     1     -12.003   1.778  -1.247  0.00  0.00    -0.273 OA
ENDBRANCH   1  14
BRANCH   4  17
ATOM     17  C   UNL     1      -5.716   0.907  -1.355  0.00  0.00    +0.246 C 
ATOM     18  O   UNL     1      -5.606   0.071  -2.231  0.00  0.00    -0.270 OA
ATOM     19  N   UNL     1      -4.617   1.492  -0.839  0.00  0.00    -0.309 N 
ATOM     20  H   UNL     1      -4.704   2.158  -0.140  0.00  0.00    +0.149 HD
BRANCH  19  21
ATOM     21  C   UNL     1      -3.289   1.120  -1.334  0.00  0.00    +0.136 C 
BRANCH  21  22
ATOM     22  C   UNL     1      -2.223   1.924  -0.587  0.00  0.00    +0.135 C 
ATOM     23  C   UNL     1      -0.833   1.634  -1.185  0.00  0.00    +0.035 C 
ATOM     24  C   UNL     1      -0.013   1.086   0.008  0.00  0.00    +0.031 C 
ATOM     25  C   UNL     1      -0.810   1.621   1.224  0.00  0.00    +0.160 C 
ATOM     26  O   UNL     1      -2.186   1.524   0.793  0.00  0.00    -0.375 OA
ENDBRANCH  21  22
ENDBRANCH  19  21
ENDBRANCH   4  17
TORSDOF 4
