REMARK  Name = ZINC02080232
REMARK  9 active torsions:
REMARK  status: ('A' for Active; 'I' for Inactive)
REMARK    1  A    between atoms: C_1  and  C_2
REMARK    2  A    between atoms: C_5  and  C_8
REMARK    3  A    between atoms: C_9  and  C_19
REMARK    4  A    between atoms: N_11  and  C_13
REMARK    5  A    between atoms: N_20  and  N_21
REMARK    6  A    between atoms: C_22  and  C_24
REMARK    7  A    between atoms: C_24  and  C_26
REMARK    8  A    between atoms: C_24  and  O_27
REMARK    9  A    between atoms: O_27  and  C_28
REMARK                            x       y       z     vdW  Elec       q    Type
REMARK                         _______ _______ _______ _____ _____    ______ ____
ROOT
ATOM      1  C   UNL     1       4.539   8.116  -1.672  0.00  0.00    +0.142 C 
ATOM      2  N   UNL     1       3.467   7.386  -1.627  0.00  0.00    -0.188 NA
ENDROOT
BRANCH   1   4
ATOM      3  C   UNL     1       3.217  10.306  -2.271  0.00  0.00    +0.102 A 
ATOM      4  C   UNL     1       4.445   9.541  -2.038  0.00  0.00    +0.040 A 
ATOM      5  C   UNL     1       5.487  10.408  -2.220  0.00  0.00    +0.124 A 
ATOM      6  N   UNL     1       4.976  11.612  -2.549  0.00  0.00    -0.239 N 
ATOM      7  N   UNL     1       3.580  11.534  -2.573  0.00  0.00    -0.166 NA
BRANCH   3  12
ATOM      8  C   UNL     1      -2.174   8.313  -1.933  0.00  0.00    +0.044 C 
ATOM      9  C   UNL     1      -0.763   8.835  -2.021  0.00  0.00    -0.050 A 
ATOM     10  C   UNL     1       0.155   8.508  -1.040  0.00  0.00    +0.004 A 
ATOM     11  C   UNL     1       1.449   8.982  -1.115  0.00  0.00    +0.010 A 
ATOM     12  C   UNL     1       1.829   9.793  -2.184  0.00  0.00    +0.003 A 
ATOM     13  C   UNL     1       0.898  10.124  -3.167  0.00  0.00    +0.010 A 
ATOM     14  C   UNL     1      -0.391   9.639  -3.084  0.00  0.00    +0.004 A 
ENDBRANCH   3  12
BRANCH   6  15
ATOM     15  C   UNL     1       5.726  12.763  -2.819  0.00  0.00    +0.065 A 
ATOM     16  C   UNL     1       7.113  12.720  -2.759  0.00  0.00    +0.028 A 
ATOM     17  C   UNL     1       7.850  13.855  -3.032  0.00  0.00    +0.002 A 
ATOM     18  C   UNL     1       7.209  15.037  -3.353  0.00  0.00    +0.000 A 
ATOM     19  C   UNL     1       5.828  15.085  -3.409  0.00  0.00    +0.002 A 
ATOM     20  C   UNL     1       5.085  13.952  -3.143  0.00  0.00    +0.028 A 
ENDBRANCH   6  15
ENDBRANCH   1   4
BRANCH   2  21
ATOM     21  N   UNL     1       3.556   6.032  -1.279  0.00  0.00    -0.204 N 
ATOM     22  C   UNL     1       2.442   5.273  -1.233  0.00  0.00    +0.273 C 
ATOM     23  O   UNL     1       1.363   5.763  -1.493  0.00  0.00    -0.270 OA
ATOM     24  H   UNL     1       4.418   5.640  -1.072  0.00  0.00    +0.177 HD
BRANCH  22  25
ATOM     25  C   UNL     1       2.538   3.817  -0.859  0.00  0.00    +0.257 C 
ATOM     26  C   UNL     1       3.013   3.692   0.590  0.00  0.00    +0.062 C 
BRANCH  25  27
ATOM     27  O   UNL     1       1.254   3.205  -0.993  0.00  0.00    -0.478 OA
BRANCH  27  28
ATOM     28  C   UNL     1       1.228   1.863  -1.203  0.00  0.00    +0.147 A 
ATOM     29  C   UNL     1       2.388   1.141  -1.173  0.00  0.00    +0.048 A 
ATOM     30  C   UNL     1       2.382  -0.234  -1.386  0.00  0.00    +0.004 A 
ATOM     31  C   UNL     1       1.219  -0.900  -1.631  0.00  0.00    +0.010 A 
ATOM     32  C   UNL     1       0.007  -0.193  -1.669  0.00  0.00    +0.004 A 
ATOM     33  C   UNL     1       0.005   1.207  -1.453  0.00  0.00    +0.112 A 
ATOM     34  N   UNL     1      -1.147   1.884  -1.483  0.00  0.00    -0.251 NA
ATOM     35  C   UNL     1      -2.286   1.280  -1.720  0.00  0.00    +0.111 A 
ATOM     36  C   UNL     1      -2.355  -0.094  -1.941  0.00  0.00    +0.020 A 
ATOM     37  C   UNL     1      -1.215  -0.846  -1.919  0.00  0.00    +0.011 A 
ENDBRANCH  27  28
ENDBRANCH  25  27
ENDBRANCH  22  25
ENDBRANCH   2  21
TORSDOF 7
