REMARK  Name = ZINC09332234
REMARK  12 active torsions:
REMARK  status: ('A' for Active; 'I' for Inactive)
REMARK    1  A    between atoms: C_1  and  C_2
REMARK    2  A    between atoms: C_2  and  N_3
REMARK    3  A    between atoms: C_6  and  C_22
REMARK    4  A    between atoms: N_8  and  C_11
REMARK    5  A    between atoms: C_11  and  C_12
REMARK    6  A    between atoms: C_12  and  N_13
REMARK    7  A    between atoms: N_13  and  C_14
REMARK    8  A    between atoms: C_17  and  N_19
REMARK    9  A    between atoms: C_22  and  C_23
REMARK   10  A    between atoms: N_25  and  C_26
REMARK   11  A    between atoms: C_29  and  O_32
REMARK   12  A    between atoms: O_32  and  C_33
REMARK                            x       y       z     vdW  Elec       q    Type
REMARK                         _______ _______ _______ _____ _____    ______ ____
ROOT
ATOM      1  N   UNL     1       1.108   2.620   0.030  0.00  0.00    -0.252 N 
ATOM      2  C   UNL     1       0.727   3.913   0.000  0.00  0.00    +0.242 C 
ATOM      3  O   UNL     1       1.447   4.888  -0.035  0.00  0.00    -0.273 OA
ATOM      4  C   UNL     1      -0.789   3.894   0.019  0.00  0.00    +0.170 C 
ATOM      5  N   UNL     1      -1.116   2.458   0.055  0.00  0.00    -0.299 N 
ATOM      6  C   UNL     1       0.055   1.796   0.065  0.00  0.00    +0.143 C 
ATOM      7  S   UNL     1       0.183   0.089   0.109  0.00  0.00    -0.018 S 
ENDROOT
BRANCH   1   9
ATOM      8  C   UNL     1       2.972   1.980  -1.417  0.00  0.00    +0.025 C 
ATOM      9  C   UNL     1       2.503   2.174   0.026  0.00  0.00    +0.112 C 
ENDBRANCH   1   9
BRANCH   5  10
ATOM     10  C   UNL     1      -2.456   1.866   0.080  0.00  0.00    +0.126 C 
BRANCH  10  11
ATOM     11  C   UNL     1      -2.929   1.732   1.528  0.00  0.00    +0.122 C 
BRANCH  11  12
ATOM     12  N   UNL     1      -4.269   1.140   1.553  0.00  0.00    -0.329 N 
ATOM     13  H   UNL     1      -4.709   0.903   0.722  0.00  0.00    +0.147 HD
BRANCH  12  14
ATOM     14  C   UNL     1      -4.909   0.919   2.766  0.00  0.00    +0.096 A 
ATOM     15  C   UNL     1      -4.270   1.257   3.955  0.00  0.00    +0.044 A 
ATOM     16  C   UNL     1      -4.921   1.037   5.155  0.00  0.00    +0.037 A 
ATOM     17  C   UNL     1      -6.190   0.474   5.127  0.00  0.00    +0.142 A 
ATOM     18  C   UNL     1      -6.763   0.158   3.911  0.00  0.00    +0.116 A 
ATOM     19  N   UNL     1      -6.155   0.365   2.713  0.00  0.00    -0.348 N 
ATOM     20  H   UNL     1      -6.605   0.120   1.823  0.00  0.00    +0.167 HD
BRANCH  17  21
ATOM     21  N   UNL     1      -6.921   0.215   6.387  0.00  0.00    +0.058 N 
ATOM     22  O   UNL     1      -8.034  -0.279   6.356  0.00  0.00    -0.126 OA
ATOM     23  O   UNL     1      -6.410   0.497   7.457  0.00  0.00    -0.126 OA
ENDBRANCH  17  21
ENDBRANCH  12  14
ENDBRANCH  11  12
ENDBRANCH  10  11
ENDBRANCH   5  10
BRANCH   4  24
ATOM     24  C   UNL     1      -1.351   4.537  -1.250  0.00  0.00    +0.128 C 
BRANCH  24  25
ATOM     25  C   UNL     1      -1.018   6.007  -1.258  0.00  0.00    +0.219 C 
ATOM     26  O   UNL     1      -0.496   6.516  -0.288  0.00  0.00    -0.275 OA
ATOM     27  N   UNL     1      -1.301   6.756  -2.342  0.00  0.00    -0.285 N 
ATOM     28  H   UNL     1      -1.786   6.368  -3.087  0.00  0.00    +0.155 HD
BRANCH  27  29
ATOM     29  C   UNL     1      -0.894   8.096  -2.393  0.00  0.00    +0.034 A 
ATOM     30  C   UNL     1      -1.671   9.032  -3.062  0.00  0.00    +0.027 A 
ATOM     31  C   UNL     1      -1.271  10.354  -3.108  0.00  0.00    +0.047 A 
ATOM     32  C   UNL     1      -0.089  10.743  -2.495  0.00  0.00    +0.120 A 
ATOM     33  C   UNL     1       0.690   9.807  -1.831  0.00  0.00    +0.047 A 
ATOM     34  C   UNL     1       0.289   8.486  -1.780  0.00  0.00    +0.027 A 
BRANCH  32  35
ATOM     35  O   UNL     1       0.306  12.043  -2.546  0.00  0.00    -0.495 OA
ATOM     36  C   UNL     1      -0.544  12.953  -3.247  0.00  0.00    +0.277 C 
ENDBRANCH  32  35
ENDBRANCH  27  29
ENDBRANCH  24  25
ENDBRANCH   4  24
TORSDOF 10
