REMARK  Name = ZINC63416435
REMARK  6 active torsions:
REMARK  status: ('A' for Active; 'I' for Inactive)
REMARK    1  A    between atoms: C_1  and  C_2
REMARK    2  A    between atoms: C_4  and  C_16
REMARK    3  A    between atoms: C_19  and  O_22
REMARK    4  A    between atoms: C_23  and  O_25
REMARK    5  A    between atoms: O_25  and  C_26
REMARK    6  A    between atoms: C_26  and  C_27
REMARK                            x       y       z     vdW  Elec       q    Type
REMARK                         _______ _______ _______ _____ _____    ______ ____
ROOT
ATOM      1  C   UNL     1      -0.018   1.503   0.010  0.00  0.00    +0.066 C 
ATOM      2  C   UNL     1       0.002  -0.004   0.002  0.00  0.00    +0.051 C 
ATOM      3  C   UNL     1      -1.196  -0.704   0.004  0.00  0.00    +0.066 C 
ATOM      4  C   UNL     1      -1.178  -2.214  -0.069  0.00  0.00    +0.077 C 
ATOM      5  C   UNL     1       0.045  -2.722   0.684  0.00  0.00    +0.153 C 
ATOM      6  C   UNL     1       1.245  -1.941   0.195  0.00  0.00    +0.137 C 
ATOM      7  N   UNL     1       2.344  -2.621  -0.084  0.00  0.00    -0.147 NA
ATOM      8  C   UNL     1       2.381  -3.951  -0.026  0.00  0.00    +0.331 C 
ATOM      9  O   UNL     1       3.459  -4.491  -0.192  0.00  0.00    -0.250 OA
ATOM     10  N   UNL     1       1.323  -4.741   0.199  0.00  0.00    -0.238 N 
ATOM     11  C   UNL     1       0.112  -4.229   0.555  0.00  0.00    +0.232 C 
ATOM     12  O   UNL     1      -0.857  -4.931   0.751  0.00  0.00    -0.275 OA
ATOM     13  N   UNL     1       1.162  -0.640  -0.013  0.00  0.00    -0.238 NA
ATOM     14  C   UNL     1      -2.397  -0.025   0.073  0.00  0.00    +0.338 C 
ATOM     15  O   UNL     1      -2.408   1.320   0.138  0.00  0.00    -0.245 OA
ATOM     16  H   UNL     1       1.422  -5.702   0.113  0.00  0.00    +0.159 HD
ENDROOT
BRANCH   4  17
ATOM     17  C   UNL     1      -2.431  -2.766   0.561  0.00  0.00    -0.038 A 
ATOM     18  C   UNL     1      -2.713  -2.496   1.888  0.00  0.00    +0.008 A 
ATOM     19  C   UNL     1      -3.860  -3.001   2.468  0.00  0.00    +0.045 A 
ATOM     20  C   UNL     1      -4.730  -3.779   1.719  0.00  0.00    +0.117 A 
ATOM     21  C   UNL     1      -4.446  -4.048   0.388  0.00  0.00    +0.045 A 
ATOM     22  C   UNL     1      -3.300  -3.537  -0.189  0.00  0.00    +0.008 A 
BRANCH  20  23
ATOM     23  O   UNL     1      -5.859  -4.278   2.288  0.00  0.00    -0.507 OA
ATOM     24  H   UNL     1      -6.628  -3.696   2.211  0.00  0.00    +0.292 HD
ENDBRANCH  20  23
ENDBRANCH   4  17
BRANCH  14  25
ATOM     25  O   UNL     1      -3.558  -0.709   0.074  0.00  0.00    -0.457 OA
BRANCH  25  26
ATOM     26  C   UNL     1      -4.762   0.057   0.147  0.00  0.00    +0.259 C 
BRANCH  26  27
ATOM     27  C   UNL     1      -5.949  -0.871   0.138  0.00  0.00    +0.006 C 
ATOM     28  C   UNL     1      -6.934  -0.682   0.980  0.00  0.00    +0.007 C 
ENDBRANCH  26  27
ENDBRANCH  25  26
ENDBRANCH  14  25
TORSDOF 5
