REMARK  Name = ZINC20591827
REMARK  5 active torsions:
REMARK  status: ('A' for Active; 'I' for Inactive)
REMARK    1  A    between atoms: C_1  and  C_2
REMARK    2  A    between atoms: C_5  and  S_14
REMARK    3  A    between atoms: N_6  and  C_7
REMARK    4  A    between atoms: S_14  and  C_15
REMARK    5  A    between atoms: C_15  and  C_16
REMARK                            x       y       z     vdW  Elec       q    Type
REMARK                         _______ _______ _______ _____ _____    ______ ____
ROOT
ATOM      1  C   UNL     1       1.811   3.168   0.001  0.00  0.00    +0.088 C 
ATOM      2  C   UNL     1       1.297   1.751  -0.001  0.00  0.00    +0.135 A 
ATOM      3  N   UNL     1       2.021   0.667  -0.014  0.00  0.00    -0.133 NA
ATOM      4  N   UNL     1       1.263  -0.371  -0.012  0.00  0.00    -0.122 NA
ATOM      5  C   UNL     1       0.002  -0.004   0.002  0.00  0.00    +0.197 A 
ATOM      6  N   UNL     1      -0.017   1.364   0.009  0.00  0.00    -0.274 N 
ENDROOT
BRANCH   6   7
ATOM      7  C   UNL     1      -1.145   2.196   0.020  0.00  0.00    +0.050 A 
ATOM      8  C   UNL     1      -1.406   3.027  -1.061  0.00  0.00    +0.027 A 
ATOM      9  C   UNL     1      -2.522   3.842  -1.051  0.00  0.00    +0.016 A 
ATOM     10  C   UNL     1      -3.372   3.838   0.040  0.00  0.00    +0.014 A 
ATOM     11  C   UNL     1      -3.112   3.015   1.120  0.00  0.00    +0.016 A 
ATOM     12  C   UNL     1      -2.001   2.194   1.113  0.00  0.00    +0.027 A 
ATOM     13  I   UNL     1      -5.058   5.082   0.055  0.00  0.00    -0.044 I 
ENDBRANCH   6   7
BRANCH   5  14
ATOM     14  S   UNL     1      -1.400  -1.071   0.011  0.00  0.00    -0.074 S 
BRANCH  14  15
ATOM     15  C   UNL     1      -0.570  -2.680  -0.006  0.00  0.00    +0.202 C 
BRANCH  15  16
ATOM     16  C   UNL     1      -1.603  -3.778  -0.002  0.00  0.00    +0.366 C 
ATOM     17  O   UNL     1      -2.779  -3.501   0.011  0.00  0.00    -0.245 OA
ATOM     18  O   UNL     1      -1.216  -5.063  -0.013  0.00  0.00    -0.245 OA
ENDBRANCH  15  16
ENDBRANCH  14  15
ENDBRANCH   5  14
TORSDOF 4
