REMARK  Name = ZINC14548057
REMARK  7 active torsions:
REMARK  status: ('A' for Active; 'I' for Inactive)
REMARK    1  A    between atoms: C_1  and  C_2
REMARK    2  A    between atoms: C_6  and  C_39
REMARK    3  A    between atoms: C_7  and  N_8
REMARK    4  A    between atoms: N_8  and  S_9
REMARK    5  A    between atoms: S_9  and  C_12
REMARK    6  A    between atoms: C_25  and  C_28
REMARK    7  A    between atoms: C_37  and  O_38
REMARK                            x       y       z     vdW  Elec       q    Type
REMARK                         _______ _______ _______ _____ _____    ______ ____
ROOT
ATOM      1  C   UNL     1       2.677  -6.469  -0.553  0.00  0.00    +0.109 A 
ATOM      2  C   UNL     1       2.727  -5.875   0.694  0.00  0.00    +0.030 A 
ATOM      3  C   UNL     1       2.942  -4.516   0.807  0.00  0.00    +0.025 A 
ATOM      4  C   UNL     1       3.111  -3.736  -0.331  0.00  0.00    +0.031 A 
ATOM      5  C   UNL     1       3.072  -4.346  -1.589  0.00  0.00    -0.018 A 
ATOM      6  C   UNL     1       2.849  -5.702  -1.691  0.00  0.00    +0.034 A 
ATOM      7  C   UNL     1       3.298  -3.487  -2.772  0.00  0.00    +0.049 C 
ATOM      8  C   UNL     1       2.730  -3.819  -4.104  0.00  0.00    -0.023 C 
ATOM      9  C   UNL     1       2.493  -2.705  -4.764  0.00  0.00    -0.030 C 
ATOM     10  C   UNL     1       2.827  -1.500  -3.883  0.00  0.00    +0.033 C 
ATOM     11  C   UNL     1       2.670  -2.092  -2.476  0.00  0.00    +0.029 C 
ATOM     12  C   UNL     1       3.521  -1.491  -1.372  0.00  0.00    +0.109 C 
ATOM     13  N   UNL     1       3.312  -2.357  -0.191  0.00  0.00    -0.336 N 
ATOM     14  H   UNL     1       3.315  -1.963   0.695  0.00  0.00    +0.147 HD
ENDROOT
BRANCH  12  15
ATOM     15  C   UNL     1       4.973  -1.498  -1.772  0.00  0.00    +0.022 A 
ATOM     16  C   UNL     1       5.890  -2.314  -1.090  0.00  0.00    -0.009 A 
ATOM     17  C   UNL     1       5.482  -3.139  -0.027  0.00  0.00    +0.009 A 
ATOM     18  C   UNL     1       6.398  -3.917   0.612  0.00  0.00    +0.001 A 
ATOM     19  C   UNL     1       7.737  -3.910   0.228  0.00  0.00    +0.001 A 
ATOM     20  C   UNL     1       8.169  -3.125  -0.796  0.00  0.00    +0.008 A 
ATOM     21  C   UNL     1       7.253  -2.308  -1.480  0.00  0.00    -0.017 A 
ATOM     22  C   UNL     1       7.663  -1.484  -2.543  0.00  0.00    +0.012 A 
ATOM     23  C   UNL     1       6.751  -0.705  -3.184  0.00  0.00    +0.046 A 
ATOM     24  C   UNL     1       5.406  -0.710  -2.800  0.00  0.00    +0.122 A 
BRANCH  24  25
ATOM     25  O   UNL     1       4.519   0.080  -3.460  0.00  0.00    -0.506 OA
ATOM     26  H   UNL     1       4.477   0.988  -3.128  0.00  0.00    +0.292 HD
ENDBRANCH  24  25
ENDBRANCH  12  15
BRANCH   1  27
ATOM     27  S   UNL     1       2.395  -8.203  -0.693  0.00  0.00    +0.072 S 
ATOM     28  O   UNL     1       1.622  -8.581   0.437  0.00  0.00    -0.150 OA
ATOM     29  O   UNL     1       1.962  -8.438  -2.026  0.00  0.00    -0.150 OA
BRANCH  27  30
ATOM     30  N   UNL     1       3.864  -8.952  -0.534  0.00  0.00    -0.216 N 
ATOM     31  H   UNL     1       4.334  -9.269  -1.321  0.00  0.00    +0.174 HD
BRANCH  30  38
ATOM     32  C   UNL     1       5.551  -6.898   0.481  0.00  0.00    +0.046 C 
ATOM     33  C   UNL     1       5.255  -8.149   1.267  0.00  0.00    -0.028 A 
ATOM     34  C   UNL     1       5.804  -8.322   2.522  0.00  0.00    +0.005 A 
ATOM     35  C   UNL     1       5.538  -9.473   3.242  0.00  0.00    +0.001 A 
ATOM     36  C   UNL     1       4.717 -10.450   2.711  0.00  0.00    +0.005 A 
ATOM     37  C   UNL     1       4.160 -10.281   1.459  0.00  0.00    -0.028 A 
ATOM     38  C   UNL     1       4.425  -9.126   0.733  0.00  0.00    +0.054 A 
ATOM     39  C   UNL     1       3.265 -11.347   0.880  0.00  0.00    +0.046 C 
ENDBRANCH  30  38
ENDBRANCH  27  30
ENDBRANCH   1  27
TORSDOF 5
