REMARK  Name = ZINC08595265
REMARK  7 active torsions:
REMARK  status: ('A' for Active; 'I' for Inactive)
REMARK    1  A    between atoms: C_1  and  C_2
REMARK    2  A    between atoms: C_4  and  C_35
REMARK    3  A    between atoms: C_5  and  N_9
REMARK    4  A    between atoms: C_6  and  C_8
REMARK    5  A    between atoms: C_10  and  C_12
REMARK    6  A    between atoms: C_12  and  N_13
REMARK    7  A    between atoms: N_23  and  C_28
REMARK                            x       y       z     vdW  Elec       q    Type
REMARK                         _______ _______ _______ _____ _____    ______ ____
ROOT
ATOM      1  N   UNL     1       2.011  -6.941   2.668  0.00  0.00    -0.259 N 
ATOM      2  C   UNL     1       3.150  -7.412   3.327  0.00  0.00    +0.043 A 
ATOM      3  C   UNL     1       4.491  -7.392   2.954  0.00  0.00    +0.024 A 
ATOM      4  C   UNL     1       5.452  -7.928   3.785  0.00  0.00    +0.002 A 
ATOM      5  C   UNL     1       5.092  -8.490   4.997  0.00  0.00    +0.000 A 
ATOM      6  C   UNL     1       3.762  -8.513   5.377  0.00  0.00    +0.009 A 
ATOM      7  C   UNL     1       2.799  -7.978   4.551  0.00  0.00    +0.017 A 
ATOM      8  C   UNL     1       1.311  -7.835   4.647  0.00  0.00    +0.192 C 
ATOM      9  C   UNL     1       0.887  -7.149   3.383  0.00  0.00    +0.259 C 
ATOM     10  O   UNL     1      -0.243  -6.843   3.067  0.00  0.00    -0.272 OA
ATOM     11  N   UNL     1       0.619  -9.097   4.886  0.00  0.00    -0.243 N 
ATOM     12  C   UNL     1      -0.327  -9.142   5.824  0.00  0.00    +0.231 C 
ATOM     13  O   UNL     1      -0.923 -10.170   6.067  0.00  0.00    -0.274 OA
ATOM     14  C   UNL     1      -0.631  -7.855   6.577  0.00  0.00    +0.168 C 
ATOM     15  S   UNL     1       0.841  -6.839   6.114  0.00  0.00    -0.111 S 
ENDROOT
BRANCH  11  16
ATOM     16  C   UNL     1       0.943 -10.239   4.145  0.00  0.00    +0.039 A 
ATOM     17  C   UNL     1       0.357 -10.452   2.904  0.00  0.00    +0.026 A 
ATOM     18  C   UNL     1       0.678 -11.579   2.174  0.00  0.00    +0.040 A 
ATOM     19  C   UNL     1       1.583 -12.498   2.679  0.00  0.00    +0.124 A 
ATOM     20  C   UNL     1       2.168 -12.288   3.916  0.00  0.00    +0.040 A 
ATOM     21  C   UNL     1       1.855 -11.159   4.646  0.00  0.00    +0.026 A 
ATOM     22  F   UNL     1       1.895 -13.601   1.963  0.00  0.00    -0.205 F 
ENDBRANCH  11  16
BRANCH   1  23
ATOM     23  C   UNL     1       2.037  -6.291   1.355  0.00  0.00    +0.209 C 
BRANCH  23  25
ATOM     24  N   UNL     1       2.263  -3.998   0.455  0.00  0.00    -0.284 N 
ATOM     25  C   UNL     1       2.211  -4.805   1.533  0.00  0.00    +0.235 C 
ATOM     26  O   UNL     1       2.305  -4.334   2.647  0.00  0.00    -0.274 OA
ATOM     27  H   UNL     1       2.110  -4.362  -0.431  0.00  0.00    +0.155 HD
BRANCH  24  32
ATOM     28  C   UNL     1       3.377   1.528   1.095  0.00  0.00    +0.044 C 
ATOM     29  C   UNL     1       3.081   0.060   0.925  0.00  0.00    -0.050 A 
ATOM     30  C   UNL     1       3.881  -0.715   0.105  0.00  0.00    +0.008 A 
ATOM     31  C   UNL     1       3.613  -2.060  -0.052  0.00  0.00    -0.029 A 
ATOM     32  C   UNL     1       2.538  -2.635   0.613  0.00  0.00    +0.039 A 
ATOM     33  C   UNL     1       1.736  -1.855   1.436  0.00  0.00    -0.029 A 
ATOM     34  C   UNL     1       2.013  -0.511   1.593  0.00  0.00    +0.008 A 
ATOM     35  C   UNL     1       0.569  -2.474   2.160  0.00  0.00    +0.045 C 
ATOM     36  C   UNL     1       4.485  -2.903  -0.947  0.00  0.00    +0.045 C 
ENDBRANCH  24  32
ENDBRANCH  23  25
ENDBRANCH   1  23
TORSDOF 4
