REMARK  Name = ZINC09434889
REMARK  5 active torsions:
REMARK  status: ('A' for Active; 'I' for Inactive)
REMARK    1  A    between atoms: C_4  and  C_7
REMARK    2  A    between atoms: C_12  and  C_30
REMARK    3  A    between atoms: C_18  and  C_22
REMARK    4  A    between atoms: C_22  and  C_24
REMARK    5  A    between atoms: C_33  and  N_36
REMARK                            x       y       z     vdW  Elec       q    Type
REMARK                         _______ _______ _______ _____ _____    ______ ____
ROOT
ATOM      1  C   UNL     1       0.095  -1.110  -1.750  0.00  0.00    +0.032 C 
ATOM      2  C   UNL     1       1.168  -1.470  -2.776  0.00  0.00    +0.059 C 
ATOM      3  C   UNL     1       2.437  -0.681  -2.497  0.00  0.00    +0.017 C 
ATOM      4  C   UNL     1       2.369   0.555  -1.975  0.00  0.00    +0.036 C 
ATOM      5  C   UNL     1       3.545   1.445  -1.653  0.00  0.00    +0.136 C 
ATOM      6  N   UNL     1       4.811   0.988  -2.186  0.00  0.00    -0.331 N 
ATOM      7  C   UNL     1       5.385  -0.197  -1.753  0.00  0.00    +0.049 A 
ATOM      8  C   UNL     1       6.559  -0.201  -1.010  0.00  0.00    +0.025 A 
ATOM      9  C   UNL     1       7.040  -1.388  -0.501  0.00  0.00    +0.013 A 
ATOM     10  C   UNL     1       6.352  -2.584  -0.731  0.00  0.00    +0.024 A 
ATOM     11  C   UNL     1       5.180  -2.580  -1.499  0.00  0.00    +0.036 A 
ATOM     12  C   UNL     1       4.718  -1.389  -2.018  0.00  0.00    +0.053 A 
ATOM     13  N   UNL     1       3.588  -1.320  -2.826  0.00  0.00    -0.316 N 
ATOM     14  C   UNL     1       1.114   1.130  -1.663  0.00  0.00    +0.163 C 
ATOM     15  O   UNL     1       1.081   2.259  -1.216  0.00  0.00    -0.292 OA
ATOM     16  C   UNL     1      -0.176   0.395  -1.867  0.00  0.00    +0.088 C 
ATOM     17  H   UNL     1       5.264   1.520  -2.858  0.00  0.00    +0.147 HD
ATOM     18  H   UNL     1       3.626  -1.760  -3.689  0.00  0.00    +0.152 HD
ENDROOT
BRANCH   1  22
ATOM     19  C   UNL     1      -3.484  -3.294  -2.567  0.00  0.00    +0.000 A 
ATOM     20  C   UNL     1      -2.862  -3.421  -1.339  0.00  0.00    +0.000 A 
ATOM     21  C   UNL     1      -1.704  -2.715  -1.075  0.00  0.00    +0.004 A 
ATOM     22  C   UNL     1      -1.168  -1.881  -2.038  0.00  0.00    -0.044 A 
ATOM     23  C   UNL     1      -1.793  -1.748  -3.264  0.00  0.00    +0.004 A 
ATOM     24  C   UNL     1      -2.949  -2.459  -3.530  0.00  0.00    +0.000 A 
ENDBRANCH   1  22
BRANCH   5  25
ATOM     25  C   UNL     1       3.669   1.549  -0.154  0.00  0.00    -0.023 A 
ATOM     26  C   UNL     1       3.977   0.427   0.593  0.00  0.00    +0.008 A 
ATOM     27  C   UNL     1       4.094   0.523   1.967  0.00  0.00    +0.033 A 
ATOM     28  C   UNL     1       3.895   1.739   2.595  0.00  0.00    +0.126 A 
ATOM     29  C   UNL     1       3.582   2.859   1.848  0.00  0.00    +0.033 A 
ATOM     30  C   UNL     1       3.469   2.764   0.473  0.00  0.00    +0.008 A 
BRANCH  28  31
ATOM     31  N   UNL     1       4.017   1.841   4.066  0.00  0.00    +0.056 N 
ATOM     32  O   UNL     1       3.842   2.912   4.619  0.00  0.00    -0.126 OA
ATOM     33  O   UNL     1       4.293   0.853   4.724  0.00  0.00    -0.126 OA
ENDBRANCH  28  31
ENDBRANCH   5  25
BRANCH  10  34
ATOM     34  C   UNL     1       6.859  -3.847  -0.166  0.00  0.00    +0.193 C 
ATOM     35  O   UNL     1       8.056  -4.048  -0.104  0.00  0.00    -0.287 OA
BRANCH  34  36
ATOM     36  C   UNL     1       5.911  -4.870   0.325  0.00  0.00    +0.022 A 
ATOM     37  C   UNL     1       4.547  -4.581   0.406  0.00  0.00    +0.012 A 
ATOM     38  C   UNL     1       3.668  -5.542   0.860  0.00  0.00    +0.001 A 
ATOM     39  C   UNL     1       4.136  -6.786   1.246  0.00  0.00    +0.000 A 
ATOM     40  C   UNL     1       5.487  -7.077   1.174  0.00  0.00    +0.001 A 
ATOM     41  C   UNL     1       6.377  -6.127   0.716  0.00  0.00    +0.012 A 
ENDBRANCH  34  36
ENDBRANCH  10  34
TORSDOF 5
