REMARK  Name = ZINC38932729
REMARK  7 active torsions:
REMARK  status: ('A' for Active; 'I' for Inactive)
REMARK    1  A    between atoms: C_4  and  C_7
REMARK    2  A    between atoms: N_9  and  C_10
REMARK    3  A    between atoms: C_10  and  C_12
REMARK    4  A    between atoms: C_10  and  C_24
REMARK    5  A    between atoms: N_26  and  N_27
REMARK    6  A    between atoms: C_28  and  C_29
REMARK    7  A    between atoms: C_32  and  N_34
REMARK                            x       y       z     vdW  Elec       q    Type
REMARK                         _______ _______ _______ _____ _____    ______ ____
ROOT
ATOM      1  C   UNL     1       4.994  -2.731  -0.029  0.00  0.00    +0.189 C 
ENDROOT
BRANCH   1   2
ATOM      2  C   UNL     1       4.996  -2.945  -1.544  0.00  0.00    +0.156 C 
ATOM      3  C   UNL     1       5.260  -1.611  -2.200  0.00  0.00    -0.009 A 
ATOM      4  C   UNL     1       6.385  -0.871  -1.945  0.00  0.00    +0.006 A 
ATOM      5  C   UNL     1       6.562   0.347  -2.585  0.00  0.00    +0.000 A 
ATOM      6  C   UNL     1       5.612   0.816  -3.476  0.00  0.00    +0.001 A 
ATOM      7  C   UNL     1       4.475   0.078  -3.740  0.00  0.00    +0.013 A 
ATOM      8  C   UNL     1       4.291  -1.145  -3.101  0.00  0.00    +0.045 A 
ATOM      9  C   UNL     1       3.102  -1.985  -3.336  0.00  0.00    +0.283 C 
ATOM     10  O   UNL     1       2.246  -1.607  -4.112  0.00  0.00    -0.267 OA
ATOM     11  N   UNL     1       2.951  -3.160  -2.706  0.00  0.00    -0.105 NA
ATOM     12  N   UNL     1       3.751  -3.639  -1.904  0.00  0.00    -0.305 N 
ATOM     13  H   UNL     1       3.555  -4.497  -1.498  0.00  0.00    +0.181 HD
ENDBRANCH   1   2
BRANCH   1  16
ATOM     14  C   UNL     1       3.679  -0.707   0.305  0.00  0.00    +0.245 C 
ATOM     15  O   UNL     1       4.634  -0.059  -0.076  0.00  0.00    -0.270 OA
ATOM     16  N   UNL     1       3.758  -2.051   0.366  0.00  0.00    -0.298 N 
ATOM     17  H   UNL     1       2.996  -2.568   0.671  0.00  0.00    +0.150 HD
BRANCH  14  21
ATOM     18  C   UNL     1       0.095   1.265   1.449  0.00  0.00    +0.000 A 
ATOM     19  C   UNL     1       1.180   2.006   1.015  0.00  0.00    +0.001 A 
ATOM     20  C   UNL     1       2.347   1.372   0.643  0.00  0.00    +0.013 A 
ATOM     21  C   UNL     1       2.432  -0.020   0.704  0.00  0.00    +0.037 A 
ATOM     22  C   UNL     1       1.333  -0.761   1.142  0.00  0.00    +0.013 A 
ATOM     23  C   UNL     1       0.172  -0.115   1.512  0.00  0.00    +0.001 A 
ENDBRANCH  14  21
ENDBRANCH   1  16
BRANCH   1  24
ATOM     24  C   UNL     1       5.077  -4.065   0.667  0.00  0.00    +0.255 C 
ATOM     25  O   UNL     1       4.072  -4.601   1.069  0.00  0.00    -0.272 OA
ATOM     26  N   UNL     1       6.274  -4.660   0.842  0.00  0.00    -0.205 N 
ATOM     27  H   UNL     1       7.088  -4.197   0.587  0.00  0.00    +0.177 HD
BRANCH  26  28
ATOM     28  N   UNL     1       6.338  -5.844   1.349  0.00  0.00    -0.187 NA
ATOM     29  C   UNL     1       7.521  -6.458   1.469  0.00  0.00    +0.145 C 
BRANCH  29  30
ATOM     30  C   UNL     1       7.579  -7.765   1.912  0.00  0.00    +0.034 A 
ATOM     31  C   UNL     1       8.765  -8.630   2.124  0.00  0.00    +0.019 A 
ATOM     32  C   UNL     1       8.480  -9.857   2.564  0.00  0.00    +0.041 A 
ATOM     33  C   UNL     1       7.142 -10.218   2.783  0.00  0.00    +0.164 A 
ATOM     34  S   UNL     1       6.248  -8.853   2.386  0.00  0.00    -0.064 S 
BRANCH  33  35
ATOM     35  N   UNL     1       6.624 -11.534   3.270  0.00  0.00    +0.063 N 
ATOM     36  O   UNL     1       7.463 -12.511   3.545  0.00  0.00    -0.126 OA
ATOM     37  O   UNL     1       5.329 -11.715   3.424  0.00  0.00    -0.126 OA
ENDBRANCH  33  35
ENDBRANCH  29  30
ENDBRANCH  26  28
ENDBRANCH   1  24
TORSDOF 7
