REMARK  Name = ZINC66833185
REMARK  9 active torsions:
REMARK  status: ('A' for Active; 'I' for Inactive)
REMARK    1  A    between atoms: C_1  and  C_2
REMARK    2  A    between atoms: C_2  and  C_4
REMARK    3  A    between atoms: C_2  and  N_17
REMARK    4  A    between atoms: N_6  and  C_7
REMARK    5  A    between atoms: C_12  and  S_13
REMARK    6  A    between atoms: S_13  and  C_16
REMARK    7  A    between atoms: C_21  and  C_24
REMARK    8  A    between atoms: C_24  and  O_26
REMARK    9  A    between atoms: O_26  and  C_27
REMARK                            x       y       z     vdW  Elec       q    Type
REMARK                         _______ _______ _______ _____ _____    ______ ____
ROOT
ATOM      1  C   UNL     1       0.637  -0.266   1.289  0.00  0.00    +0.203 C 
ATOM      2  O   UNL     1      -0.021  -0.745   2.188  0.00  0.00    -0.277 OA
ATOM      3  N   UNL     1       1.942   0.010   1.482  0.00  0.00    -0.285 N 
ATOM      4  H   UNL     1       2.449   0.462   0.789  0.00  0.00    +0.155 HD
ENDROOT
BRANCH   3   5
ATOM      5  C   UNL     1       2.565  -0.356   2.680  0.00  0.00    +0.058 A 
ATOM      6  C   UNL     1       1.853  -0.327   3.872  0.00  0.00    +0.025 A 
ATOM      7  C   UNL     1       2.471  -0.689   5.053  0.00  0.00    +0.002 A 
ATOM      8  C   UNL     1       3.797  -1.080   5.049  0.00  0.00    +0.002 A 
ATOM      9  C   UNL     1       4.509  -1.109   3.864  0.00  0.00    +0.029 A 
ATOM     10  C   UNL     1       3.895  -0.755   2.679  0.00  0.00    +0.109 A 
BRANCH  10  11
ATOM     11  S   UNL     1       4.801  -0.801   1.168  0.00  0.00    -0.004 S 
ATOM     12  O   UNL     1       4.592   0.475   0.580  0.00  0.00    -0.170 OA
ATOM     13  O   UNL     1       6.106  -1.223   1.540  0.00  0.00    -0.170 OA
ATOM     14  C   UNL     1       3.989  -2.086   0.177  0.00  0.00    +0.200 C 
ENDBRANCH  10  11
ENDBRANCH   3   5
BRANCH   1  16
ATOM     15  C   UNL     1      -0.191   1.531  -0.206  0.00  0.00    -0.004 C 
ATOM     16  C   UNL     1      -0.005   0.021  -0.044  0.00  0.00    +0.016 C 
BRANCH  16  17
ATOM     17  N   UNL     1      -1.314  -0.643  -0.110  0.00  0.00    +0.388 N 
ATOM     18  C   UNL     1      -1.125  -2.098  -0.077  0.00  0.00    -0.078 C 
ATOM     19  C   UNL     1      -2.488  -2.793  -0.063  0.00  0.00    -0.018 C 
ATOM     20  C   UNL     1      -3.265  -2.406  -1.325  0.00  0.00    +0.011 C 
ATOM     21  C   UNL     1      -3.391  -0.881  -1.388  0.00  0.00    +0.081 C 
ATOM     22  C   UNL     1      -1.994  -0.257  -1.352  0.00  0.00    -0.063 C 
ATOM     23  H   UNL     1      -1.874  -0.360   0.681  0.00  0.00    -0.081 HD
BRANCH  21  24
ATOM     24  C   UNL     1      -4.088  -0.486  -2.664  0.00  0.00    +0.308 C 
ATOM     25  O   UNL     1      -3.526   0.226  -3.463  0.00  0.00    -0.251 OA
BRANCH  24  26
ATOM     26  O   UNL     1      -5.331  -0.924  -2.914  0.00  0.00    -0.468 OA
ATOM     27  C   UNL     1      -5.931  -0.510  -4.144  0.00  0.00    +0.280 C 
ENDBRANCH  24  26
ENDBRANCH  21  24
ENDBRANCH  16  17
ENDBRANCH   1  16
TORSDOF 6
