REMARK  Name = ZINC13065056
REMARK  12 active torsions:
REMARK  status: ('A' for Active; 'I' for Inactive)
REMARK    1  A    between atoms: C_1  and  C_2
REMARK    2  A    between atoms: C_2  and  C_3
REMARK    3  A    between atoms: C_3  and  C_5
REMARK    4  A    between atoms: C_3  and  N_69
REMARK    5  A    between atoms: N_9  and  C_10
REMARK    6  A    between atoms: C_10  and  C_11
REMARK    7  A    between atoms: C_17  and  C_18
REMARK    8  A    between atoms: C_17  and  N_69
REMARK    9  A    between atoms: C_24  and  C_25
REMARK   10  A    between atoms: C_24  and  N_69
REMARK   11  A    between atoms: C_30  and  C_38
REMARK   12  A    between atoms: C_31  and  C_37
REMARK                            x       y       z     vdW  Elec       q    Type
REMARK                         _______ _______ _______ _____ _____    ______ ____
ROOT
ATOM      1  N   UNL     1      -1.613   2.822  -1.158  0.00  0.00    +0.392 N 
ATOM      2  H   UNL     1      -0.964   3.241  -1.834  0.00  0.00    -0.080 HD
ENDROOT
BRANCH   1   3
ATOM      3  C   UNL     1      -2.920   3.505  -1.261  0.00  0.00    +0.003 C 
BRANCH   3   4
ATOM      4  C   UNL     1      -3.117   3.952  -2.687  0.00  0.00    +0.138 A 
ATOM      5  N   UNL     1      -2.748   3.308  -3.767  0.00  0.00    -0.115 NA
ATOM      6  N   UNL     1      -3.092   4.014  -4.789  0.00  0.00    -0.023 NA
ATOM      7  N   UNL     1      -3.671   5.091  -4.388  0.00  0.00    -0.044 NA
ATOM      8  N   UNL     1      -3.711   5.088  -3.099  0.00  0.00    -0.226 N 
BRANCH   8   9
ATOM      9  C   UNL     1      -4.290   6.127  -2.243  0.00  0.00    +0.182 C 
BRANCH   9  10
ATOM     10  C   UNL     1      -3.235   7.151  -1.913  0.00  0.00    -0.026 A 
ATOM     11  C   UNL     1      -2.448   6.995  -0.787  0.00  0.00    +0.005 A 
ATOM     12  C   UNL     1      -1.477   7.933  -0.487  0.00  0.00    +0.000 A 
ATOM     13  C   UNL     1      -1.300   9.031  -1.307  0.00  0.00    +0.000 A 
ATOM     14  C   UNL     1      -2.091   9.190  -2.430  0.00  0.00    +0.000 A 
ATOM     15  C   UNL     1      -3.058   8.250  -2.733  0.00  0.00    +0.005 A 
ENDBRANCH   9  10
ENDBRANCH   8   9
ENDBRANCH   3   4
BRANCH   3  17
ATOM     16  C   UNL     1      -3.915   2.189   0.615  0.00  0.00    +0.002 C 
ATOM     17  C   UNL     1      -4.052   2.555  -0.864  0.00  0.00    -0.011 C 
ENDBRANCH   3  17
ENDBRANCH   1   3
BRANCH   1  18
ATOM     18  C   UNL     1      -1.768   1.385  -1.469  0.00  0.00    -0.042 C 
BRANCH  18  19
ATOM     19  C   UNL     1      -1.901   1.226  -2.961  0.00  0.00    -0.064 A 
ATOM     20  C   UNL     1      -3.149   1.054  -3.530  0.00  0.00    +0.002 A 
ATOM     21  C   UNL     1      -3.272   0.913  -4.900  0.00  0.00    +0.000 A 
ATOM     22  C   UNL     1      -2.144   0.932  -5.700  0.00  0.00    +0.000 A 
ATOM     23  C   UNL     1      -0.895   1.097  -5.130  0.00  0.00    +0.000 A 
ATOM     24  C   UNL     1      -0.774   1.244  -3.761  0.00  0.00    +0.002 A 
ENDBRANCH  18  19
ENDBRANCH   1  18
BRANCH   1  25
ATOM     25  C   UNL     1      -1.063   2.988   0.203  0.00  0.00    -0.036 C 
BRANCH  25  26
ATOM     26  C   UNL     1       0.380   2.553   0.200  0.00  0.00    +0.001 A 
ATOM     27  C   UNL     1       1.361   3.469   0.009  0.00  0.00    +0.017 A 
ATOM     28  C   UNL     1       2.752   3.012   0.004  0.00  0.00    -0.001 A 
ATOM     29  C   UNL     1       3.808   3.910  -0.187  0.00  0.00    +0.010 A 
ATOM     30  C   UNL     1       5.095   3.453  -0.186  0.00  0.00    +0.004 A 
ATOM     31  C   UNL     1       5.365   2.104   0.004  0.00  0.00    -0.046 A 
ATOM     32  C   UNL     1       4.341   1.202   0.195  0.00  0.00    -0.024 A 
ATOM     33  C   UNL     1       3.022   1.645   0.197  0.00  0.00    +0.052 A 
ATOM     34  N   UNL     1       1.979   0.764   0.386  0.00  0.00    -0.322 N 
ATOM     35  H   UNL     1       2.167  -0.178   0.519  0.00  0.00    +0.169 HD
ATOM     36  C   UNL     1       0.704   1.192   0.389  0.00  0.00    +0.251 A 
ATOM     37  O   UNL     1      -0.194   0.386   0.558  0.00  0.00    -0.268 OA
ATOM     38  C   UNL     1       4.649  -0.259   0.400  0.00  0.00    +0.046 C 
ATOM     39  C   UNL     1       6.793   1.622   0.001  0.00  0.00    +0.044 C 
ENDBRANCH  25  26
ENDBRANCH   1  25
TORSDOF 9
