REMARK  Name = ZINC00800267
REMARK  10 active torsions:
REMARK  status: ('A' for Active; 'I' for Inactive)
REMARK    1  A    between atoms: C_1  and  C_2
REMARK    2  A    between atoms: C_8  and  C_10
REMARK    3  A    between atoms: C_10  and  C_11
REMARK    4  A    between atoms: C_11  and  C_12
REMARK    5  A    between atoms: N_14  and  C_15
REMARK    6  A    between atoms: N_14  and  C_21
REMARK    7  A    between atoms: C_15  and  C_16
REMARK    8  A    between atoms: C_21  and  C_29
REMARK    9  A    between atoms: C_25  and  C_28
REMARK   10  A    between atoms: N_31  and  C_32
REMARK                            x       y       z     vdW  Elec       q    Type
REMARK                         _______ _______ _______ _____ _____    ______ ____
ROOT
ATOM      1  C   UNL     1      -7.599  -3.536  -0.058  0.00  0.00    +0.217 C 
ATOM      2  O   UNL     1      -8.752  -3.196  -0.215  0.00  0.00    -0.276 OA
ATOM      3  N   UNL     1      -7.274  -4.844  -0.072  0.00  0.00    -0.280 N 
ENDROOT
BRANCH   3   4
ATOM      4  C   UNL     1      -8.324  -5.859  -0.189  0.00  0.00    +0.114 C 
ATOM      5  C   UNL     1      -9.281  -5.742   1.000  0.00  0.00    +0.035 C 
ATOM      6  C   UNL     1     -10.378  -6.801   0.878  0.00  0.00    +0.003 C 
ATOM      7  C   UNL     1      -9.743  -8.194   0.869  0.00  0.00    +0.003 C 
ATOM      8  C   UNL     1      -8.787  -8.311  -0.319  0.00  0.00    -0.012 C 
ATOM      9  C   UNL     1      -7.690  -7.251  -0.197  0.00  0.00    +0.038 C 
ATOM     10  C   UNL     1      -8.152  -9.703  -0.328  0.00  0.00    +0.007 C 
BRANCH   4  11
ATOM     11  C   UNL     1      -9.087  -5.647  -1.471  0.00  0.00    +0.237 C 
ATOM     12  O   UNL     1     -10.292  -5.784  -1.489  0.00  0.00    -0.273 OA
ATOM     13  N   UNL     1      -8.431  -5.304  -2.597  0.00  0.00    -0.311 N 
ATOM     14  H   UNL     1      -7.462  -5.265  -2.601  0.00  0.00    +0.149 HD
BRANCH  13  15
ATOM     15  C   UNL     1      -9.181  -4.990  -3.815  0.00  0.00    +0.073 C 
ATOM     16  C   UNL     1      -9.570  -6.290  -4.523  0.00  0.00    +0.022 C 
ATOM     17  C   UNL     1     -10.354  -5.962  -5.796  0.00  0.00    +0.002 C 
ATOM     18  C   UNL     1      -9.484  -5.115  -6.727  0.00  0.00    +0.000 C 
ATOM     19  C   UNL     1      -9.095  -3.816  -6.019  0.00  0.00    +0.002 C 
ATOM     20  C   UNL     1      -8.311  -4.143  -4.746  0.00  0.00    +0.022 C 
ENDBRANCH  13  15
ENDBRANCH   4  11
ENDBRANCH   3   4
BRANCH   1  21
ATOM     21  C   UNL     1      -6.529  -2.496   0.153  0.00  0.00    +0.105 C 
BRANCH  21  22
ATOM     22  C   UNL     1      -7.160  -1.103   0.124  0.00  0.00    +0.105 C 
BRANCH  22  30
ATOM     23  C   UNL     1      -1.949   3.339   1.121  0.00  0.00    +0.089 C 
ATOM     24  C   UNL     1      -3.425   3.140   0.889  0.00  0.00    +0.136 A 
ATOM     25  C   UNL     1      -4.047   1.957   0.739  0.00  0.00    +0.091 A 
ATOM     26  C   UNL     1      -5.424   2.208   0.544  0.00  0.00    +0.168 A 
ATOM     27  N   UNL     1      -5.605   3.503   0.579  0.00  0.00    -0.063 NA
ATOM     28  O   UNL     1      -4.346   4.112   0.803  0.00  0.00    -0.358 OA
ATOM     29  N   UNL     1      -6.415   1.245   0.349  0.00  0.00    -0.268 N 
ATOM     30  C   UNL     1      -6.090  -0.063   0.335  0.00  0.00    +0.219 C 
ATOM     31  O   UNL     1      -4.936  -0.403   0.492  0.00  0.00    -0.275 OA
ATOM     32  H   UNL     1      -7.337   1.517   0.223  0.00  0.00    +0.156 HD
ENDBRANCH  22  30
ENDBRANCH  21  22
ENDBRANCH   1  21
BRANCH   3  33
ATOM     33  C   UNL     1      -5.870  -5.251   0.030  0.00  0.00    +0.183 C 
BRANCH  33  34
ATOM     34  C   UNL     1      -5.477  -5.340   1.482  0.00  0.00    +0.122 A 
ATOM     35  C   UNL     1      -5.467  -6.459   2.228  0.00  0.00    +0.046 A 
ATOM     36  C   UNL     1      -5.035  -6.085   3.521  0.00  0.00    +0.041 A 
ATOM     37  C   UNL     1      -4.807  -4.760   3.488  0.00  0.00    +0.195 A 
ATOM     38  O   UNL     1      -5.070  -4.315   2.249  0.00  0.00    -0.466 OA
ENDBRANCH  33  34
ENDBRANCH   3  33
TORSDOF 8
