REMARK  Name = ZINC39617432
REMARK  8 active torsions:
REMARK  status: ('A' for Active; 'I' for Inactive)
REMARK    1  A    between atoms: C_1  and  N_2
REMARK    2  A    between atoms: N_2  and  C_3
REMARK    3  A    between atoms: N_2  and  C_16
REMARK    4  A    between atoms: C_3  and  C_4
REMARK    5  A    between atoms: N_6  and  C_7
REMARK    6  A    between atoms: C_16  and  C_17
REMARK    7  A    between atoms: N_19  and  C_20
REMARK    8  A    between atoms: N_19  and  C_28
REMARK                            x       y       z     vdW  Elec       q    Type
REMARK                         _______ _______ _______ _____ _____    ______ ____
ROOT
ATOM      1  C   UNL     1       0.498   1.259   0.351  0.00  0.00    -0.095 C 
ATOM      2  N   UNL     1       0.135  -0.132   0.052  0.00  0.00    +0.389 N 
ATOM      3  H   UNL     1      -0.866  -0.202  -0.058  0.00  0.00    -0.081 HD
ENDROOT
BRANCH   2   4
ATOM      4  C   UNL     1       0.794  -0.554  -1.191  0.00  0.00    +0.019 C 
BRANCH   4   5
ATOM      5  C   UNL     1       0.258   0.254  -2.344  0.00  0.00    +0.201 C 
ATOM      6  O   UNL     1      -0.591   1.099  -2.149  0.00  0.00    -0.278 OA
ATOM      7  N   UNL     1       0.720   0.039  -3.591  0.00  0.00    -0.285 N 
ATOM      8  H   UNL     1       1.468  -0.563  -3.734  0.00  0.00    +0.155 HD
BRANCH   7   9
ATOM      9  C   UNL     1       0.122   0.683  -4.682  0.00  0.00    +0.072 A 
ATOM     10  C   UNL     1      -1.152   1.221  -4.558  0.00  0.00    +0.029 A 
ATOM     11  C   UNL     1      -1.742   1.856  -5.634  0.00  0.00    +0.043 A 
ATOM     12  C   UNL     1      -1.065   1.958  -6.837  0.00  0.00    +0.161 A 
ATOM     13  C   UNL     1       0.207   1.422  -6.966  0.00  0.00    +0.195 A 
ATOM     14  C   UNL     1       0.804   0.790  -5.888  0.00  0.00    +0.182 A 
ATOM     15  F   UNL     1       2.047   0.273  -6.010  0.00  0.00    -0.200 F 
ATOM     16  F   UNL     1       0.867   1.522  -8.141  0.00  0.00    -0.199 F 
ATOM     17  F   UNL     1      -1.645   2.580  -7.887  0.00  0.00    -0.202 F 
ENDBRANCH   7   9
ENDBRANCH   4   5
ENDBRANCH   2   4
BRANCH   2  18
ATOM     18  C   UNL     1       0.568  -1.000   1.155  0.00  0.00    +0.019 C 
BRANCH  18  19
ATOM     19  C   UNL     1      -0.199  -0.646   2.403  0.00  0.00    +0.200 C 
ATOM     20  O   UNL     1      -1.265  -0.073   2.318  0.00  0.00    -0.278 OA
ATOM     21  N   UNL     1       0.299  -0.967   3.614  0.00  0.00    -0.295 N 
BRANCH  21  22
ATOM     22  C   UNL     1       1.590  -1.651   3.717  0.00  0.00    +0.099 C 
ATOM     23  C   UNL     1       1.563  -2.925   2.858  0.00  0.00    +0.046 C 
ATOM     24  C   UNL     1       3.020  -3.456   2.732  0.00  0.00    +0.168 C 
ATOM     25  S   UNL     1       3.936  -1.873   2.503  0.00  0.00    -0.029 S 
ATOM     26  O   UNL     1       5.098  -1.889   3.320  0.00  0.00    -0.174 OA
ATOM     27  O   UNL     1       4.063  -1.611   1.112  0.00  0.00    -0.174 OA
ATOM     28  C   UNL     1       2.712  -0.706   3.223  0.00  0.00    +0.188 C 
ENDBRANCH  21  22
BRANCH  21  29
ATOM     29  C   UNL     1      -0.452  -0.632   4.827  0.00  0.00    +0.076 C 
ATOM     30  C   UNL     1      -1.815  -1.327   4.791  0.00  0.00    +0.022 C 
ATOM     31  C   UNL     1      -2.598  -0.978   6.058  0.00  0.00    +0.002 C 
ATOM     32  C   UNL     1      -2.800   0.537   6.131  0.00  0.00    +0.000 C 
ATOM     33  C   UNL     1      -1.438   1.232   6.167  0.00  0.00    +0.002 C 
ATOM     34  C   UNL     1      -0.654   0.882   4.900  0.00  0.00    +0.022 C 
ENDBRANCH  21  29
ENDBRANCH  18  19
ENDBRANCH   2  18
TORSDOF 7
