REMARK  Name = ZINC29973868
REMARK  9 active torsions:
REMARK  status: ('A' for Active; 'I' for Inactive)
REMARK    1  A    between atoms: C_1  and  C_2
REMARK    2  A    between atoms: C_2  and  C_3
REMARK    3  A    between atoms: C_3  and  N_4
REMARK    4  A    between atoms: N_4  and  C_5
REMARK    5  A    between atoms: N_4  and  C_16
REMARK    6  A    between atoms: C_5  and  C_6
REMARK    7  A    between atoms: C_8  and  C_11
REMARK    8  A    between atoms: C_16  and  C_17
REMARK    9  A    between atoms: N_19  and  C_20
REMARK                            x       y       z     vdW  Elec       q    Type
REMARK                         _______ _______ _______ _____ _____    ______ ____
ROOT
ATOM      1  N   UNL     1       6.659   1.831   1.309  0.00  0.00    +0.391 N 
ATOM      2  H   UNL     1       6.193   2.476   2.069  0.00  0.00    -0.080 HD
ENDROOT
BRANCH   1   3
ATOM      3  C   UNL     1       6.407   0.434   1.687  0.00  0.00    -0.078 C 
BRANCH   3   5
ATOM      4  C   UNL     1       6.651  -1.947   0.972  0.00  0.00    +0.002 C 
ATOM      5  C   UNL     1       6.960  -0.494   0.604  0.00  0.00    -0.022 C 
ENDBRANCH   3   5
ENDBRANCH   1   3
BRANCH   1   6
ATOM      6  C   UNL     1       6.044   2.145   0.013  0.00  0.00    +0.022 C 
BRANCH   6   7
ATOM      7  C   UNL     1       4.543   2.073   0.138  0.00  0.00    +0.211 A 
ATOM      8  N   UNL     1       3.742   3.058   0.457  0.00  0.00    -0.190 NA
ATOM      9  C   UNL     1       2.495   2.529   0.449  0.00  0.00    +0.237 A 
ATOM     10  N   UNL     1       2.614   1.267   0.118  0.00  0.00    -0.053 NA
ATOM     11  O   UNL     1       3.782   0.993  -0.063  0.00  0.00    -0.340 OA
BRANCH   9  12
ATOM     12  C   UNL     1       1.237   3.243   0.749  0.00  0.00    +0.175 A 
ATOM     13  C   UNL     1      -0.010   2.703   0.732  0.00  0.00    +0.053 A 
ATOM     14  C   UNL     1      -0.904   3.736   1.072  0.00  0.00    +0.042 A 
ATOM     15  C   UNL     1      -0.166   4.843   1.288  0.00  0.00    +0.196 A 
ATOM     16  O   UNL     1       1.127   4.542   1.088  0.00  0.00    -0.460 OA
ENDBRANCH   9  12
ENDBRANCH   6   7
ENDBRANCH   1   6
BRANCH   1  17
ATOM     17  C   UNL     1       8.099   2.120   1.293  0.00  0.00    +0.020 C 
BRANCH  17  18
ATOM     18  C   UNL     1       8.616   2.176   2.707  0.00  0.00    +0.201 C 
ATOM     19  O   UNL     1       7.845   2.094   3.639  0.00  0.00    -0.278 OA
ATOM     20  N   UNL     1       9.937   2.317   2.936  0.00  0.00    -0.286 N 
ATOM     21  H   UNL     1      10.627   2.475   2.095  0.00  0.00    +0.155 HD
BRANCH  20  22
ATOM     22  C   UNL     1      10.430   2.261   4.245  0.00  0.00    +0.052 A 
ATOM     23  C   UNL     1       9.621   2.636   5.310  0.00  0.00    +0.026 A 
ATOM     24  C   UNL     1      10.110   2.579   6.601  0.00  0.00    +0.022 A 
ATOM     25  C   UNL     1      11.405   2.150   6.834  0.00  0.00    +0.042 A 
ATOM     26  C   UNL     1      12.213   1.776   5.776  0.00  0.00    +0.041 A 
ATOM     27  C   UNL     1      11.728   1.825   4.482  0.00  0.00    +0.064 A 
ATOM     28 CL   UNL     1      12.741   1.350   3.155  0.00  0.00    -0.082 Cl
ATOM     29 CL   UNL     1      12.015   2.080   8.458  0.00  0.00    -0.083 Cl
ENDBRANCH  20  22
ENDBRANCH  17  18
ENDBRANCH   1  17
TORSDOF 8
