REMARK  Name = ZINC03874452
REMARK  6 active torsions:
REMARK  status: ('A' for Active; 'I' for Inactive)
REMARK    1  A    between atoms: N_7  and  C1*_10
REMARK    2  A    between atoms: C2*_12  and  O2*_22
REMARK    3  A    between atoms: C3*_14  and  O3*_21
REMARK    4  A    between atoms: C4*_16  and  C5*_19
REMARK    5  A    between atoms: C5*_19  and  O5*_20
REMARK    6  A    between atoms: N_23  and  C_24
REMARK                            x       y       z     vdW  Elec       q    Type
REMARK                         _______ _______ _______ _____ _____    ______ ____
ROOT
ATOM      1  C   UNL     1      -0.016   1.312   0.009  0.00  0.00    +0.225 A 
ATOM      2  N   UNL     1       1.089   2.036   0.003  0.00  0.00    -0.219 NA
ATOM      3  C   UNL     1       2.288   1.462  -0.012  0.00  0.00    +0.150 A 
ATOM      4  C   UNL     1       2.358   0.059  -0.020  0.00  0.00    +0.147 A 
ATOM      5  C   UNL     1       1.155  -0.666  -0.013  0.00  0.00    +0.167 A 
ATOM      6  N   UNL     1       0.002  -0.004   0.002  0.00  0.00    -0.216 NA
ATOM      7  N   UNL     1       1.511  -1.991  -0.023  0.00  0.00    -0.286 N 
ATOM      8  C   UNL     1       2.873  -2.048  -0.036  0.00  0.00    +0.203 A 
ATOM      9  N   UNL     1       3.368  -0.844  -0.034  0.00  0.00    -0.231 NA
ATOM     10  N   UNL     1       3.439   2.229  -0.019  0.00  0.00    -0.324 N 
ATOM     11  H   UNL     1       4.309   1.799  -0.030  0.00  0.00    +0.148 HD
ENDROOT
BRANCH   7  12
ATOM     12  C1* UNL     1       0.596  -3.135  -0.019  0.00  0.00    +0.253 C 
ATOM     13  C2* UNL     1       0.213  -3.523   1.431  0.00  0.00    +0.195 C 
ATOM     14  C3* UNL     1      -0.170  -5.016   1.277  0.00  0.00    +0.178 C 
ATOM     15  C4* UNL     1       0.521  -5.449  -0.031  0.00  0.00    +0.177 C 
ATOM     16  O4* UNL     1       1.255  -4.315  -0.525  0.00  0.00    -0.346 OA
BRANCH  14  17
ATOM     17  O3* UNL     1       0.324  -5.775   2.382  0.00  0.00    -0.386 OA
ATOM     18  H3* UNL     1       0.113  -6.718   2.337  0.00  0.00    +0.210 HD
ENDBRANCH  14  17
BRANCH  13  19
ATOM     19  O2* UNL     1      -0.902  -2.755   1.888  0.00  0.00    -0.385 OA
ATOM     20  H2* UNL     1      -1.179  -2.962   2.791  0.00  0.00    +0.210 HD
ENDBRANCH  13  19
BRANCH  15  21
ATOM     21  C5* UNL     1       1.475  -6.613   0.245  0.00  0.00    +0.190 C 
BRANCH  21  22
ATOM     22  O5* UNL     1       2.021  -7.084  -0.988  0.00  0.00    -0.392 OA
ATOM     23  H5* UNL     1       2.636  -7.823  -0.889  0.00  0.00    +0.210 HD
ENDBRANCH  21  22
ENDBRANCH  15  21
ENDBRANCH   7  12
BRANCH  10  24
ATOM     24  C   UNL     1       3.346   3.692  -0.011  0.00  0.00    +0.072 C 
ATOM     25  C   UNL     1       3.243   4.223  -1.456  0.00  0.00    +0.022 C 
ATOM     26  C   UNL     1       4.069   5.533  -1.438  0.00  0.00    +0.002 C 
ATOM     27  C   UNL     1       5.256   5.177  -0.509  0.00  0.00    +0.002 C 
ATOM     28  C   UNL     1       4.626   4.298   0.591  0.00  0.00    +0.022 C 
ENDBRANCH  10  24
TORSDOF 6
