REMARK  Name = ZINC42423719
REMARK  7 active torsions:
REMARK  status: ('A' for Active; 'I' for Inactive)
REMARK    1  A    between atoms: C_1  and  C_2
REMARK    2  A    between atoms: C_2  and  C_3
REMARK    3  A    between atoms: C_3  and  O_4
REMARK    4  A    between atoms: O_4  and  C_5
REMARK    5  A    between atoms: N_10  and  C_12
REMARK    6  A    between atoms: C_12  and  C_13
REMARK    7  A    between atoms: C_13  and  C_15
REMARK                            x       y       z     vdW  Elec       q    Type
REMARK                         _______ _______ _______ _____ _____    ______ ____
ROOT
ATOM      1  C   UNL     1       1.387  -2.493  -2.405  0.00  0.00    +0.102 C 
ATOM      2  C   UNL     1       2.876  -2.684  -2.102  0.00  0.00    +0.028 C 
ATOM      3  C   UNL     1       3.547  -3.363  -3.299  0.00  0.00    -0.016 C 
ATOM      4  C   UNL     1       2.840  -4.688  -3.590  0.00  0.00    -0.078 C 
ATOM      5  N   UNL     1       1.427  -4.435  -3.898  0.00  0.00    +0.386 N 
ATOM      6  C   UNL     1       0.759  -3.849  -2.729  0.00  0.00    -0.046 C 
ATOM      7  H   UNL     1       1.362  -3.795  -4.676  0.00  0.00    -0.081 HD
ENDROOT
BRANCH   1   8
ATOM      8  O   UNL     1       0.738  -1.926  -1.265  0.00  0.00    -0.378 OA
BRANCH   8   9
ATOM      9  C   UNL     1       0.718  -0.497  -1.257  0.00  0.00    +0.160 C 
BRANCH   9  11
ATOM     10  C   UNL     1      -0.019   1.526   0.010  0.00  0.00    +0.006 C 
ATOM     11  C   UNL     1       0.002  -0.004   0.002  0.00  0.00    +0.025 C 
ENDBRANCH   9  11
ENDBRANCH   8   9
ENDBRANCH   1   8
BRANCH   5  12
ATOM     12  C   UNL     1       0.770  -5.700  -4.252  0.00  0.00    +0.002 C 
BRANCH  12  13
ATOM     13  C   UNL     1       1.367  -6.236  -5.528  0.00  0.00    +0.147 C 
ATOM     14  O   UNL     1       2.252  -5.624  -6.087  0.00  0.00    -0.294 OA
BRANCH  13  15
ATOM     15  C   UNL     1       0.876  -7.501  -6.096  0.00  0.00    +0.016 A 
ATOM     16  C   UNL     1      -0.149  -8.207  -5.457  0.00  0.00    +0.012 A 
ATOM     17  C   UNL     1      -0.604  -9.392  -5.995  0.00  0.00    +0.015 A 
ATOM     18  C   UNL     1      -0.049  -9.883  -7.165  0.00  0.00    +0.013 A 
ATOM     19  C   UNL     1       0.965  -9.190  -7.803  0.00  0.00    +0.015 A 
ATOM     20  C   UNL     1       1.427  -8.001  -7.280  0.00  0.00    +0.012 A 
ATOM     21  I   UNL     1      -0.749 -11.685  -7.973  0.00  0.00    -0.044 I 
ENDBRANCH  13  15
ENDBRANCH  12  13
ENDBRANCH   5  12
TORSDOF 6
