REMARK  Name = ZINC58791127
REMARK  10 active torsions:
REMARK  status: ('A' for Active; 'I' for Inactive)
REMARK    1  A    between atoms: C_1  and  C_2
REMARK    2  A    between atoms: C_2  and  N_3
REMARK    3  A    between atoms: N_3  and  C_4
REMARK    4  A    between atoms: N_3  and  C_6
REMARK    5  A    between atoms: C_4  and  C_5
REMARK    6  A    between atoms: C_6  and  C_8
REMARK    7  A    between atoms: C_6  and  C_25
REMARK    8  A    between atoms: C_8  and  N_9
REMARK    9  A    between atoms: N_9  and  S_10
REMARK   10  A    between atoms: S_10  and  C_13
REMARK                            x       y       z     vdW  Elec       q    Type
REMARK                         _______ _______ _______ _____ _____    ______ ____
ROOT
ATOM      1  N   UNL     1      -3.898  -1.693   0.417  0.00  0.00    -0.191 NA
ATOM      2  H   UNL     1      -3.139  -2.296   0.387  0.00  0.00    +0.148 HD
ENDROOT
BRANCH   1   3
ATOM      3  S   UNL     1      -5.402  -2.233  -0.021  0.00  0.00    +0.060 S 
ATOM      4  O   UNL     1      -5.248  -3.591  -0.410  0.00  0.00    -0.153 OA
ATOM      5  O   UNL     1      -6.293  -1.832   1.009  0.00  0.00    -0.153 OA
BRANCH   3   6
ATOM      6  C   UNL     1      -5.873  -1.346  -1.469  0.00  0.00    +0.127 A 
ATOM      7  C   UNL     1      -6.045  -2.020  -2.665  0.00  0.00    +0.077 A 
ATOM      8  C   UNL     1      -6.415  -1.323  -3.801  0.00  0.00    +0.144 A 
ATOM      9  C   UNL     1      -6.612   0.056  -3.738  0.00  0.00    +0.077 A 
ATOM     10  C   UNL     1      -6.438   0.726  -2.539  0.00  0.00    +0.049 A 
ATOM     11  C   UNL     1      -6.074   0.021  -1.404  0.00  0.00    +0.069 A 
ATOM     12 CL   UNL     1      -5.862   0.857   0.103  0.00  0.00    -0.081 Cl
ATOM     13  N   UNL     1      -6.986   0.749  -4.898  0.00  0.00    -0.280 N 
ATOM     14  C   UNL     1      -7.450   0.050  -5.957  0.00  0.00    +0.255 C 
ATOM     15  O   UNL     1      -7.750   0.625  -6.982  0.00  0.00    -0.272 OA
ATOM     16  C   UNL     1      -7.593  -1.448  -5.861  0.00  0.00    +0.325 C 
ATOM     17  O   UNL     1      -6.591  -1.970  -4.985  0.00  0.00    -0.481 OA
ATOM     18  H   UNL     1      -6.913   1.715  -4.940  0.00  0.00    +0.155 HD
ENDBRANCH   3   6
ENDBRANCH   1   3
BRANCH   1  19
ATOM     19  C   UNL     1      -3.716  -0.305   0.848  0.00  0.00    +0.095 C 
BRANCH  19  20
ATOM     20  C   UNL     1      -2.523  -0.220   1.802  0.00  0.00    -0.021 C 
BRANCH  20  21
ATOM     21  C   UNL     1      -2.253   1.223   2.143  0.00  0.00    -0.041 A 
ATOM     22  C   UNL     1      -1.681   2.060   1.203  0.00  0.00    +0.003 A 
ATOM     23  C   UNL     1      -1.434   3.383   1.515  0.00  0.00    +0.000 A 
ATOM     24  C   UNL     1      -1.759   3.871   2.767  0.00  0.00    +0.001 A 
ATOM     25  C   UNL     1      -2.332   3.036   3.707  0.00  0.00    +0.020 A 
ATOM     26  C   UNL     1      -2.585   1.712   3.394  0.00  0.00    +0.043 A 
ATOM     27 CL   UNL     1      -3.310   0.664   4.572  0.00  0.00    -0.083 Cl
ENDBRANCH  20  21
BRANCH  20  28
ATOM     28  N   UNL     1      -1.338  -0.800   1.157  0.00  0.00    +0.385 N 
ATOM     29  H   UNL     1      -1.414  -1.807   1.157  0.00  0.00    -0.081 HD
BRANCH  28  31
ATOM     30  C   UNL     1      -0.700  -1.429  -1.122  0.00  0.00    -0.017 C 
ATOM     31  C   UNL     1      -1.247  -0.316  -0.227  0.00  0.00    -0.081 C 
ENDBRANCH  28  31
BRANCH  28  32
ATOM     32  C   UNL     1      -0.133  -0.400   1.895  0.00  0.00    -0.081 C 
ATOM     33  C   UNL     1      -0.189  -0.975   3.312  0.00  0.00    -0.017 C 
ENDBRANCH  28  32
ENDBRANCH  20  28
ENDBRANCH  19  20
ENDBRANCH   1  19
TORSDOF 8
