REMARK  Name = ZINC02081870
REMARK  6 active torsions:
REMARK  status: ('A' for Active; 'I' for Inactive)
REMARK    1  A    between atoms: C_1  and  C_2
REMARK    2  A    between atoms: C_2  and  C_4
REMARK    3  A    between atoms: C_2  and  O_20
REMARK    4  A    between atoms: N_6  and  C_7
REMARK    5  A    between atoms: C_8  and  C_17
REMARK    6  A    between atoms: O_20  and  C_21
REMARK                            x       y       z     vdW  Elec       q    Type
REMARK                         _______ _______ _______ _____ _____    ______ ____
ROOT
ATOM      1  C   UNL     1      -2.129   1.063   1.033  0.00  0.00    +0.258 C 
ATOM      2  O   UNL     1      -3.029   1.839   0.787  0.00  0.00    -0.271 OA
ATOM      3  N   UNL     1      -2.378  -0.260   1.091  0.00  0.00    -0.276 N 
ATOM      4  H   UNL     1      -1.659  -0.881   1.288  0.00  0.00    +0.155 HD
ENDROOT
BRANCH   3   5
ATOM      5  C   UNL     1      -3.661  -0.735   0.869  0.00  0.00    +0.084 A 
ATOM      6  C   UNL     1      -4.109  -2.047   0.880  0.00  0.00    +0.068 A 
ATOM      7  C   UNL     1      -5.523  -2.283   0.622  0.00  0.00    -0.023 A 
ATOM      8  C   UNL     1      -6.250  -1.172   0.378  0.00  0.00    -0.004 A 
ATOM      9  S   UNL     1      -5.094   0.166   0.503  0.00  0.00    -0.077 S 
ATOM     10  C   UNL     1      -7.709  -1.085   0.056  0.00  0.00    +0.043 C 
ATOM     11  C   UNL     1      -8.502  -1.924   1.067  0.00  0.00    +0.005 C 
ATOM     12  C   UNL     1      -8.617  -3.347   0.529  0.00  0.00    +0.001 C 
ATOM     13  C   UNL     1      -7.367  -3.709  -0.270  0.00  0.00    +0.005 C 
ATOM     14  C   UNL     1      -6.134  -3.679   0.626  0.00  0.00    +0.037 C 
BRANCH   6  15
ATOM     15  C   UNL     1      -3.191  -3.159   1.146  0.00  0.00    +0.244 C 
ATOM     16  O   UNL     1      -3.014  -3.542   2.288  0.00  0.00    -0.270 OA
ATOM     17  N   UNL     1      -2.542  -3.756   0.127  0.00  0.00    -0.325 N 
ATOM     18  H   UNL     1      -2.683  -3.450  -0.783  0.00  0.00    +0.145 HD
ATOM     19  H   UNL     1      -1.935  -4.492   0.303  0.00  0.00    +0.145 HD
ENDBRANCH   6  15
ENDBRANCH   3   5
BRANCH   1  21
ATOM     20  C   UNL     1       0.194   1.078   0.166  0.00  0.00    +0.062 C 
ATOM     21  C   UNL     1      -0.734   1.579   1.274  0.00  0.00    +0.256 C 
BRANCH  21  22
ATOM     22  O   UNL     1      -0.748   3.008   1.275  0.00  0.00    -0.478 OA
BRANCH  22  23
ATOM     23  C   UNL     1       0.242   3.635   1.963  0.00  0.00    +0.140 A 
ATOM     24  C   UNL     1       1.269   2.895   2.530  0.00  0.00    +0.048 A 
ATOM     25  C   UNL     1       2.277   3.534   3.226  0.00  0.00    +0.023 A 
ATOM     26  C   UNL     1       2.258   4.911   3.366  0.00  0.00    +0.043 A 
ATOM     27  C   UNL     1       1.232   5.651   2.806  0.00  0.00    +0.043 A 
ATOM     28  C   UNL     1       0.224   5.016   2.105  0.00  0.00    +0.084 A 
ATOM     29 CL   UNL     1      -1.064   5.944   1.403  0.00  0.00    -0.080 Cl
ATOM     30 CL   UNL     1       3.523   5.710   4.247  0.00  0.00    -0.083 Cl
ENDBRANCH  22  23
ENDBRANCH  21  22
ENDBRANCH   1  21
TORSDOF 5
