REMARK  Name = ZINC59288775
REMARK  8 active torsions:
REMARK  status: ('A' for Active; 'I' for Inactive)
REMARK    1  A    between atoms: C_1  and  C_2
REMARK    2  A    between atoms: C_2  and  C_3
REMARK    3  A    between atoms: N_9  and  S_10
REMARK    4  A    between atoms: S_10  and  C_13
REMARK    5  A    between atoms: C_16  and  N_19
REMARK    6  A    between atoms: N_19  and  S_20
REMARK    7  A    between atoms: S_20  and  C_23
REMARK    8  A    between atoms: C_28  and  N_29
REMARK                            x       y       z     vdW  Elec       q    Type
REMARK                         _______ _______ _______ _____ _____    ______ ____
ROOT
ATOM      1  C   UNL     1      -3.230   2.413   2.119  0.00  0.00    +0.106 A 
ATOM      2  C   UNL     1      -2.248   2.970   1.321  0.00  0.00    +0.030 A 
ATOM      3  C   UNL     1      -2.323   4.300   0.958  0.00  0.00    +0.028 A 
ATOM      4  C   UNL     1      -3.387   5.079   1.395  0.00  0.00    +0.074 A 
ATOM      5  C   UNL     1      -4.372   4.516   2.197  0.00  0.00    +0.028 A 
ATOM      6  C   UNL     1      -4.294   3.183   2.552  0.00  0.00    +0.030 A 
ENDROOT
BRANCH   1   7
ATOM      7  S   UNL     1      -3.131   0.715   2.580  0.00  0.00    +0.061 S 
ATOM      8  O   UNL     1      -3.713   0.610   3.872  0.00  0.00    -0.153 OA
ATOM      9  O   UNL     1      -1.800   0.298   2.309  0.00  0.00    -0.153 OA
BRANCH   7  15
ATOM     10  C   UNL     1      -3.649  -0.488   0.200  0.00  0.00    +0.080 C 
ATOM     11  C   UNL     1      -3.816  -1.998   0.001  0.00  0.00    +0.021 C 
ATOM     12  C   UNL     1      -5.266  -2.389   0.292  0.00  0.00    +0.003 C 
ATOM     13  C   UNL     1      -5.606  -2.053   1.746  0.00  0.00    +0.017 C 
ATOM     14  C   UNL     1      -5.459  -0.543   1.964  0.00  0.00    +0.110 C 
ATOM     15  N   UNL     1      -4.111  -0.131   1.548  0.00  0.00    -0.174 NA
BRANCH  10  17
ATOM     16  C   UNL     1      -1.740  -0.328  -1.404  0.00  0.00    +0.005 C 
ATOM     17  C   UNL     1      -2.174  -0.110   0.047  0.00  0.00    +0.017 C 
ENDBRANCH  10  17
ENDBRANCH   7  15
ENDBRANCH   1   7
BRANCH   4  18
ATOM     18  N   UNL     1      -3.466   6.424   1.030  0.00  0.00    -0.098 NA
BRANCH  18  19
ATOM     19  S   UNL     1      -4.735   7.351   1.553  0.00  0.00    +0.094 S 
ATOM     20  O   UNL     1      -5.902   6.830   0.931  0.00  0.00    -0.148 OA
ATOM     21  O   UNL     1      -4.606   7.457   2.964  0.00  0.00    -0.148 OA
BRANCH  19  22
ATOM     22  C   UNL     1      -4.499   8.972   0.903  0.00  0.00    +0.140 A 
ATOM     23  C   UNL     1      -4.314  10.040   1.760  0.00  0.00    +0.031 A 
ATOM     24  C   UNL     1      -4.129  11.312   1.250  0.00  0.00    +0.002 A 
ATOM     25  C   UNL     1      -4.129  11.514  -0.118  0.00  0.00    +0.002 A 
ATOM     26  C   UNL     1      -4.314  10.446  -0.975  0.00  0.00    +0.035 A 
ATOM     27  C   UNL     1      -4.495   9.174  -0.465  0.00  0.00    +0.153 A 
BRANCH  27  28
ATOM     28  N   UNL     1      -4.687   8.029  -1.383  0.00  0.00    +0.058 N 
ATOM     29  O   UNL     1      -4.816   8.220  -2.569  0.00  0.00    -0.126 OA
ATOM     30  O   UNL     1      -4.716   6.902  -0.946  0.00  0.00    -0.126 OA
ENDBRANCH  27  28
ENDBRANCH  19  22
ENDBRANCH  18  19
ENDBRANCH   4  18
TORSDOF 7
