REMARK  Name = ZINC39544111
REMARK  8 active torsions:
REMARK  status: ('A' for Active; 'I' for Inactive)
REMARK    1  A    between atoms: C_1  and  C_2
REMARK    2  A    between atoms: C_2  and  N_3
REMARK    3  A    between atoms: N_3  and  S_28
REMARK    4  A    between atoms: C_4  and  C_6
REMARK    5  A    between atoms: C_9  and  C_21
REMARK    6  A    between atoms: C_26  and  O_27
REMARK    7  A    between atoms: S_28  and  O_31
REMARK    8  A    between atoms: O_31  and  C_32
REMARK                            x       y       z     vdW  Elec       q    Type
REMARK                         _______ _______ _______ _____ _____    ______ ____
ROOT
ATOM      1  C   UNL     1       0.618  -0.801   3.530  0.00  0.00    +0.172 C 
ATOM      2  C   UNL     1       1.319  -2.178   3.474  0.00  0.00    +0.050 C 
ATOM      3  C   UNL     1       1.060  -2.699   4.907  0.00  0.00    +0.086 C 
ATOM      4  C   UNL     1      -0.173  -1.947   5.349  0.00  0.00    +0.083 C 
ATOM      5  N   UNL     1      -0.980  -2.288   6.412  0.00  0.00    -0.304 N 
ATOM      6  C   UNL     1      -2.247  -1.693   6.486  0.00  0.00    +0.037 A 
ATOM      7  C   UNL     1      -3.205  -2.217   7.343  0.00  0.00    +0.023 A 
ATOM      8  C   UNL     1      -4.456  -1.637   7.416  0.00  0.00    +0.002 A 
ATOM      9  C   UNL     1      -4.752  -0.536   6.634  0.00  0.00    +0.000 A 
ATOM     10  C   UNL     1      -3.800  -0.012   5.781  0.00  0.00    +0.007 A 
ATOM     11  C   UNL     1      -2.543  -0.586   5.703  0.00  0.00    -0.007 A 
ATOM     12  C   UNL     1      -1.518   0.008   4.774  0.00  0.00    +0.155 C 
ATOM     13  N   UNL     1      -0.394  -0.919   4.590  0.00  0.00    -0.346 N 
ATOM     14  H   UNL     1      -0.682  -2.918   7.087  0.00  0.00    +0.153 HD
ENDROOT
BRANCH   3  15
ATOM     15  C   UNL     1       0.800  -4.184   4.891  0.00  0.00    +0.004 A 
ATOM     16  C   UNL     1      -0.261  -4.692   4.167  0.00  0.00    +0.008 A 
ATOM     17  C   UNL     1      -0.500  -6.053   4.152  0.00  0.00    +0.001 A 
ATOM     18  C   UNL     1       0.322  -6.910   4.861  0.00  0.00    +0.004 A 
ATOM     19  C   UNL     1       1.384  -6.407   5.586  0.00  0.00    +0.046 A 
ATOM     20  C   UNL     1       1.629  -5.041   5.599  0.00  0.00    +0.121 A 
BRANCH  20  21
ATOM     21  O   UNL     1       2.677  -4.544   6.307  0.00  0.00    -0.506 OA
ATOM     22  H   UNL     1       2.461  -4.317   7.222  0.00  0.00    +0.292 HD
ENDBRANCH  20  21
ENDBRANCH   3  15
BRANCH   1  24
ATOM     23  N   UNL     1       0.682   0.022   1.198  0.00  0.00    -0.142 N 
ATOM     24  C   UNL     1      -0.042  -0.497   2.210  0.00  0.00    +0.259 C 
ATOM     25  O   UNL     1      -1.224  -0.720   2.057  0.00  0.00    -0.272 OA
BRANCH  23  26
ATOM     26  S   UNL     1      -0.066   0.479  -0.206  0.00  0.00    +0.212 S 
ATOM     27  O   UNL     1      -1.450   0.600   0.092  0.00  0.00    -0.115 OA
ATOM     28  O   UNL     1       0.695   1.554  -0.740  0.00  0.00    -0.115 OA
BRANCH  26  29
ATOM     29  O   UNL     1       0.068  -0.678  -1.185  0.00  0.00    -0.331 OA
BRANCH  29  30
ATOM     30  C   UNL     1      -0.755  -1.726  -0.919  0.00  0.00    +0.158 A 
ATOM     31  C   UNL     1      -0.330  -2.749  -0.083  0.00  0.00    +0.048 A 
ATOM     32  C   UNL     1      -1.169  -3.812   0.187  0.00  0.00    +0.004 A 
ATOM     33  C   UNL     1      -2.431  -3.859  -0.376  0.00  0.00    +0.000 A 
ATOM     34  C   UNL     1      -2.857  -2.842  -1.209  0.00  0.00    +0.004 A 
ATOM     35  C   UNL     1      -2.024  -1.772  -1.477  0.00  0.00    +0.048 A 
ENDBRANCH  29  30
ENDBRANCH  26  29
ENDBRANCH  23  26
BRANCH  23  37
ATOM     36  C   UNL     1       2.828  -1.129   0.968  0.00  0.00    +0.026 C 
ATOM     37  C   UNL     1       2.132   0.181   1.342  0.00  0.00    +0.134 C 
ENDBRANCH  23  37
ENDBRANCH   1  24
TORSDOF 7
