REMARK  Name = ZINC00866899
REMARK  3 active torsions:
REMARK  status: ('A' for Active; 'I' for Inactive)
REMARK    1  A    between atoms: C_3  and  C_6
REMARK    2  A    between atoms: C_9  and  C_26
REMARK    3  A    between atoms: C_14  and  C_16
REMARK                            x       y       z     vdW  Elec       q    Type
REMARK                         _______ _______ _______ _____ _____    ______ ____
ROOT
ATOM      1  C   UNL     1       3.666   0.627  -0.060  0.00  0.00    +0.140 C 
ATOM      2  C   UNL     1       4.197   0.352  -1.471  0.00  0.00    +0.066 C 
ATOM      3  C   UNL     1       3.593  -0.948  -2.013  0.00  0.00    +0.215 C 
ATOM      4  N   UNL     1       3.760  -2.003  -1.009  0.00  0.00    -0.237 N 
ATOM      5  C   UNL     1       4.004  -1.760   0.313  0.00  0.00    +0.137 A 
ATOM      6  C   UNL     1       4.105  -2.945   0.947  0.00  0.00    +0.112 A 
ATOM      7  C   UNL     1       3.916  -3.962  -0.017  0.00  0.00    +0.167 A 
ATOM      8  N   UNL     1       3.709  -3.385  -1.189  0.00  0.00    -0.163 NA
ATOM      9 CL   UNL     1       4.413  -3.181   2.639  0.00  0.00    -0.078 Cl
ATOM     10  N   UNL     1       4.110  -0.461   0.833  0.00  0.00    -0.318 N 
ATOM     11  H   UNL     1       4.456  -0.287   1.723  0.00  0.00    +0.148 HD
ENDROOT
BRANCH   7  12
ATOM     12  C   UNL     1       3.945  -5.416   0.239  0.00  0.00    +0.268 C 
ATOM     13  O   UNL     1       4.253  -5.833   1.339  0.00  0.00    -0.268 OA
ATOM     14  N   UNL     1       3.630  -6.280  -0.746  0.00  0.00    -0.292 N 
ATOM     15  C   UNL     1       3.561  -7.728  -0.489  0.00  0.00    +0.136 C 
ATOM     16  C   UNL     1       2.225  -8.251  -1.028  0.00  0.00    +0.179 C 
ATOM     17  O   UNL     1       2.072  -7.839  -2.388  0.00  0.00    -0.377 OA
ATOM     18  C   UNL     1       2.019  -6.422  -2.568  0.00  0.00    +0.179 C 
ATOM     19  C   UNL     1       3.339  -5.804  -2.107  0.00  0.00    +0.136 C 
ENDBRANCH   7  12
BRANCH   1  22
ATOM     20  C   UNL     1       0.058   1.378  -0.124  0.00  0.00    +0.041 A 
ATOM     21  C   UNL     1       1.410   1.793  -0.099  0.00  0.00    +0.046 A 
ATOM     22  C   UNL     1       2.160   0.677  -0.087  0.00  0.00    +0.125 A 
ATOM     23  O   UNL     1       1.339  -0.386  -0.104  0.00  0.00    -0.466 OA
ATOM     24  C   UNL     1       0.064   0.033  -0.127  0.00  0.00    +0.195 A 
ENDBRANCH   1  22
BRANCH   3  25
ATOM     25  C   UNL     1       4.310  -1.347  -3.304  0.00  0.00    +0.412 C 
ATOM     26  F   UNL     1       5.670  -1.541  -3.041  0.00  0.00    -0.168 F 
ATOM     27  F   UNL     1       3.757  -2.534  -3.797  0.00  0.00    -0.168 F 
ATOM     28  F   UNL     1       4.158  -0.332  -4.255  0.00  0.00    -0.168 F 
ENDBRANCH   3  25
TORSDOF 3
