REMARK  Name = ZINC06335982
REMARK  9 active torsions:
REMARK  status: ('A' for Active; 'I' for Inactive)
REMARK    1  A    between atoms: C_1  and  N_47
REMARK    2  A    between atoms: C_2  and  N_47
REMARK    3  A    between atoms: C_3  and  C_9
REMARK    4  A    between atoms: C_3  and  N_47
REMARK    5  A    between atoms: C_9  and  N_10
REMARK    6  A    between atoms: N_10  and  C_11
REMARK    7  A    between atoms: C_11  and  N_13
REMARK    8  A    between atoms: N_13  and  C_14
REMARK    9  A    between atoms: C_16  and  N_21
REMARK                            x       y       z     vdW  Elec       q    Type
REMARK                         _______ _______ _______ _____ _____    ______ ____
ROOT
ATOM      1  C   UNL     1      -1.566   0.047  -1.739  0.00  0.00    +0.135 C 
ATOM      2  S   UNL     1      -0.250  -0.179  -0.667  0.00  0.00    -0.019 S 
ENDROOT
BRANCH   1   3
ATOM      3  N   UNL     1      -2.473   1.014  -1.498  0.00  0.00    -0.328 N 
ATOM      4  H   UNL     1      -3.218   1.142  -2.106  0.00  0.00    +0.148 HD
BRANCH   3   5
ATOM      5  C   UNL     1      -2.334   1.871  -0.318  0.00  0.00    +0.091 C 
BRANCH   5   6
ATOM      6  C   UNL     1      -3.551   2.792  -0.211  0.00  0.00    -0.050 C 
ATOM      7  C   UNL     1      -3.345   3.777   0.942  0.00  0.00    -0.010 C 
ATOM      8  C   UNL     1      -3.174   3.002   2.250  0.00  0.00    -0.001 C 
ATOM      9  C   UNL     1      -4.426   2.163   2.514  0.00  0.00    -0.000 C 
ATOM     10  C   UNL     1      -4.632   1.179   1.361  0.00  0.00    -0.001 C 
ATOM     11  C   UNL     1      -4.803   1.953   0.053  0.00  0.00    -0.010 C 
BRANCH   6  14
ATOM     12  C   UNL     1      -4.857   4.457  -1.388  0.00  0.00    -0.096 C 
ATOM     13  C   UNL     1      -2.483   4.254  -1.818  0.00  0.00    -0.096 C 
ATOM     14  N   UNL     1      -3.721   3.517  -1.488  0.00  0.00    +0.381 N 
ATOM     15  H   UNL     1      -3.914   2.838  -2.233  0.00  0.00    -0.082 HD
ENDBRANCH   6  14
ENDBRANCH   5   6
ENDBRANCH   3   5
ENDBRANCH   1   3
BRANCH   1  16
ATOM     16  N   UNL     1      -1.697  -0.746  -2.821  0.00  0.00    -0.296 N 
ATOM     17  H   UNL     1      -2.477  -0.663  -3.391  0.00  0.00    +0.154 HD
BRANCH  16  18
ATOM     18  C   UNL     1      -0.707  -1.689  -3.122  0.00  0.00    +0.053 A 
ATOM     19  C   UNL     1      -0.205  -2.513  -2.124  0.00  0.00    +0.057 A 
ATOM     20  C   UNL     1       0.768  -3.446  -2.425  0.00  0.00    +0.128 A 
ATOM     21  C   UNL     1       1.250  -3.553  -3.717  0.00  0.00    +0.034 A 
ATOM     22  C   UNL     1       0.756  -2.731  -4.713  0.00  0.00    +0.024 A 
ATOM     23  C   UNL     1      -0.221  -1.798  -4.419  0.00  0.00    +0.062 A 
ATOM     24 CL   UNL     1      -0.841  -0.765  -5.670  0.00  0.00    -0.082 Cl
BRANCH  20  25
ATOM     25  N   UNL     1       1.300  -4.328  -1.362  0.00  0.00    +0.056 N 
ATOM     26  O   UNL     1       2.162  -5.148  -1.626  0.00  0.00    -0.126 OA
ATOM     27  O   UNL     1       0.876  -4.235  -0.224  0.00  0.00    -0.126 OA
ENDBRANCH  20  25
ENDBRANCH  16  18
ENDBRANCH   1  16
TORSDOF 7
