REMARK  Name = ZINC36584411
REMARK  17 active torsions:
REMARK  status: ('A' for Active; 'I' for Inactive)
REMARK    1  A    between atoms: C_1  and  C_2
REMARK    2  A    between atoms: C_2  and  C_3
REMARK    3  A    between atoms: C_3  and  C_4
REMARK    4  A    between atoms: C_4  and  N_5
REMARK    5  A    between atoms: C_6  and  C_8
REMARK    6  A    between atoms: C_8  and  C_10
REMARK    7  A    between atoms: C_8  and  N_19
REMARK    8  A    between atoms: C_11  and  O_18
REMARK    9  A    between atoms: C_13  and  O_17
REMARK   10  A    between atoms: C_15  and  O_16
REMARK   11  A    between atoms: N_19  and  C_30
REMARK   12  A    between atoms: C_20  and  C_22
REMARK   13  A    between atoms: C_25  and  O_28
REMARK   14  A    between atoms: O_28  and  C_29
REMARK   15  A    between atoms: C_30  and  C_31
REMARK   16  A    between atoms: C_30  and  C_32
REMARK   17  A    between atoms: C_30  and  C_33
REMARK                            x       y       z     vdW  Elec       q    Type
REMARK                         _______ _______ _______ _____ _____    ______ ____
ROOT
ATOM      1  C   UNL     1       2.266  -3.634  -1.855  0.00  0.00    +0.200 C 
ENDROOT
BRANCH   1   2
ATOM      2  C   UNL     1       3.603  -3.267  -1.266  0.00  0.00    +0.065 A 
ATOM      3  C   UNL     1       4.552  -4.251  -1.033  0.00  0.00    +0.129 A 
ATOM      4  C   UNL     1       5.783  -3.913  -0.491  0.00  0.00    +0.091 A 
ATOM      5  C   UNL     1       6.065  -2.591  -0.182  0.00  0.00    +0.124 A 
ATOM      6  C   UNL     1       5.117  -1.607  -0.415  0.00  0.00    +0.091 A 
ATOM      7  C   UNL     1       3.888  -1.944  -0.962  0.00  0.00    +0.129 A 
BRANCH   7   8
ATOM      8  O   UNL     1       2.960  -0.979  -1.195  0.00  0.00    -0.506 OA
ATOM      9  H   UNL     1       2.365  -0.816  -0.450  0.00  0.00    +0.292 HD
ENDBRANCH   7   8
BRANCH   5  10
ATOM     10  O   UNL     1       7.271  -2.260   0.350  0.00  0.00    -0.507 OA
ATOM     11  H   UNL     1       7.946  -2.044  -0.308  0.00  0.00    +0.292 HD
ENDBRANCH   5  10
BRANCH   3  12
ATOM     12  O   UNL     1       4.276  -5.547  -1.336  0.00  0.00    -0.506 OA
ATOM     13  H   UNL     1       4.461  -5.784  -2.255  0.00  0.00    +0.292 HD
ENDBRANCH   3  12
ENDBRANCH   1   2
BRANCH   1  15
ATOM     14  N   UNL     1       1.366  -3.006   0.362  0.00  0.00    -0.313 N 
ATOM     15  C   UNL     1       1.247  -3.757  -0.751  0.00  0.00    +0.238 C 
ATOM     16  O   UNL     1       0.321  -4.532  -0.864  0.00  0.00    -0.273 OA
ATOM     17  H   UNL     1       2.107  -2.387   0.452  0.00  0.00    +0.149 HD
BRANCH  14  18
ATOM     18  C   UNL     1       0.376  -3.126   1.435  0.00  0.00    +0.104 C 
BRANCH  18  19
ATOM     19  C   UNL     1       0.741  -2.171   2.574  0.00  0.00    +0.018 C 
BRANCH  19  21
ATOM     20  C   UNL     1       0.071  -1.342   4.834  0.00  0.00    +0.004 C 
ATOM     21  C   UNL     1      -0.293  -2.296   3.695  0.00  0.00    -0.002 C 
ENDBRANCH  19  21
ENDBRANCH  18  19
ENDBRANCH  14  18
ENDBRANCH   1  15
BRANCH   1  22
ATOM     22  N   UNL     1       2.378  -4.913  -2.561  0.00  0.00    -0.277 N 
ATOM     23  C   UNL     1       3.092  -4.993  -3.701  0.00  0.00    +0.248 C 
ATOM     24  O   UNL     1       2.928  -5.931  -4.457  0.00  0.00    -0.270 OA
BRANCH  23  25
ATOM     25  C   UNL     1       4.075  -3.942  -4.032  0.00  0.00    +0.037 A 
ATOM     26  C   UNL     1       4.065  -2.731  -3.336  0.00  0.00    +0.016 A 
ATOM     27  C   UNL     1       4.983  -1.753  -3.647  0.00  0.00    +0.046 A 
ATOM     28  C   UNL     1       5.919  -1.970  -4.652  0.00  0.00    +0.120 A 
ATOM     29  C   UNL     1       5.932  -3.174  -5.346  0.00  0.00    +0.046 A 
ATOM     30  C   UNL     1       5.020  -4.159  -5.037  0.00  0.00    +0.016 A 
BRANCH  28  31
ATOM     31  O   UNL     1       6.822  -1.004  -4.957  0.00  0.00    -0.495 OA
ATOM     32  C   UNL     1       7.755  -1.293  -6.000  0.00  0.00    +0.277 C 
ENDBRANCH  28  31
ENDBRANCH  23  25
BRANCH  22  33
ATOM     33  C   UNL     1       1.713  -6.104  -2.028  0.00  0.00    +0.030 C 
ATOM     34  C   UNL     1       0.225  -6.059  -2.380  0.00  0.00    +0.031 C 
ATOM     35  C   UNL     1       2.343  -7.357  -2.640  0.00  0.00    +0.031 C 
ATOM     36  C   UNL     1       1.876  -6.142  -0.507  0.00  0.00    +0.031 C 
ENDBRANCH  22  33
ENDBRANCH   1  22
TORSDOF 12
