REMARK  Name = ZINC63240823
REMARK  2 active torsions:
REMARK  status: ('A' for Active; 'I' for Inactive)
REMARK    1  A    between atoms: C_5  and  C_7
REMARK    2  A    between atoms: C_11  and  C_23
REMARK                            x       y       z     vdW  Elec       q    Type
REMARK                         _______ _______ _______ _____ _____    ______ ____
ROOT
ATOM      1  C   UNL     1       1.229  -2.186  -0.022  0.00  0.00    +0.063 C 
ATOM      2  C   UNL     1       0.363  -2.720  -1.178  0.00  0.00    +0.094 C 
ATOM      3  N   UNL     1      -1.054  -2.454  -0.915  0.00  0.00    -0.307 NA
ATOM      4  C   UNL     1      -1.575  -3.175   0.258  0.00  0.00    +0.111 C 
ATOM      5  C   UNL     1      -0.888  -2.617   1.507  0.00  0.00    +0.128 C 
ATOM      6  C   UNL     1       0.615  -2.720   1.249  0.00  0.00    -0.028 C 
ATOM      7  C   UNL     1       1.133  -3.344   2.297  0.00  0.00    -0.000 A 
ATOM      8  C   UNL     1       2.525  -3.629   2.682  0.00  0.00    +0.010 A 
ATOM      9  C   UNL     1       2.697  -4.328   3.834  0.00  0.00    +0.001 A 
ATOM     10  C   UNL     1       1.638  -4.768   4.634  0.00  0.00    +0.002 A 
ATOM     11  C   UNL     1       0.328  -4.540   4.363  0.00  0.00    +0.026 A 
ATOM     12  C   UNL     1       0.020  -3.805   3.182  0.00  0.00    +0.043 A 
ATOM     13  N   UNL     1      -1.152  -3.411   2.704  0.00  0.00    -0.376 N 
ATOM     14  H   UNL     1      -1.228  -1.463  -0.836  0.00  0.00    +0.123 HD
ATOM     15  H   UNL     1      -2.027  -3.611   3.072  0.00  0.00    +0.160 HD
ENDROOT
BRANCH   1  20
ATOM     16  C   UNL     1       0.006   1.377   0.234  0.00  0.00    +0.000 A 
ATOM     17  C   UNL     1       1.171   2.086   0.002  0.00  0.00    +0.001 A 
ATOM     18  C   UNL     1       2.354   1.413  -0.237  0.00  0.00    +0.020 A 
ATOM     19  C   UNL     1       2.373   0.030  -0.245  0.00  0.00    +0.045 A 
ATOM     20  C   UNL     1       1.208  -0.679  -0.013  0.00  0.00    -0.021 A 
ATOM     21  C   UNL     1       0.025  -0.005   0.226  0.00  0.00    +0.006 A 
ATOM     22 CL   UNL     1       3.859  -0.816  -0.547  0.00  0.00    -0.083 Cl
ENDBRANCH   1  20
BRANCH   4  23
ATOM     23  C   UNL     1      -3.064  -2.969   0.362  0.00  0.00    -0.028 A 
ATOM     24  C   UNL     1      -3.611  -1.730   0.085  0.00  0.00    +0.006 A 
ATOM     25  C   UNL     1      -4.977  -1.541   0.179  0.00  0.00    +0.020 A 
ATOM     26  C   UNL     1      -5.797  -2.592   0.551  0.00  0.00    +0.041 A 
ATOM     27  C   UNL     1      -5.248  -3.832   0.829  0.00  0.00    +0.020 A 
ATOM     28  C   UNL     1      -3.883  -4.021   0.728  0.00  0.00    +0.006 A 
ATOM     29 CL   UNL     1      -7.512  -2.355   0.671  0.00  0.00    -0.084 Cl
ENDBRANCH   4  23
TORSDOF 2
