REMARK  Name = ZINC14937266
REMARK  7 active torsions:
REMARK  status: ('A' for Active; 'I' for Inactive)
REMARK    1  A    between atoms: C_1  and  C_2
REMARK    2  A    between atoms: C_2  and  C_4
REMARK    3  A    between atoms: C_2  and  O_22
REMARK    4  A    between atoms: N_6  and  N_7
REMARK    5  A    between atoms: C_8  and  C_10
REMARK    6  A    between atoms: C_14  and  N_16
REMARK    7  A    between atoms: O_22  and  C_23
REMARK                            x       y       z     vdW  Elec       q    Type
REMARK                         _______ _______ _______ _____ _____    ______ ____
ROOT
ATOM      1  N   UNL     1       3.327  -5.854  -1.986  0.00  0.00    -0.230 N 
ATOM      2  C   UNL     1       4.409  -6.617  -2.236  0.00  0.00    +0.260 C 
ATOM      3  O   UNL     1       5.500  -6.281  -1.819  0.00  0.00    -0.269 OA
ATOM      4  H   UNL     1       2.457  -6.122  -2.318  0.00  0.00    +0.173 HD
ENDROOT
BRANCH   2   5
ATOM      5  C   UNL     1       4.269  -7.865  -3.017  0.00  0.00    +0.040 A 
ATOM      6  C   UNL     1       3.016  -8.257  -3.492  0.00  0.00    +0.013 A 
ATOM      7  C   UNL     1       2.888  -9.419  -4.224  0.00  0.00    +0.003 A 
ATOM      8  C   UNL     1       3.997 -10.204  -4.482  0.00  0.00    +0.023 A 
ATOM      9  C   UNL     1       5.247  -9.826  -4.010  0.00  0.00    +0.037 A 
ATOM     10  C   UNL     1       5.387  -8.657  -3.277  0.00  0.00    +0.036 A 
BRANCH   9  11
ATOM     11  N   UNL     1       6.366 -10.624  -4.273  0.00  0.00    -0.271 N 
ATOM     12  C   UNL     1       6.351 -11.812  -5.136  0.00  0.00    +0.114 C 
ATOM     13  C   UNL     1       7.639 -12.591  -4.787  0.00  0.00    +0.029 C 
ATOM     14  C   UNL     1       8.554 -11.464  -4.254  0.00  0.00    +0.098 C 
ATOM     15  C   UNL     1       7.593 -10.399  -3.773  0.00  0.00    +0.220 C 
ATOM     16  O   UNL     1       7.887  -9.478  -3.042  0.00  0.00    -0.275 OA
ENDBRANCH   9  11
ENDBRANCH   2   5
BRANCH   1  19
ATOM     17  C   UNL     1       2.378  -3.908  -0.995  0.00  0.00    +0.270 C 
ATOM     18  O   UNL     1       1.290  -4.244  -1.411  0.00  0.00    -0.270 OA
ATOM     19  N   UNL     1       3.460  -4.672  -1.246  0.00  0.00    -0.231 N 
ATOM     20  H   UNL     1       4.331  -4.403  -0.913  0.00  0.00    +0.173 HD
BRANCH  17  22
ATOM     21  C   UNL     1       3.072  -2.964   1.190  0.00  0.00    +0.062 C 
ATOM     22  C   UNL     1       2.521  -2.636  -0.199  0.00  0.00    +0.257 C 
BRANCH  22  23
ATOM     23  O   UNL     1       1.244  -2.009  -0.070  0.00  0.00    -0.480 OA
BRANCH  23  24
ATOM     24  C   UNL     1       1.234  -0.666   0.137  0.00  0.00    +0.123 A 
ATOM     25  C   UNL     1       2.427   0.017   0.324  0.00  0.00    +0.046 A 
ATOM     26  C   UNL     1       2.415   1.382   0.534  0.00  0.00    +0.005 A 
ATOM     27  C   UNL     1       1.216   2.069   0.556  0.00  0.00    +0.015 A 
ATOM     28  C   UNL     1       0.024   1.391   0.369  0.00  0.00    +0.021 A 
ATOM     29  C   UNL     1       0.032   0.024   0.160  0.00  0.00    +0.061 A 
ATOM     30 BR   UNL     1      -1.615   2.334   0.401  0.00  0.00    -0.050 Br
ENDBRANCH  23  24
ENDBRANCH  22  23
ENDBRANCH  17  22
ENDBRANCH   1  19
TORSDOF 6
