REMARK  Name = ZINC58884406
REMARK  13 active torsions:
REMARK  status: ('A' for Active; 'I' for Inactive)
REMARK    1  A    between atoms: C_1  and  C_2
REMARK    2  A    between atoms: C_2  and  O_3
REMARK    3  A    between atoms: O_3  and  C_4
REMARK    4  A    between atoms: C_7  and  N_10
REMARK    5  A    between atoms: C_11  and  C_13
REMARK    6  A    between atoms: N_15  and  N_16
REMARK    7  A    between atoms: C_17  and  C_18
REMARK    8  A    between atoms: C_21  and  O_24
REMARK    9  A    between atoms: O_24  and  C_25
REMARK   10  A    between atoms: C_25  and  C_26
REMARK   11  A    between atoms: N_28  and  C_29
REMARK   12  A    between atoms: C_29  and  C_31
REMARK   13  A    between atoms: C_29  and  C_32
REMARK                            x       y       z     vdW  Elec       q    Type
REMARK                         _______ _______ _______ _____ _____    ______ ____
ROOT
ATOM      1  C   UNL     1       2.729 -11.739  -5.849  0.00  0.00    -0.005 A 
ATOM      2  C   UNL     1       2.186 -12.601  -4.893  0.00  0.00    +0.013 A 
ATOM      3  C   UNL     1       2.202 -13.962  -5.107  0.00  0.00    +0.046 A 
ATOM      4  C   UNL     1       2.757 -14.478  -6.271  0.00  0.00    +0.121 A 
ATOM      5  C   UNL     1       3.299 -13.625  -7.224  0.00  0.00    +0.046 A 
ATOM      6  C   UNL     1       3.282 -12.262  -7.022  0.00  0.00    +0.013 A 
ENDROOT
BRANCH   1   8
ATOM      7  N   UNL     1       2.200  -9.798  -4.535  0.00  0.00    -0.187 NA
ATOM      8  C   UNL     1       2.714 -10.283  -5.626  0.00  0.00    +0.138 C 
BRANCH   7  11
ATOM      9  C   UNL     1       1.652  -7.911  -3.191  0.00  0.00    +0.318 C 
ATOM     10  O   UNL     1       1.183  -8.659  -2.357  0.00  0.00    -0.263 OA
ATOM     11  N   UNL     1       2.185  -8.414  -4.322  0.00  0.00    -0.199 N 
ATOM     12  H   UNL     1       2.559  -7.816  -4.989  0.00  0.00    +0.178 HD
BRANCH   9  14
ATOM     13  N   UNL     1       1.103  -5.936  -1.834  0.00  0.00    -0.278 N 
ATOM     14  C   UNL     1       1.636  -6.438  -2.965  0.00  0.00    +0.305 C 
ATOM     15  O   UNL     1       2.104  -5.691  -3.799  0.00  0.00    -0.265 OA
ATOM     16  H   UNL     1       0.798  -6.534  -1.134  0.00  0.00    +0.155 HD
BRANCH  13  20
ATOM     17  C   UNL     1       0.758  -1.811  -1.344  0.00  0.00    +0.121 A 
ATOM     18  C   UNL     1       0.627  -2.373  -2.606  0.00  0.00    +0.047 A 
ATOM     19  C   UNL     1       0.741  -3.739  -2.769  0.00  0.00    +0.027 A 
ATOM     20  C   UNL     1       0.988  -4.551  -1.669  0.00  0.00    +0.034 A 
ATOM     21  C   UNL     1       1.119  -3.988  -0.406  0.00  0.00    +0.027 A 
ATOM     22  C   UNL     1       1.010  -2.621  -0.246  0.00  0.00    +0.047 A 
BRANCH  17  23
ATOM     23  O   UNL     1       0.646  -0.466  -1.184  0.00  0.00    -0.492 OA
BRANCH  23  25
ATOM     24  C   UNL     1       0.293   1.788  -1.982  0.00  0.00    +0.048 C 
ATOM     25  C   UNL     1       0.386   0.307  -2.357  0.00  0.00    +0.225 C 
ENDBRANCH  23  25
ENDBRANCH  17  23
ENDBRANCH  13  20
ENDBRANCH   9  14
ENDBRANCH   7  11
ENDBRANCH   1   8
BRANCH   4  26
ATOM     26  O   UNL     1       2.771 -15.820  -6.478  0.00  0.00    -0.483 OA
BRANCH  26  27
ATOM     27  C   UNL     1       3.357 -16.283  -7.696  0.00  0.00    +0.324 C 
BRANCH  27  28
ATOM     28  C   UNL     1       3.282 -17.787  -7.750  0.00  0.00    +0.251 C 
ATOM     29  O   UNL     1       2.777 -18.402  -6.835  0.00  0.00    -0.272 OA
ATOM     30  N   UNL     1       3.777 -18.449  -8.814  0.00  0.00    -0.306 N 
ATOM     31  H   UNL     1       4.182 -17.957  -9.546  0.00  0.00    +0.149 HD
BRANCH  30  32
ATOM     32  C   UNL     1       3.704 -19.911  -8.866  0.00  0.00    +0.100 C 
ATOM     33  C   UNL     1       4.902 -20.508  -8.124  0.00  0.00    +0.033 C 
BRANCH  32  34
ATOM     34  C   UNL     1       3.728 -20.364 -10.303  0.00  0.00    -0.027 A 
ATOM     35  C   UNL     1       4.564 -19.742 -11.211  0.00  0.00    +0.005 A 
ATOM     36  C   UNL     1       4.586 -20.157 -12.529  0.00  0.00    +0.000 A 
ATOM     37  C   UNL     1       3.771 -21.196 -12.940  0.00  0.00    +0.000 A 
ATOM     38  C   UNL     1       2.936 -21.819 -12.032  0.00  0.00    +0.000 A 
ATOM     39  C   UNL     1       2.917 -21.407 -10.713  0.00  0.00    +0.005 A 
ENDBRANCH  32  34
ENDBRANCH  30  32
ENDBRANCH  27  28
ENDBRANCH  26  27
ENDBRANCH   4  26
TORSDOF 11
