REMARK  Name = ZINC19819610
REMARK  4 active torsions:
REMARK  status: ('A' for Active; 'I' for Inactive)
REMARK    1  A    between atoms: C_4  and  C_7
REMARK    2  A    between atoms: C_19  and  C_21
REMARK    3  A    between atoms: C_21  and  S_22
REMARK    4  A    between atoms: S_22  and  C_23
REMARK                            x       y       z     vdW  Elec       q    Type
REMARK                         _______ _______ _______ _____ _____    ______ ____
ROOT
ATOM      1  C   UNL     1       3.698  -0.688  -0.038  0.00  0.00    +0.080 A 
ATOM      2  C   UNL     1       3.727  -2.055  -0.051  0.00  0.00    +0.076 A 
ATOM      3  S   UNL     1       5.491  -2.349  -0.069  0.00  0.00    -0.060 S 
ATOM      4  C   UNL     1       6.003  -0.636  -0.058  0.00  0.00    +0.165 A 
ATOM      5  N   UNL     1       4.839  -0.014  -0.047  0.00  0.00    -0.225 NA
ATOM      6  N   UNL     1       7.285  -0.102  -0.064  0.00  0.00    -0.264 N 
ATOM      7  C   UNL     1       8.374  -0.935  -0.081  0.00  0.00    +0.202 A 
ATOM      8  N   UNL     1       9.625  -0.400  -0.081  0.00  0.00    -0.295 N 
ATOM      9  H   UNL     1       9.742   0.563  -0.069  0.00  0.00    +0.172 HD
ATOM     10  C   UNL     1      10.703  -1.213  -0.098  0.00  0.00    +0.253 A 
ATOM     11  O   UNL     1      11.831  -0.750  -0.098  0.00  0.00    -0.268 OA
ATOM     12  C   UNL     1      10.499  -2.604  -0.115  0.00  0.00    +0.094 A 
ATOM     13  C   UNL     1       9.221  -3.084  -0.114  0.00  0.00    +0.060 A 
ATOM     14  N   UNL     1       8.192  -2.240  -0.092  0.00  0.00    -0.220 NA
ATOM     15  H   UNL     1       7.409   0.859  -0.056  0.00  0.00    +0.157 HD
ENDROOT
BRANCH   1  19
ATOM     16  C   UNL     1      -0.017   1.379   0.010  0.00  0.00    +0.000 A 
ATOM     17  C   UNL     1       1.169   2.092   0.002  0.00  0.00    +0.001 A 
ATOM     18  C   UNL     1       2.377   1.427  -0.013  0.00  0.00    +0.010 A 
ATOM     19  C   UNL     1       2.402   0.033  -0.021  0.00  0.00    +0.001 A 
ATOM     20  C   UNL     1       1.205  -0.680  -0.013  0.00  0.00    +0.010 A 
ATOM     21  C   UNL     1       0.002  -0.004   0.002  0.00  0.00    +0.001 A 
ENDBRANCH   1  19
BRANCH  13  22
ATOM     22  C   UNL     1       8.975  -4.571  -0.132  0.00  0.00    +0.130 C 
BRANCH  22  23
ATOM     23  S   UNL     1       8.450  -5.117   1.516  0.00  0.00    -0.119 S 
BRANCH  23  24
ATOM     24  C   UNL     1       8.206  -6.852   1.332  0.00  0.00    +0.008 A 
ATOM     25  C   UNL     1       8.432  -7.461   0.104  0.00  0.00    +0.016 A 
ATOM     26  C   UNL     1       8.240  -8.821  -0.037  0.00  0.00    +0.021 A 
ATOM     27  C   UNL     1       7.822  -9.578   1.044  0.00  0.00    +0.041 A 
ATOM     28  C   UNL     1       7.595  -8.974   2.268  0.00  0.00    +0.021 A 
ATOM     29  C   UNL     1       7.791  -7.615   2.417  0.00  0.00    +0.016 A 
ATOM     30 CL   UNL     1       7.581 -11.287   0.863  0.00  0.00    -0.084 Cl
ENDBRANCH  23  24
ENDBRANCH  22  23
ENDBRANCH  13  22
TORSDOF 4
