REMARK  Name = ZINC27972684
REMARK  6 active torsions:
REMARK  status: ('A' for Active; 'I' for Inactive)
REMARK    1  A    between atoms: C_4  and  O_8
REMARK    2  A    between atoms: O_8  and  C_9
REMARK    3  A    between atoms: C_9  and  N_10
REMARK    4  A    between atoms: C_13  and  C_15
REMARK    5  A    between atoms: N_17  and  C_18
REMARK    6  A    between atoms: C_18  and  C_19
REMARK                            x       y       z     vdW  Elec       q    Type
REMARK                         _______ _______ _______ _____ _____    ______ ____
ROOT
ATOM      1  N   UNL     1       0.574   3.172   0.014  0.00  0.00    -0.235 N 
ATOM      2  C   UNL     1       1.054   1.910   0.002  0.00  0.00    +0.113 A 
ATOM      3  C   UNL     1      -0.013   1.076   0.008  0.00  0.00    +0.054 A 
ATOM      4  C   UNL     1      -1.151   1.917   0.017  0.00  0.00    +0.147 A 
ATOM      5  N   UNL     1      -0.710   3.159   0.026  0.00  0.00    -0.164 NA
ENDROOT
BRANCH   4   6
ATOM      6  C   UNL     1      -2.563   1.485   0.020  0.00  0.00    +0.265 C 
ATOM      7  O   UNL     1      -2.836   0.300   0.014  0.00  0.00    -0.268 OA
ATOM      8  N   UNL     1      -3.549   2.404   0.029  0.00  0.00    -0.303 N 
ATOM      9  H   UNL     1      -3.301   3.475   0.034  0.00  0.00    +0.150 HD
BRANCH   8  10
ATOM     10  C   UNL     1      -4.950   1.975   0.031  0.00  0.00    +0.179 C 
BRANCH  10  11
ATOM     11  C   UNL     1      -5.846   3.187   0.042  0.00  0.00    +0.122 A 
ATOM     12  C   UNL     1      -6.317   3.826  -1.044  0.00  0.00    +0.046 A 
ATOM     13  C   UNL     1      -7.111   4.898  -0.575  0.00  0.00    +0.041 A 
ATOM     14  C   UNL     1      -7.076   4.850   0.768  0.00  0.00    +0.195 A 
ATOM     15  O   UNL     1      -6.313   3.808   1.137  0.00  0.00    -0.466 OA
ENDBRANCH  10  11
ENDBRANCH   8  10
ENDBRANCH   4   6
BRANCH   1  16
ATOM     16  C   UNL     1       1.400   4.382   0.013  0.00  0.00    +0.374 C 
BRANCH  16  17
ATOM     17  O   UNL     1       2.781   4.016  -0.002  0.00  0.00    -0.467 OA
BRANCH  17  21
ATOM     18  C   UNL     1       5.535   7.091  -0.011  0.00  0.00    +0.003 A 
ATOM     19  C   UNL     1       5.086   6.570   1.189  0.00  0.00    +0.024 A 
ATOM     20  C   UNL     1       4.163   5.540   1.195  0.00  0.00    +0.084 A 
ATOM     21  C   UNL     1       3.688   5.029  -0.005  0.00  0.00    +0.160 A 
ATOM     22  C   UNL     1       4.145   5.549  -1.207  0.00  0.00    +0.084 A 
ATOM     23  C   UNL     1       5.064   6.583  -1.207  0.00  0.00    +0.024 A 
ATOM     24 CL   UNL     1       3.560   4.908  -2.711  0.00  0.00    -0.080 Cl
ATOM     25 CL   UNL     1       3.600   4.886   2.701  0.00  0.00    -0.080 Cl
ENDBRANCH  17  21
ENDBRANCH  16  17
ENDBRANCH   1  16
TORSDOF 6
