REMARK  Name = ZINC66845960
REMARK  4 active torsions:
REMARK  status: ('A' for Active; 'I' for Inactive)
REMARK    1  A    between atoms: C_5  and  C_7
REMARK    2  A    between atoms: N_10  and  C_14
REMARK    3  A    between atoms: C_14  and  C_15
REMARK    4  A    between atoms: C_15  and  C_16
REMARK                            x       y       z     vdW  Elec       q    Type
REMARK                         _______ _______ _______ _____ _____    ______ ____
ROOT
ATOM      1  C   UNL     1       1.715  -6.231   2.650  0.00  0.00    +0.111 C 
ENDROOT
BRANCH   1   2
ATOM      2  C   UNL     1       1.883  -6.789   4.040  0.00  0.00    +0.217 C 
ATOM      3  O   UNL     1       1.856  -6.047   4.999  0.00  0.00    -0.276 OA
ATOM      4  N   UNL     1       2.065  -8.113   4.217  0.00  0.00    -0.298 N 
ATOM      5  C   UNL     1       2.107  -9.023   3.064  0.00  0.00    +0.126 C 
ATOM      6  C   UNL     1       3.418  -9.816   3.113  0.00  0.00    +0.125 C 
ATOM      7  N   UNL     1       3.578 -10.376   4.463  0.00  0.00    -0.314 N 
ATOM      8  C   UNL     1       3.536  -9.466   5.616  0.00  0.00    +0.125 C 
ATOM      9  C   UNL     1       2.231  -8.671   5.566  0.00  0.00    +0.126 C 
ATOM     10  C   UNL     1       3.765 -11.741   4.645  0.00  0.00    +0.099 A 
ATOM     11  C   UNL     1       3.677 -12.601   3.555  0.00  0.00    +0.042 A 
ATOM     12  C   UNL     1       3.866 -13.957   3.751  0.00  0.00    +0.005 A 
ATOM     13  C   UNL     1       4.137 -14.409   5.035  0.00  0.00    +0.018 A 
ATOM     14  C   UNL     1       4.210 -13.500   6.071  0.00  0.00    +0.084 A 
ATOM     15  N   UNL     1       4.032 -12.211   5.854  0.00  0.00    -0.350 N 
ATOM     16  H   UNL     1       4.092 -11.593   6.599  0.00  0.00    +0.166 HD
ENDBRANCH   1   2
BRANCH   1  17
ATOM     17  C   UNL     1       1.527  -4.715   2.729  0.00  0.00    +0.094 C 
BRANCH  17  20
ATOM     18  C   UNL     1       1.302  -2.179  -0.048  0.00  0.00    +0.165 C 
ATOM     19  C   UNL     1       1.417  -2.701   1.387  0.00  0.00    +0.121 C 
ATOM     20  N   UNL     1       1.363  -4.170   1.375  0.00  0.00    -0.297 NA
ATOM     21  C   UNL     1       0.109  -4.640   0.766  0.00  0.00    +0.112 C 
ATOM     22  C   UNL     1       0.008  -4.099  -0.662  0.00  0.00    +0.176 C 
ATOM     23  O   UNL     1       0.094  -2.672  -0.634  0.00  0.00    -0.369 OA
BRANCH  18  28
ATOM     24  C   UNL     1       0.046   1.381  -0.033  0.00  0.00    +0.001 A 
ATOM     25  C   UNL     1       1.231   2.093  -0.012  0.00  0.00    +0.003 A 
ATOM     26  C   UNL     1       2.440   1.424  -0.003  0.00  0.00    +0.039 A 
ATOM     27  C   UNL     1       2.464   0.039  -0.015  0.00  0.00    +0.129 A 
ATOM     28  C   UNL     1       1.277  -0.673  -0.035  0.00  0.00    +0.018 A 
ATOM     29  C   UNL     1       0.069  -0.001  -0.044  0.00  0.00    +0.009 A 
ATOM     30  F   UNL     1       3.645  -0.617  -0.006  0.00  0.00    -0.205 F 
ENDBRANCH  18  28
ENDBRANCH  17  20
ENDBRANCH   1  17
TORSDOF 4
