REMARK  Name = ZINC36207385
REMARK  19 active torsions:
REMARK  status: ('A' for Active; 'I' for Inactive)
REMARK    1  A    between atoms: C_1  and  C_2
REMARK    2  A    between atoms: C_8  and  C_19
REMARK    3  A    between atoms: C_12  and  C_13
REMARK    4  A    between atoms: C_13  and  O_15
REMARK    5  A    between atoms: O_15  and  C_16
REMARK    6  A    between atoms: C_16  and  C_17
REMARK    7  A    between atoms: C_16  and  C_18
REMARK    8  A    between atoms: C_19  and  N_20
REMARK    9  A    between atoms: N_20  and  C_21
REMARK   10  A    between atoms: N_20  and  C_33
REMARK   11  A    between atoms: C_21  and  C_22
REMARK   12  A    between atoms: C_22  and  C_24
REMARK   13  A    between atoms: C_22  and  O_32
REMARK   14  A    between atoms: C_24  and  O_25
REMARK   15  A    between atoms: O_25  and  C_26
REMARK   16  A    between atoms: C_26  and  C_27
REMARK   17  A    between atoms: C_33  and  C_34
REMARK   18  A    between atoms: C_34  and  C_35
REMARK   19  A    between atoms: C_34  and  C_36
REMARK                            x       y       z     vdW  Elec       q    Type
REMARK                         _______ _______ _______ _____ _____    ______ ____
ROOT
ATOM      1  C   UNL     1       0.253  -3.690  -4.683  0.00  0.00    -0.003 C 
ENDROOT
BRANCH   1   9
ATOM      2  C   UNL     1      -4.848  -2.376  -8.747  0.00  0.00    +0.046 C 
ATOM      3  C   UNL     1      -4.474  -3.462  -7.772  0.00  0.00    -0.015 A 
ATOM      4  C   UNL     1      -3.267  -3.390  -7.073  0.00  0.00    +0.076 A 
ATOM      5  C   UNL     1      -2.214  -2.350  -7.130  0.00  0.00    +0.260 A 
ATOM      6  O   UNL     1      -2.329  -1.383  -7.862  0.00  0.00    -0.267 OA
ATOM      7  N   UNL     1      -1.125  -2.501  -6.351  0.00  0.00    -0.312 N 
ATOM      8  H   UNL     1      -0.426  -1.829  -6.376  0.00  0.00    +0.170 HD
ATOM      9  C   UNL     1      -0.987  -3.573  -5.532  0.00  0.00    +0.094 A 
ATOM     10  N   UNL     1      -1.895  -4.507  -5.458  0.00  0.00    -0.229 NA
ATOM     11  C   UNL     1      -3.006  -4.456  -6.182  0.00  0.00    +0.116 A 
ATOM     12  S   UNL     1      -4.435  -5.494  -6.359  0.00  0.00    -0.062 S 
ATOM     13  C   UNL     1      -5.316  -4.517  -7.565  0.00  0.00    +0.102 A 
BRANCH  13  14
ATOM     14  C   UNL     1      -6.617  -4.782  -8.182  0.00  0.00    +0.346 C 
ATOM     15  O   UNL     1      -7.074  -4.003  -8.997  0.00  0.00    -0.244 OA
BRANCH  14  16
ATOM     16  O   UNL     1      -7.309  -5.890  -7.847  0.00  0.00    -0.458 OA
BRANCH  16  17
ATOM     17  C   UNL     1      -8.572  -6.085  -8.488  0.00  0.00    +0.171 C 
ATOM     18  C   UNL     1      -8.370  -6.883  -9.778  0.00  0.00    +0.052 C 
ATOM     19  C   UNL     1      -9.505  -6.855  -7.552  0.00  0.00    +0.052 C 
ENDBRANCH  16  17
ENDBRANCH  14  16
ENDBRANCH  13  14
ENDBRANCH   1   9
BRANCH   1  20
ATOM     20  N   UNL     1       0.251  -4.984  -3.988  0.00  0.00    +0.386 N 
ATOM     21  H   UNL     1      -0.618  -5.095  -3.487  0.00  0.00    -0.081 HD
BRANCH  20  22
ATOM     22  C   UNL     1       0.392  -6.067  -4.970  0.00  0.00    -0.044 C 
BRANCH  22  23
ATOM     23  C   UNL     1       0.265  -7.418  -4.262  0.00  0.00    +0.124 C 
BRANCH  23  24
ATOM     24  O   UNL     1      -1.056  -7.556  -3.734  0.00  0.00    -0.391 OA
ATOM     25  H   UNL     1      -1.753  -7.518  -4.403  0.00  0.00    +0.210 HD
ENDBRANCH  23  24
BRANCH  23  26
ATOM     26  C   UNL     1       0.535  -8.545  -5.260  0.00  0.00    +0.189 C 
BRANCH  26  27
ATOM     27  O   UNL     1       0.531  -9.799  -4.575  0.00  0.00    -0.370 OA
BRANCH  27  28
ATOM     28  C   UNL     1       0.775 -10.924  -5.421  0.00  0.00    +0.234 C 
BRANCH  28  29
ATOM     29  C   UNL     1       0.749 -12.187  -4.599  0.00  0.00    +0.130 A 
ATOM     30  C   UNL     1      -0.336 -12.944  -4.356  0.00  0.00    +0.047 A 
ATOM     31  C   UNL     1       0.091 -14.023  -3.547  0.00  0.00    +0.041 A 
ATOM     32  C   UNL     1       1.411 -13.860  -3.345  0.00  0.00    +0.195 A 
ATOM     33  O   UNL     1       1.805 -12.749  -3.989  0.00  0.00    -0.465 OA
ENDBRANCH  28  29
ENDBRANCH  27  28
ENDBRANCH  26  27
ENDBRANCH  23  26
ENDBRANCH  22  23
ENDBRANCH  20  22
BRANCH  20  34
ATOM     34  C   UNL     1       1.372  -5.033  -3.041  0.00  0.00    -0.075 C 
BRANCH  34  35
ATOM     35  C   UNL     1       1.148  -4.003  -1.931  0.00  0.00    -0.034 C 
ATOM     36  C   UNL     1      -0.080  -4.399  -1.109  0.00  0.00    +0.005 C 
ATOM     37  C   UNL     1       2.377  -3.957  -1.022  0.00  0.00    +0.005 C 
ENDBRANCH  34  35
ENDBRANCH  20  34
ENDBRANCH   1  20
TORSDOF 14
