REMARK  Name = ZINC01092637
REMARK  6 active torsions:
REMARK  status: ('A' for Active; 'I' for Inactive)
REMARK    1  A    between atoms: C_9  and  C_12
REMARK    2  A    between atoms: N_14  and  N_15
REMARK    3  A    between atoms: C_16  and  C_17
REMARK    4  A    between atoms: C_20  and  O_23
REMARK    5  A    between atoms: O_23  and  C_24
REMARK    6  A    between atoms: C_24  and  C_26
REMARK                            x       y       z     vdW  Elec       q    Type
REMARK                         _______ _______ _______ _____ _____    ______ ____
ROOT
ATOM      1  N   UNL     1      -1.631   3.751   2.515  0.00  0.00    -0.188 NA
ATOM      2  C   UNL     1      -1.776   5.022   2.732  0.00  0.00    +0.138 C 
ENDROOT
BRANCH   2   3
ATOM      3  C   UNL     1      -2.466   5.488   3.949  0.00  0.00    -0.005 A 
ATOM      4  C   UNL     1      -2.970   4.562   4.867  0.00  0.00    +0.013 A 
ATOM      5  C   UNL     1      -3.611   5.003   6.004  0.00  0.00    +0.047 A 
ATOM      6  C   UNL     1      -3.765   6.364   6.235  0.00  0.00    +0.132 A 
ATOM      7  C   UNL     1      -3.270   7.287   5.323  0.00  0.00    +0.047 A 
ATOM      8  C   UNL     1      -2.624   6.856   4.185  0.00  0.00    +0.013 A 
BRANCH   6   9
ATOM      9  O   UNL     1      -4.402   6.793   7.356  0.00  0.00    -0.420 OA
BRANCH   9  10
ATOM     10  C   UNL     1      -5.611   7.375   7.214  0.00  0.00    +0.380 C 
ATOM     11  O   UNL     1      -6.145   7.408   6.122  0.00  0.00    -0.241 OA
BRANCH  10  12
ATOM     12  C   UNL     1      -6.279   7.966   8.374  0.00  0.00    +0.212 A 
ATOM     13  C   UNL     1      -7.499   8.584   8.371  0.00  0.00    +0.056 A 
ATOM     14  C   UNL     1      -7.746   8.995   9.689  0.00  0.00    +0.042 A 
ATOM     15  C   UNL     1      -6.682   8.617  10.431  0.00  0.00    +0.196 A 
ATOM     16  O   UNL     1      -5.802   7.993   9.636  0.00  0.00    -0.456 OA
ENDBRANCH  10  12
ENDBRANCH   9  10
ENDBRANCH   6   9
ENDBRANCH   2   3
BRANCH   1  19
ATOM     17  C   UNL     1      -0.825   1.988   1.133  0.00  0.00    +0.276 C 
ATOM     18  O   UNL     1      -1.257   1.183   1.931  0.00  0.00    -0.270 OA
ATOM     19  N   UNL     1      -0.976   3.308   1.359  0.00  0.00    -0.204 N 
ATOM     20  H   UNL     1      -0.630   3.951   0.721  0.00  0.00    +0.177 HD
BRANCH  17  29
ATOM     21  C   UNL     1       2.322  -1.785  -2.886  0.00  0.00    +0.004 A 
ATOM     22  C   UNL     1       1.233  -2.459  -2.365  0.00  0.00    +0.004 A 
ATOM     23  C   UNL     1       0.396  -1.830  -1.463  0.00  0.00    +0.049 A 
ATOM     24  C   UNL     1       0.646  -0.522  -1.077  0.00  0.00    +0.163 A 
ATOM     25  C   UNL     1       1.740   0.156  -1.603  0.00  0.00    +0.162 A 
ATOM     26  C   UNL     1       2.577  -0.481  -2.507  0.00  0.00    +0.049 A 
ATOM     27  O   UNL     1       2.000   1.443  -1.244  0.00  0.00    -0.484 OA
ATOM     28  C   UNL     1       1.358   1.922  -0.056  0.00  0.00    +0.283 C 
ATOM     29  C   UNL     1      -0.120   1.511  -0.110  0.00  0.00    +0.297 C 
ATOM     30  O   UNL     1      -0.186   0.083  -0.186  0.00  0.00    -0.472 OA
ENDBRANCH  17  29
ENDBRANCH   1  19
TORSDOF 6
