REMARK  Name = ZINC40687403
REMARK  4 active torsions:
REMARK  status: ('A' for Active; 'I' for Inactive)
REMARK    1  A    between atoms: C_10  and  C_11
REMARK    2  A    between atoms: N_13  and  N_14
REMARK    3  A    between atoms: C_16  and  N_30
REMARK    4  A    between atoms: C_17  and  N_21
REMARK                            x       y       z     vdW  Elec       q    Type
REMARK                         _______ _______ _______ _____ _____    ______ ____
ROOT
ATOM      1  N   UNL     1       7.322   0.191   0.036  0.00  0.00    -0.247 N 
ATOM      2  C   UNL     1       8.534  -0.485   0.125  0.00  0.00    +0.161 A 
ATOM      3  C   UNL     1       9.740   0.219   0.124  0.00  0.00    +0.107 A 
ATOM      4  C   UNL     1      10.927  -0.509   0.215  0.00  0.00    +0.152 A 
ATOM      5  N   UNL     1      10.865  -1.836   0.299  0.00  0.00    -0.218 NA
ATOM      6  C   UNL     1       9.706  -2.462   0.296  0.00  0.00    +0.225 A 
ATOM      7  N   UNL     1       8.562  -1.812   0.217  0.00  0.00    -0.217 NA
ATOM      8  H   UNL     1       7.311   1.158  -0.031  0.00  0.00    +0.172 HD
ENDROOT
BRANCH   4   9
ATOM      9  N   UNL     1      12.156   0.142   0.219  0.00  0.00    -0.283 N 
ATOM     10  C   UNL     1      12.905   0.516   1.422  0.00  0.00    +0.117 C 
ATOM     11  C   UNL     1      14.181   1.201   0.905  0.00  0.00    +0.056 C 
ATOM     12  C   UNL     1      14.051   1.160  -0.601  0.00  0.00    -0.025 A 
ATOM     13  C   UNL     1      12.859   0.529  -0.924  0.00  0.00    +0.038 A 
ATOM     14  C   UNL     1      12.521   0.368  -2.269  0.00  0.00    +0.024 A 
ATOM     15  C   UNL     1      13.364   0.827  -3.258  0.00  0.00    +0.002 A 
ATOM     16  C   UNL     1      14.552   1.451  -2.925  0.00  0.00    +0.000 A 
ATOM     17  C   UNL     1      14.891   1.622  -1.595  0.00  0.00    +0.005 A 
ENDBRANCH   4   9
BRANCH   1  20
ATOM     18  C   UNL     1       4.944   0.130  -0.043  0.00  0.00    +0.261 C 
ATOM     19  O   UNL     1       4.929   1.343  -0.127  0.00  0.00    -0.269 OA
ATOM     20  N   UNL     1       6.118  -0.525   0.043  0.00  0.00    -0.231 N 
ATOM     21  H   UNL     1       6.130  -1.493   0.110  0.00  0.00    +0.173 HD
BRANCH  18  31
ATOM     22  C   UNL     1      -0.017   1.351   0.082  0.00  0.00    +0.001 A 
ATOM     23  C   UNL     1       1.168   2.085   0.076  0.00  0.00    +0.001 A 
ATOM     24  C   UNL     1       2.378   1.460   0.038  0.00  0.00    +0.009 A 
ATOM     25  C   UNL     1       2.436   0.060   0.005  0.00  0.00    -0.006 A 
ATOM     26  C   UNL     1       1.233  -0.687   0.011  0.00  0.00    -0.017 A 
ATOM     27  C   UNL     1       0.002  -0.009   0.051  0.00  0.00    +0.008 A 
ATOM     28  C   UNL     1       1.290  -2.091  -0.021  0.00  0.00    +0.008 A 
ATOM     29  C   UNL     1       2.495  -2.727  -0.058  0.00  0.00    +0.001 A 
ATOM     30  C   UNL     1       3.685  -2.011  -0.065  0.00  0.00    +0.014 A 
ATOM     31  C   UNL     1       3.677  -0.624  -0.035  0.00  0.00    +0.046 A 
ENDBRANCH  18  31
ENDBRANCH   1  20
BRANCH   3  32
ATOM     32  N   UNL     1       9.758   1.620   0.034  0.00  0.00    -0.353 N 
ATOM     33  H   UNL     1       8.925   2.117   0.045  0.00  0.00    +0.143 HD
ATOM     34  H   UNL     1      10.603   2.090  -0.039  0.00  0.00    +0.143 HD
ENDBRANCH   3  32
TORSDOF 4
