REMARK  Name = ZINC36389540
REMARK  8 active torsions:
REMARK  status: ('A' for Active; 'I' for Inactive)
REMARK    1  A    between atoms: C_1  and  O_2
REMARK    2  A    between atoms: O_2  and  C_3
REMARK    3  A    between atoms: C_6  and  C_9
REMARK    4  A    between atoms: C_9  and  C_10
REMARK    5  A    between atoms: C_9  and  N_16
REMARK    6  A    between atoms: C_17  and  C_19
REMARK    7  A    between atoms: C_19  and  N_20
REMARK    8  A    between atoms: C_28  and  C_29
REMARK                            x       y       z     vdW  Elec       q    Type
REMARK                         _______ _______ _______ _____ _____    ______ ____
ROOT
ATOM      1  N   UNL     1       2.058  -3.623  -4.968  0.00  0.00    -0.306 N 
ATOM      2  C   UNL     1       2.040  -4.118  -6.222  0.00  0.00    +0.197 C 
ATOM      3  O   UNL     1       2.729  -3.613  -7.083  0.00  0.00    -0.278 OA
ATOM      4  H   UNL     1       1.507  -4.027  -4.280  0.00  0.00    +0.150 HD
ENDROOT
BRANCH   1   5
ATOM      5  C   UNL     1       2.910  -2.476  -4.646  0.00  0.00    +0.133 C 
BRANCH   5   9
ATOM      6  C   UNL     1       1.296  -0.406  -1.274  0.00  0.00    +0.120 A 
ATOM      7  C   UNL     1       1.830   0.308  -2.337  0.00  0.00    +0.046 A 
ATOM      8  C   UNL     1       2.352  -0.364  -3.425  0.00  0.00    +0.009 A 
ATOM      9  C   UNL     1       2.341  -1.746  -3.457  0.00  0.00    -0.023 A 
ATOM     10  C   UNL     1       1.809  -2.460  -2.399  0.00  0.00    +0.009 A 
ATOM     11  C   UNL     1       1.291  -1.793  -1.305  0.00  0.00    +0.046 A 
BRANCH   6  13
ATOM     12  C   UNL     1       0.821   1.681  -0.238  0.00  0.00    +0.277 C 
ATOM     13  O   UNL     1       0.782   0.253  -0.202  0.00  0.00    -0.495 OA
ENDBRANCH   6  13
ENDBRANCH   5   9
BRANCH   5  14
ATOM     14  C   UNL     1       4.301  -2.959  -4.321  0.00  0.00    -0.023 A 
ATOM     15  C   UNL     1       4.476  -4.112  -3.579  0.00  0.00    +0.006 A 
ATOM     16  C   UNL     1       5.751  -4.555  -3.280  0.00  0.00    +0.000 A 
ATOM     17  C   UNL     1       6.851  -3.845  -3.724  0.00  0.00    +0.000 A 
ATOM     18  C   UNL     1       6.675  -2.692  -4.467  0.00  0.00    +0.000 A 
ATOM     19  C   UNL     1       5.400  -2.252  -4.769  0.00  0.00    +0.006 A 
ENDBRANCH   5  14
ENDBRANCH   1   5
BRANCH   2  20
ATOM     20  C   UNL     1       1.163  -5.298  -6.554  0.00  0.00    +0.019 C 
BRANCH  20  21
ATOM     21  N   UNL     1       1.322  -5.642  -7.973  0.00  0.00    +0.390 N 
ATOM     22  C   UNL     1       0.848  -4.522  -8.798  0.00  0.00    -0.072 C 
ATOM     23  C   UNL     1       1.315  -4.740 -10.248  0.00  0.00    +0.024 C 
ATOM     24  C   UNL     1       1.000  -6.154 -10.615  0.00  0.00    -0.010 A 
ATOM     25  C   UNL     1       0.648  -7.153  -9.757  0.00  0.00    -0.051 A 
ATOM     26  C   UNL     1       0.392  -8.398 -10.326  0.00  0.00    +0.010 A 
ATOM     27  C   UNL     1       0.502  -8.566 -11.665  0.00  0.00    +0.045 A 
ATOM     28  S   UNL     1       0.983  -6.932 -12.204  0.00  0.00    -0.101 S 
ATOM     29  C   UNL     1       0.560  -6.862  -8.262  0.00  0.00    -0.033 C 
ATOM     30  H   UNL     1       2.299  -5.806  -8.167  0.00  0.00    -0.080 HD
BRANCH  29  31
ATOM     31  C   UNL     1       1.150  -8.034  -7.476  0.00  0.00    -0.020 C 
ATOM     32  C   UNL     1       1.849  -9.139  -8.272  0.00  0.00    +0.002 C 
ATOM     33  C   UNL     1       0.482  -9.401  -7.637  0.00  0.00    +0.002 C 
ENDBRANCH  29  31
ENDBRANCH  20  21
ENDBRANCH   2  20
TORSDOF 7
