REMARK  Name = ZINC19961920
REMARK  6 active torsions:
REMARK  status: ('A' for Active; 'I' for Inactive)
REMARK    1  A    between atoms: C_6  and  N_7
REMARK    2  A    between atoms: N_10  and  C_13
REMARK    3  A    between atoms: C_13  and  C_14
REMARK    4  A    between atoms: C_22  and  C_24
REMARK    5  A    between atoms: C_24  and  C_25
REMARK    6  A    between atoms: N_27  and  C_28
REMARK                            x       y       z     vdW  Elec       q    Type
REMARK                         _______ _______ _______ _____ _____    ______ ____
ROOT
ATOM      1  C   UNL     1      -5.586  -1.320  -2.178  0.00  0.00    +0.200 C 
ATOM      2  O   UNL     1      -4.712  -1.592  -2.974  0.00  0.00    -0.278 OA
ATOM      3  N   UNL     1      -6.737  -2.021  -2.176  0.00  0.00    -0.289 N 
ATOM      4  C   UNL     1      -7.843  -1.675  -1.266  0.00  0.00    +0.127 C 
ATOM      5  C   UNL     1      -9.059  -1.297  -2.123  0.00  0.00    +0.123 C 
ATOM      6  N   UNL     1      -9.268  -2.274  -3.182  0.00  0.00    -0.312 N 
ATOM      7  C   UNL     1      -8.326  -3.091  -3.655  0.00  0.00    +0.234 C 
ATOM      8  O   UNL     1      -8.600  -3.808  -4.594  0.00  0.00    -0.274 OA
ATOM      9  C   UNL     1      -6.939  -3.165  -3.078  0.00  0.00    +0.170 C 
ATOM     10  H   UNL     1     -10.259  -2.376  -3.649  0.00  0.00    +0.149 HD
ENDROOT
BRANCH   1  11
ATOM     11  C   UNL     1      -5.384  -0.200  -1.191  0.00  0.00    +0.019 C 
BRANCH  11  15
ATOM     12  N   UNL     1      -2.467   2.748  -1.997  0.00  0.00    -0.333 N 
ATOM     13  C   UNL     1      -2.405   2.053  -0.704  0.00  0.00    +0.086 C 
ATOM     14  C   UNL     1      -3.765   1.420  -0.402  0.00  0.00    -0.059 C 
ATOM     15  N   UNL     1      -4.118   0.486  -1.481  0.00  0.00    +0.387 N 
ATOM     16  C   UNL     1      -4.180   1.181  -2.775  0.00  0.00    -0.059 C 
ATOM     17  C   UNL     1      -2.820   1.814  -3.076  0.00  0.00    +0.086 C 
ATOM     18  H   UNL     1      -3.328  -0.276  -1.542  0.00  0.00    -0.081 HD
BRANCH  12  24
ATOM     19  C   UNL     1      -0.751   4.328  -1.375  0.00  0.00    +0.026 A 
ATOM     20  C   UNL     1       0.442   4.968  -1.647  0.00  0.00    +0.040 A 
ATOM     21  C   UNL     1       1.126   4.689  -2.818  0.00  0.00    +0.124 A 
ATOM     22  C   UNL     1       0.616   3.770  -3.719  0.00  0.00    +0.040 A 
ATOM     23  C   UNL     1      -0.577   3.128  -3.451  0.00  0.00    +0.026 A 
ATOM     24  C   UNL     1      -1.262   3.401  -2.274  0.00  0.00    +0.030 A 
ATOM     25  F   UNL     1       2.294   5.316  -3.083  0.00  0.00    -0.205 F 
ENDBRANCH  12  24
ENDBRANCH  11  15
ENDBRANCH   1  11
BRANCH   9  26
ATOM     26  C   UNL     1      -5.910  -3.113  -4.209  0.00  0.00    +0.128 C 
BRANCH  26  27
ATOM     27  C   UNL     1      -6.069  -1.824  -4.974  0.00  0.00    +0.219 C 
ATOM     28  O   UNL     1      -6.877  -0.997  -4.607  0.00  0.00    -0.275 OA
ATOM     29  N   UNL     1      -5.313  -1.590  -6.065  0.00  0.00    -0.285 N 
ATOM     30  H   UNL     1      -4.632  -2.369  -6.439  0.00  0.00    +0.155 HD
BRANCH  29  31
ATOM     31  C   UNL     1      -5.394  -0.357  -6.721  0.00  0.00    +0.036 A 
ATOM     32  C   UNL     1      -6.612   0.304  -6.811  0.00  0.00    +0.043 A 
ATOM     33  C   UNL     1      -6.688   1.525  -7.455  0.00  0.00    +0.044 A 
ATOM     34  C   UNL     1      -5.555   2.082  -8.021  0.00  0.00    +0.040 A 
ATOM     35  C   UNL     1      -4.341   1.422  -7.938  0.00  0.00    +0.044 A 
ATOM     36  C   UNL     1      -4.258   0.204  -7.290  0.00  0.00    +0.043 A 
ATOM     37 CL   UNL     1      -2.922   2.125  -8.649  0.00  0.00    -0.083 Cl
ATOM     38 CL   UNL     1      -8.209   2.356  -7.561  0.00  0.00    -0.083 Cl
ENDBRANCH  29  31
ENDBRANCH  26  27
ENDBRANCH   9  26
TORSDOF 6
