REMARK  Name = ZINC38042284
REMARK  7 active torsions:
REMARK  status: ('A' for Active; 'I' for Inactive)
REMARK    1  A    between atoms: C_1  and  C_2
REMARK    2  A    between atoms: C_2  and  C_4
REMARK    3  A    between atoms: C_2  and  C_16
REMARK    4  A    between atoms: C_4  and  N_5
REMARK    5  A    between atoms: C_6  and  C_8
REMARK    6  A    between atoms: C_11  and  O_15
REMARK    7  A    between atoms: C_16  and  N_17
REMARK                            x       y       z     vdW  Elec       q    Type
REMARK                         _______ _______ _______ _____ _____    ______ ____
ROOT
ATOM      1  N   UNL     1       2.248  -0.180   0.990  0.00  0.00    -0.316 N 
ATOM      2  C   UNL     1       3.151  -0.449   1.953  0.00  0.00    +0.199 C 
ATOM      3  O   UNL     1       2.793  -0.951   2.997  0.00  0.00    -0.278 OA
ATOM      4  H   UNL     1       2.534   0.222   0.154  0.00  0.00    +0.149 HD
ENDROOT
BRANCH   2   5
ATOM      5  C   UNL     1       4.606  -0.125   1.732  0.00  0.00    +0.018 C 
ATOM      6  C   UNL     1       4.875   1.368   2.019  0.00  0.00    +0.023 C 
ATOM      7  C   UNL     1       6.263   1.403   2.691  0.00  0.00    +0.097 C 
ATOM      8  C   UNL     1       6.716  -0.071   2.755  0.00  0.00    -0.050 C 
ATOM      9  N   UNL     1       5.454  -0.855   2.711  0.00  0.00    +0.388 N 
ATOM     10  H   UNL     1       5.014  -0.866   3.619  0.00  0.00    -0.085 HD
ATOM     11  H   UNL     1       5.631  -1.795   2.391  0.00  0.00    -0.085 HD
BRANCH   7  12
ATOM     12  O   UNL     1       7.176   2.172   1.905  0.00  0.00    -0.394 OA
ATOM     13  H   UNL     1       8.066   2.229   2.280  0.00  0.00    +0.210 HD
ENDBRANCH   7  12
ENDBRANCH   2   5
BRANCH   1  14
ATOM     14  C   UNL     1       0.833  -0.494   1.204  0.00  0.00    +0.105 C 
BRANCH  14  16
ATOM     15  C   UNL     1       0.083   1.426  -0.207  0.00  0.00    +0.007 C 
ATOM     16  C   UNL     1       0.028  -0.093  -0.034  0.00  0.00    -0.014 C 
BRANCH  16  17
ATOM     17  C   UNL     1      -1.427  -0.534   0.139  0.00  0.00    -0.074 C 
BRANCH  17  18
ATOM     18  N   UNL     1      -2.173  -0.254  -1.095  0.00  0.00    +0.380 N 
ATOM     19  C   UNL     1      -3.597  -0.534  -0.878  0.00  0.00    -0.079 C 
ATOM     20  C   UNL     1      -4.390  -0.167  -2.134  0.00  0.00    -0.019 C 
ATOM     21  C   UNL     1      -3.879  -0.998  -3.315  0.00  0.00    -0.004 C 
ATOM     22  C   UNL     1      -2.377  -0.755  -3.485  0.00  0.00    -0.019 C 
ATOM     23  C   UNL     1      -1.659  -1.100  -2.179  0.00  0.00    -0.079 C 
ATOM     24  H   UNL     1      -2.057   0.717  -1.344  0.00  0.00    -0.082 HD
ENDBRANCH  17  18
ENDBRANCH  16  17
ENDBRANCH  14  16
ENDBRANCH   1  14
TORSDOF 6
