REMARK  Name = ZINC09644606
REMARK  5 active torsions:
REMARK  status: ('A' for Active; 'I' for Inactive)
REMARK    1  A    between atoms: C_6  and  C_7
REMARK    2  A    between atoms: C_7  and  C_9
REMARK    3  A    between atoms: C_9  and  O_10
REMARK    4  A    between atoms: O_10  and  C_11
REMARK    5  A    between atoms: C_11  and  C_13
REMARK                            x       y       z     vdW  Elec       q    Type
REMARK                         _______ _______ _______ _____ _____    ______ ____
ROOT
ATOM      1  C   UNL     1      -1.259  -0.757   0.011  0.00  0.00    +0.200 C 
ATOM      2  O   UNL     1      -1.240  -1.970   0.004  0.00  0.00    -0.288 OA
ENDROOT
BRANCH   1   8
ATOM      3  C   UNL     1      -0.017   1.396   0.010  0.00  0.00    +0.015 A 
ATOM      4  C   UNL     1       1.166   2.102   0.002  0.00  0.00    +0.048 A 
ATOM      5  C   UNL     1       2.379   1.429  -0.013  0.00  0.00    +0.142 A 
ATOM      6  C   UNL     1       2.406   0.032  -0.021  0.00  0.00    +0.076 A 
ATOM      7  C   UNL     1       1.227  -0.684  -0.014  0.00  0.00    +0.038 A 
ATOM      8  C   UNL     1       0.002  -0.004   0.002  0.00  0.00    +0.023 A 
ATOM      9  N   UNL     1       3.643  -0.629  -0.038  0.00  0.00    -0.280 N 
ATOM     10  C   UNL     1       4.760   0.065   0.270  0.00  0.00    +0.255 C 
ATOM     11  O   UNL     1       5.844  -0.478   0.233  0.00  0.00    -0.272 OA
ATOM     12  C   UNL     1       4.653   1.517   0.661  0.00  0.00    +0.325 C 
ATOM     13  O   UNL     1       3.549   2.118  -0.020  0.00  0.00    -0.481 OA
ATOM     14  H   UNL     1       3.696  -1.571  -0.268  0.00  0.00    +0.155 HD
ENDBRANCH   1   8
BRANCH   1  15
ATOM     15  C   UNL     1      -2.575  -0.024   0.028  0.00  0.00    +0.311 C 
BRANCH  15  16
ATOM     16  O   UNL     1      -3.647  -0.969   0.034  0.00  0.00    -0.452 OA
BRANCH  16  17
ATOM     17  C   UNL     1      -4.899  -0.473   0.049  0.00  0.00    +0.360 C 
ATOM     18  O   UNL     1      -5.076   0.729   0.057  0.00  0.00    -0.243 OA
BRANCH  17  19
ATOM     19  C   UNL     1      -6.058  -1.391   0.056  0.00  0.00    +0.167 A 
ATOM     20  C   UNL     1      -7.353  -0.871   0.066  0.00  0.00    +0.093 A 
ATOM     21  C   UNL     1      -8.430  -1.747   0.072  0.00  0.00    +0.081 A 
ATOM     22  C   UNL     1      -8.174  -3.111   0.068  0.00  0.00    +0.079 A 
ATOM     23  C   UNL     1      -6.860  -3.556   0.058  0.00  0.00    +0.133 A 
ATOM     24  N   UNL     1      -5.858  -2.704   0.047  0.00  0.00    -0.246 NA
ATOM     25 CL   UNL     1      -9.484  -4.250   0.076  0.00  0.00    -0.080 Cl
ATOM     26 CL   UNL     1     -10.060  -1.149   0.086  0.00  0.00    -0.080 Cl
ATOM     27 CL   UNL     1      -7.612   0.845   0.071  0.00  0.00    -0.080 Cl
ENDBRANCH  17  19
ENDBRANCH  16  17
ENDBRANCH  15  16
ENDBRANCH   1  15
TORSDOF 5
