REMARK  Name = ZINC43189904
REMARK  12 active torsions:
REMARK  status: ('A' for Active; 'I' for Inactive)
REMARK    1  A    between atoms: C_1  and  C_2
REMARK    2  A    between atoms: C_2  and  C_4
REMARK    3  A    between atoms: C_2  and  O_18
REMARK    4  A    between atoms: N_6  and  N_7
REMARK    5  A    between atoms: N_10  and  C_11
REMARK    6  A    between atoms: C_11  and  C_12
REMARK    7  A    between atoms: C_12  and  C_13
REMARK    8  A    between atoms: C_12  and  C_14
REMARK    9  A    between atoms: C_12  and  N_15
REMARK   10  A    between atoms: N_15  and  C_16
REMARK   11  A    between atoms: N_15  and  C_17
REMARK   12  A    between atoms: O_18  and  C_19
REMARK                            x       y       z     vdW  Elec       q    Type
REMARK                         _______ _______ _______ _____ _____    ______ ____
ROOT
ATOM      1  C   UNL     1      -0.550  -0.554  -2.021  0.00  0.00    +0.270 C 
ATOM      2  O   UNL     1       0.482  -1.185  -1.937  0.00  0.00    -0.270 OA
ATOM      3  N   UNL     1      -1.258  -0.569  -3.168  0.00  0.00    -0.230 N 
ATOM      4  H   UNL     1      -2.084  -0.064  -3.235  0.00  0.00    +0.173 HD
ENDROOT
BRANCH   3   5
ATOM      5  N   UNL     1      -0.802  -1.315  -4.263  0.00  0.00    -0.218 N 
ATOM      6  C   UNL     1      -1.510  -1.331  -5.409  0.00  0.00    +0.316 C 
ATOM      7  O   UNL     1      -1.115  -1.978  -6.359  0.00  0.00    -0.251 OA
ATOM      8  N   UNL     1      -2.657  -0.629  -5.503  0.00  0.00    -0.300 N 
ATOM      9  H   UNL     1       0.023  -1.820  -4.195  0.00  0.00    +0.174 HD
ATOM     10  H   UNL     1      -2.973  -0.113  -4.744  0.00  0.00    +0.150 HD
BRANCH   8  11
ATOM     11  C   UNL     1      -3.427  -0.646  -6.749  0.00  0.00    +0.093 C 
BRANCH  11  12
ATOM     12  C   UNL     1      -4.706   0.175  -6.570  0.00  0.00    -0.056 C 
ATOM     13  C   UNL     1      -4.340   1.626  -6.251  0.00  0.00    -0.008 C 
ATOM     14  C   UNL     1      -5.527   0.128  -7.860  0.00  0.00    -0.008 C 
BRANCH  12  15
ATOM     15  N   UNL     1      -5.496  -0.385  -5.465  0.00  0.00    +0.380 N 
ATOM     16  C   UNL     1      -6.716   0.413  -5.283  0.00  0.00    -0.096 C 
ATOM     17  C   UNL     1      -5.861  -1.773  -5.778  0.00  0.00    -0.096 C 
ATOM     18  H   UNL     1      -4.951  -0.363  -4.617  0.00  0.00    -0.082 HD
ENDBRANCH  12  15
ENDBRANCH  11  12
ENDBRANCH   8  11
ENDBRANCH   3   5
BRANCH   1  20
ATOM     19  C   UNL     1      -1.021   1.737  -1.196  0.00  0.00    +0.062 C 
ATOM     20  C   UNL     1      -1.041   0.248  -0.843  0.00  0.00    +0.257 C 
BRANCH  20  21
ATOM     21  O   UNL     1      -0.189   0.014   0.280  0.00  0.00    -0.480 OA
BRANCH  21  22
ATOM     22  C   UNL     1      -0.726   0.214   1.513  0.00  0.00    +0.122 A 
ATOM     23  C   UNL     1      -2.019   0.733   1.627  0.00  0.00    +0.046 A 
ATOM     24  C   UNL     1      -2.583   0.944   2.846  0.00  0.00    +0.012 A 
ATOM     25  C   UNL     1      -1.859   0.637   4.011  0.00  0.00    -0.018 A 
ATOM     26  C   UNL     1      -2.411   0.842   5.287  0.00  0.00    +0.008 A 
ATOM     27  C   UNL     1      -1.682   0.532   6.394  0.00  0.00    +0.001 A 
ATOM     28  C   UNL     1      -0.393   0.015   6.284  0.00  0.00    +0.001 A 
ATOM     29  C   UNL     1       0.174  -0.197   5.065  0.00  0.00    +0.008 A 
ATOM     30  C   UNL     1      -0.548   0.110   3.899  0.00  0.00    -0.014 A 
ATOM     31  C   UNL     1       0.004  -0.101   2.624  0.00  0.00    +0.054 A 
ENDBRANCH  21  22
ENDBRANCH  20  21
ENDBRANCH   1  20
TORSDOF 7
