REMARK  Name = ZINC63617231
REMARK  7 active torsions:
REMARK  status: ('A' for Active; 'I' for Inactive)
REMARK    1  A    between atoms: C_1  and  C_2
REMARK    2  A    between atoms: C_5  and  C_8
REMARK    3  A    between atoms: C_13  and  N_15
REMARK    4  A    between atoms: C_16  and  C_18
REMARK    5  A    between atoms: C_18  and  S_19
REMARK    6  A    between atoms: S_19  and  C_20
REMARK    7  A    between atoms: C_26  and  C_28
REMARK                            x       y       z     vdW  Elec       q    Type
REMARK                         _______ _______ _______ _____ _____    ______ ____
ROOT
ATOM      1  N   UNL     1       1.765  -6.071   0.167  0.00  0.00    -0.277 N 
ATOM      2  C   UNL     1       3.084  -6.348   0.148  0.00  0.00    +0.226 C 
ATOM      3  O   UNL     1       3.876  -5.556   0.613  0.00  0.00    -0.275 OA
ATOM      4  H   UNL     1       1.131  -6.704  -0.204  0.00  0.00    +0.152 HD
ENDROOT
BRANCH   1   9
ATOM      5  C   UNL     1       0.059  -4.275  -0.021  0.00  0.00    +0.125 C 
ATOM      6  C   UNL     1      -1.104  -4.833   0.776  0.00  0.00    +0.139 C 
ATOM      7  N   UNL     1      -0.664  -5.232   1.907  0.00  0.00    -0.094 NA
ATOM      8  O   UNL     1       0.726  -5.030   2.066  0.00  0.00    -0.370 OA
ATOM      9  C   UNL     1       1.289  -4.814   0.750  0.00  0.00    +0.305 C 
BRANCH   5  14
ATOM     10  C   UNL     1      -0.018   1.503   0.010  0.00  0.00    +0.044 C 
ATOM     11  C   UNL     1       0.002  -0.004   0.002  0.00  0.00    -0.050 A 
ATOM     12  C   UNL     1       0.006  -0.689  -1.199  0.00  0.00    +0.003 A 
ATOM     13  C   UNL     1       0.025  -2.071  -1.206  0.00  0.00    +0.005 A 
ATOM     14  C   UNL     1       0.040  -2.768  -0.013  0.00  0.00    -0.034 A 
ATOM     15  C   UNL     1       0.037  -2.084   1.188  0.00  0.00    +0.005 A 
ATOM     16  C   UNL     1       0.023  -0.702   1.195  0.00  0.00    +0.003 A 
ENDBRANCH   5  14
ENDBRANCH   1   9
BRANCH   2  17
ATOM     17  C   UNL     1       3.574  -7.641  -0.451  0.00  0.00    +0.173 C 
BRANCH  17  18
ATOM     18  S   UNL     1       5.382  -7.718  -0.327  0.00  0.00    -0.078 S 
BRANCH  18  19
ATOM     19  C   UNL     1       5.793  -9.266  -1.060  0.00  0.00    +0.170 A 
ATOM     20  N   UNL     1       7.099  -9.649  -1.127  0.00  0.00    -0.302 N 
ATOM     21  H   UNL     1       7.794  -9.073  -0.773  0.00  0.00    +0.171 HD
ATOM     22  C   UNL     1       7.421 -10.835  -1.687  0.00  0.00    +0.252 A 
ATOM     23  O   UNL     1       8.585 -11.194  -1.755  0.00  0.00    -0.268 OA
ATOM     24  C   UNL     1       6.390 -11.648  -2.189  0.00  0.00    +0.093 A 
ATOM     25  C   UNL     1       5.100 -11.212  -2.095  0.00  0.00    +0.046 A 
ATOM     26  N   UNL     1       4.832 -10.038  -1.530  0.00  0.00    -0.228 NA
ATOM     27  C   UNL     1       3.977 -12.065  -2.626  0.00  0.00    +0.066 C 
ENDBRANCH  18  19
ENDBRANCH  17  18
ENDBRANCH   2  17
TORSDOF 5
