REMARK  Name = ZINC36500463
REMARK  17 active torsions:
REMARK  status: ('A' for Active; 'I' for Inactive)
REMARK    1  A    between atoms: C_1  and  C_2
REMARK    2  A    between atoms: C_2  and  C_3
REMARK    3  A    between atoms: C_2  and  C_4
REMARK    4  A    between atoms: C_2  and  C_5
REMARK    5  A    between atoms: C_5  and  C_6
REMARK    6  A    between atoms: C_6  and  C_7
REMARK    7  A    between atoms: C_6  and  C_8
REMARK    8  A    between atoms: C_6  and  N_9
REMARK    9  A    between atoms: C_10  and  C_12
REMARK   10  A    between atoms: C_12  and  C_14
REMARK   11  A    between atoms: C_12  and  N_21
REMARK   12  A    between atoms: C_18  and  O_20
REMARK   13  A    between atoms: N_21  and  C_22
REMARK   14  A    between atoms: C_22  and  C_23
REMARK   15  A    between atoms: C_28  and  C_30
REMARK   16  A    between atoms: C_31  and  O_37
REMARK   17  A    between atoms: C_35  and  O_36
REMARK                            x       y       z     vdW  Elec       q    Type
REMARK                         _______ _______ _______ _____ _____    ______ ____
ROOT
ATOM      1  C   UNL     1       5.039  -0.576  -4.021  0.00  0.00    +0.193 C 
ENDROOT
BRANCH   1   2
ATOM      2  C   UNL     1       5.525  -1.946  -4.416  0.00  0.00    -0.015 A 
ATOM      3  C   UNL     1       6.689  -2.451  -3.867  0.00  0.00    +0.006 A 
ATOM      4  C   UNL     1       7.138  -3.708  -4.228  0.00  0.00    +0.004 A 
ATOM      5  C   UNL     1       6.424  -4.463  -5.139  0.00  0.00    +0.045 A 
ATOM      6  C   UNL     1       5.256  -3.958  -5.691  0.00  0.00    +0.117 A 
ATOM      7  C   UNL     1       4.804  -2.699  -5.323  0.00  0.00    +0.051 A 
BRANCH   6   8
ATOM      8  O   UNL     1       4.551  -4.699  -6.587  0.00  0.00    -0.507 OA
ATOM      9  H   UNL     1       3.882  -5.269  -6.186  0.00  0.00    +0.292 HD
ENDBRANCH   6   8
ENDBRANCH   1   2
BRANCH   1  11
ATOM     10  N   UNL     1       3.605  -1.634  -2.305  0.00  0.00    -0.308 N 
ATOM     11  C   UNL     1       4.445  -0.633  -2.637  0.00  0.00    +0.239 C 
ATOM     12  O   UNL     1       4.722   0.221  -1.822  0.00  0.00    -0.273 OA
ATOM     13  H   UNL     1       3.384  -2.318  -2.957  0.00  0.00    +0.149 HD
BRANCH  10  14
ATOM     14  C   UNL     1       3.027  -1.691  -0.960  0.00  0.00    +0.030 C 
ATOM     15  C   UNL     1       2.494  -0.309  -0.576  0.00  0.00    +0.031 C 
ATOM     16  C   UNL     1       4.104  -2.117   0.040  0.00  0.00    +0.031 C 
BRANCH  14  17
ATOM     17  C   UNL     1       1.881  -2.704  -0.939  0.00  0.00    +0.031 C 
BRANCH  17  19
ATOM     18  C   UNL     1       1.626  -3.164  -3.382  0.00  0.00    +0.010 C 
ATOM     19  C   UNL     1       0.990  -2.491  -2.164  0.00  0.00    -0.036 C 
ATOM     20  C   UNL     1       0.839  -0.992  -2.430  0.00  0.00    +0.010 C 
ATOM     21  C   UNL     1      -0.388  -3.103  -1.904  0.00  0.00    +0.010 C 
ENDBRANCH  17  19
ENDBRANCH  14  17
ENDBRANCH  10  14
ENDBRANCH   1  11
BRANCH   1  22
ATOM     22  N   UNL     1       6.164   0.363  -4.030  0.00  0.00    -0.274 N 
ATOM     23  C   UNL     1       6.673   0.792  -5.202  0.00  0.00    +0.255 C 
ATOM     24  O   UNL     1       6.199   0.400  -6.251  0.00  0.00    -0.270 OA
BRANCH  23  25
ATOM     25  C   UNL     1       7.804   1.735  -5.211  0.00  0.00    +0.119 A 
ATOM     26  C   UNL     1       9.122   1.258  -5.225  0.00  0.00    +0.133 A 
ATOM     27  C   UNL     1      10.178   2.154  -5.234  0.00  0.00    +0.046 A 
ATOM     28  C   UNL     1       9.936   3.515  -5.231  0.00  0.00    +0.007 A 
ATOM     29  C   UNL     1       8.641   3.997  -5.217  0.00  0.00    +0.046 A 
ATOM     30  C   UNL     1       7.570   3.118  -5.213  0.00  0.00    +0.133 A 
BRANCH  30  31
ATOM     31  O   UNL     1       6.299   3.594  -5.206  0.00  0.00    -0.506 OA
ATOM     32  H   UNL     1       5.936   3.733  -4.320  0.00  0.00    +0.292 HD
ENDBRANCH  30  31
BRANCH  26  33
ATOM     33  O   UNL     1       9.363  -0.077  -5.228  0.00  0.00    -0.506 OA
ATOM     34  H   UNL     1       9.423  -0.464  -6.112  0.00  0.00    +0.292 HD
ENDBRANCH  26  33
ENDBRANCH  23  25
BRANCH  22  35
ATOM     35  C   UNL     1       6.734   0.835  -2.766  0.00  0.00    +0.183 C 
BRANCH  35  36
ATOM     36  C   UNL     1       7.384  -0.318  -2.046  0.00  0.00    +0.122 A 
ATOM     37  C   UNL     1       8.662  -0.714  -2.188  0.00  0.00    +0.046 A 
ATOM     38  C   UNL     1       8.844  -1.825  -1.331  0.00  0.00    +0.041 A 
ATOM     39  C   UNL     1       7.666  -2.040  -0.718  0.00  0.00    +0.195 A 
ATOM     40  O   UNL     1       6.787  -1.121  -1.151  0.00  0.00    -0.466 OA
ENDBRANCH  35  36
ENDBRANCH  22  35
ENDBRANCH   1  22
TORSDOF 12
