REMARK  Name = ZINC15142527
REMARK  8 active torsions:
REMARK  status: ('A' for Active; 'I' for Inactive)
REMARK    1  A    between atoms: C_1  and  C_2
REMARK    2  A    between atoms: N_5  and  S_8
REMARK    3  A    between atoms: S_8  and  C_11
REMARK    4  A    between atoms: C_14  and  S_20
REMARK    5  A    between atoms: C_15  and  N_17
REMARK    6  A    between atoms: S_20  and  C_21
REMARK    7  A    between atoms: N_25  and  C_26
REMARK    8  A    between atoms: C_26  and  C_27
REMARK                            x       y       z     vdW  Elec       q    Type
REMARK                         _______ _______ _______ _____ _____    ______ ____
ROOT
ATOM      1  C   UNL     1       1.299   4.380  -3.951  0.00  0.00    +0.108 A 
ATOM      2  C   UNL     1       2.636   4.158  -3.673  0.00  0.00    +0.030 A 
ATOM      3  C   UNL     1       3.412   3.425  -4.549  0.00  0.00    +0.019 A 
ATOM      4  C   UNL     1       2.852   2.919  -5.715  0.00  0.00    +0.046 A 
ATOM      5  C   UNL     1       1.510   3.148  -5.994  0.00  0.00    +0.142 A 
ATOM      6  C   UNL     1       0.738   3.878  -5.112  0.00  0.00    +0.062 A 
ENDROOT
BRANCH   1   7
ATOM      7  S   UNL     1       0.310   5.309  -2.828  0.00  0.00    +0.061 S 
ATOM      8  O   UNL     1      -0.768   5.844  -3.583  0.00  0.00    -0.153 OA
ATOM      9  O   UNL     1       1.201   6.130  -2.086  0.00  0.00    -0.153 OA
BRANCH   7  14
ATOM     10  C   UNL     1      -0.772   0.214  -0.430  0.00  0.00    +0.007 C 
ATOM     11  C   UNL     1      -0.898   1.734  -0.554  0.00  0.00    -0.012 C 
ATOM     12  C   UNL     1      -1.492   2.086  -1.920  0.00  0.00    +0.020 C 
ATOM     13  C   UNL     1      -1.649   3.606  -2.027  0.00  0.00    +0.110 C 
ATOM     14  N   UNL     1      -0.351   4.236  -1.753  0.00  0.00    -0.177 NA
ATOM     15  C   UNL     1       0.351   3.897  -0.508  0.00  0.00    +0.110 C 
ATOM     16  C   UNL     1       0.485   2.373  -0.417  0.00  0.00    +0.020 C 
ENDBRANCH   7  14
ENDBRANCH   1   7
BRANCH   5  17
ATOM     17  N   UNL     1       0.909   2.611  -7.235  0.00  0.00    +0.058 N 
ATOM     18  O   UNL     1      -0.267   2.812  -7.479  0.00  0.00    -0.126 OA
ATOM     19  O   UNL     1       1.591   1.968  -8.013  0.00  0.00    -0.126 OA
ENDBRANCH   5  17
BRANCH   4  20
ATOM     20  S   UNL     1       3.841   1.989  -6.838  0.00  0.00    -0.046 S 
BRANCH  20  21
ATOM     21  C   UNL     1       3.293   0.359  -6.450  0.00  0.00    +0.214 A 
ATOM     22  N   UNL     1       2.460   0.023  -5.490  0.00  0.00    -0.101 NA
ATOM     23  N   UNL     1       2.273  -1.247  -5.481  0.00  0.00    -0.022 NA
ATOM     24  N   UNL     1       2.959  -1.808  -6.417  0.00  0.00    -0.043 NA
ATOM     25  N   UNL     1       3.646  -0.781  -7.088  0.00  0.00    -0.217 N 
BRANCH  25  26
ATOM     26  C   UNL     1       4.552  -0.917  -8.232  0.00  0.00    +0.179 C 
BRANCH  26  27
ATOM     27  C   UNL     1       5.982  -1.124  -7.728  0.00  0.00    +0.140 C 
ATOM     28  C   UNL     1       6.960  -1.147  -8.922  0.00  0.00    +0.035 C 
ATOM     29  C   UNL     1       7.957  -2.266  -8.508  0.00  0.00    +0.031 C 
ATOM     30  C   UNL     1       7.016  -3.234  -7.748  0.00  0.00    +0.160 C 
ATOM     31  O   UNL     1       6.083  -2.386  -7.059  0.00  0.00    -0.375 OA
ENDBRANCH  26  27
ENDBRANCH  25  26
ENDBRANCH  20  21
ENDBRANCH   4  20
TORSDOF 7
