REMARK  Name = ZINC09995190
REMARK  6 active torsions:
REMARK  status: ('A' for Active; 'I' for Inactive)
REMARK    1  A    between atoms: C_1  and  N_2
REMARK    2  A    between atoms: C_5  and  S_19
REMARK    3  A    between atoms: C_7  and  C_12
REMARK    4  A    between atoms: S_19  and  C_20
REMARK    5  A    between atoms: N_25  and  C_26
REMARK    6  A    between atoms: C_26  and  C_27
REMARK                            x       y       z     vdW  Elec       q    Type
REMARK                         _______ _______ _______ _____ _____    ______ ____
ROOT
ATOM      1  C   UNL     1     -10.234   4.759   8.723  0.00  0.00    +0.133 C 
ATOM      2  N   UNL     1      -8.903   4.784   8.112  0.00  0.00    -0.287 N 
ATOM      3  C   UNL     1      -7.750   5.129   8.722  0.00  0.00    +0.254 C 
ATOM      4  O   UNL     1      -7.662   5.566   9.852  0.00  0.00    -0.269 OA
ATOM      5  C   UNL     1      -6.612   4.896   7.813  0.00  0.00    +0.078 C 
ATOM      6  C   UNL     1      -7.064   4.461   6.647  0.00  0.00    -0.023 C 
ATOM      7  C   UNL     1      -8.580   4.440   6.729  0.00  0.00    +0.087 C 
ATOM      8  C   UNL     1      -9.029   3.023   6.363  0.00  0.00    +0.035 C 
ATOM      9  C   UNL     1      -8.413   2.652   5.010  0.00  0.00    +0.003 C 
ATOM     10  C   UNL     1      -6.890   2.572   5.102  0.00  0.00    +0.005 C 
ATOM     11  C   UNL     1      -6.310   3.955   5.442  0.00  0.00    +0.034 C 
ENDROOT
BRANCH   7  12
ATOM     12  C   UNL     1      -9.186   5.444   5.782  0.00  0.00    -0.001 A 
ATOM     13  C   UNL     1     -10.115   5.035   4.843  0.00  0.00    +0.007 A 
ATOM     14  C   UNL     1     -10.674   5.956   3.978  0.00  0.00    +0.000 A 
ATOM     15  C   UNL     1     -10.298   7.285   4.044  0.00  0.00    +0.001 A 
ATOM     16  C   UNL     1      -9.366   7.694   4.979  0.00  0.00    +0.020 A 
ATOM     17  C   UNL     1      -8.809   6.773   5.849  0.00  0.00    +0.047 A 
ATOM     18 CL   UNL     1      -7.639   7.286   7.025  0.00  0.00    -0.083 Cl
ENDBRANCH   7  12
BRANCH   5  19
ATOM     19  S   UNL     1      -4.917   5.161   8.213  0.00  0.00    -0.056 S 
BRANCH  19  20
ATOM     20  C   UNL     1      -4.582   3.968   9.465  0.00  0.00    +0.165 A 
ATOM     21  N   UNL     1      -5.408   3.131  10.064  0.00  0.00    -0.133 NA
ATOM     22  N   UNL     1      -4.931   2.272  11.027  0.00  0.00    -0.125 NA
ATOM     23  C   UNL     1      -3.652   2.289  11.348  0.00  0.00    +0.182 A 
ATOM     24  S   UNL     1      -3.037   3.573  10.270  0.00  0.00    -0.024 S 
ATOM     25  N   UNL     1      -2.967   1.519  12.280  0.00  0.00    -0.320 N 
ATOM     26  H   UNL     1      -2.014   1.646  12.408  0.00  0.00    +0.148 HD
BRANCH  25  27
ATOM     27  C   UNL     1      -3.685   0.515  13.069  0.00  0.00    +0.135 C 
BRANCH  27  28
ATOM     28  C   UNL     1      -2.706  -0.187  14.012  0.00  0.00    +0.135 C 
ATOM     29  C   UNL     1      -3.410  -1.341  14.771  0.00  0.00    +0.035 C 
ATOM     30  C   UNL     1      -2.537  -1.474  16.042  0.00  0.00    +0.031 C 
ATOM     31  C   UNL     1      -1.817  -0.116  16.149  0.00  0.00    +0.160 C 
ATOM     32  O   UNL     1      -2.286   0.707  15.068  0.00  0.00    -0.375 OA
ENDBRANCH  27  28
ENDBRANCH  25  27
ENDBRANCH  19  20
ENDBRANCH   5  19
TORSDOF 5
