REMARK  Name = ZINC12051361
REMARK  7 active torsions:
REMARK  status: ('A' for Active; 'I' for Inactive)
REMARK    1  A    between atoms: C_1  and  C_2
REMARK    2  A    between atoms: C_6  and  S_31
REMARK    3  A    between atoms: C_15  and  C_18
REMARK    4  A    between atoms: N_20  and  C_21
REMARK    5  A    between atoms: C_21  and  C_23
REMARK    6  A    between atoms: C_21  and  C_24
REMARK    7  A    between atoms: S_31  and  C_34
REMARK                            x       y       z     vdW  Elec       q    Type
REMARK                         _______ _______ _______ _____ _____    ______ ____
ROOT
ATOM      1  C   UNL     1      -1.270  -2.196   0.002  0.00  0.00    +0.066 C 
ATOM      2  C   UNL     1      -1.227  -0.690   0.011  0.00  0.00    +0.051 A 
ATOM      3  C   UNL     1       0.002  -0.004   0.002  0.00  0.00    +0.022 A 
ATOM      4  C   UNL     1       1.231  -0.680  -0.013  0.00  0.00    +0.013 A 
ATOM      5  C   UNL     1       2.390   0.036  -0.021  0.00  0.00    +0.028 A 
ATOM      6  C   UNL     1       2.372   1.429  -0.013  0.00  0.00    +0.090 A 
ATOM      7  C   UNL     1       1.197   2.117   0.002  0.00  0.00    +0.055 A 
ATOM      8  C   UNL     1      -0.017   1.414   0.010  0.00  0.00    +0.078 A 
ATOM      9  N   UNL     1      -1.200   2.042   0.030  0.00  0.00    -0.214 NA
ATOM     10  C   UNL     1      -2.320   1.347   0.032  0.00  0.00    +0.219 A 
ATOM     11  N   UNL     1      -2.339   0.015   0.025  0.00  0.00    -0.219 NA
ATOM     12  N   UNL     1      -3.524   2.028   0.049  0.00  0.00    -0.300 N 
ATOM     13  C   UNL     1      -3.614   2.964  -1.079  0.00  0.00    +0.108 C 
ATOM     14  C   UNL     1      -4.889   3.800  -0.949  0.00  0.00    +0.032 C 
ATOM     15  C   UNL     1      -6.105   2.870  -0.935  0.00  0.00    +0.078 C 
ATOM     16  C   UNL     1      -5.963   1.874   0.220  0.00  0.00    +0.032 C 
ATOM     17  C   UNL     1      -4.657   1.093   0.055  0.00  0.00    +0.108 C 
ENDROOT
BRANCH  15  18
ATOM     18  C   UNL     1      -7.359   3.684  -0.746  0.00  0.00    +0.217 C 
ATOM     19  O   UNL     1      -8.070   3.487   0.216  0.00  0.00    -0.275 OA
ATOM     20  N   UNL     1      -7.691   4.630  -1.647  0.00  0.00    -0.308 N 
ATOM     21  H   UNL     1      -7.122   4.787  -2.417  0.00  0.00    +0.149 HD
BRANCH  20  22
ATOM     22  C   UNL     1      -8.910   5.421  -1.464  0.00  0.00    +0.101 C 
ATOM     23  C   UNL     1     -10.104   4.659  -2.043  0.00  0.00    +0.033 C 
BRANCH  22  24
ATOM     24  C   UNL     1      -8.764   6.741  -2.175  0.00  0.00    -0.009 A 
ATOM     25  C   UNL     1      -7.898   6.857  -3.246  0.00  0.00    +0.007 A 
ATOM     26  C   UNL     1      -7.763   8.068  -3.898  0.00  0.00    +0.000 A 
ATOM     27  C   UNL     1      -8.496   9.164  -3.481  0.00  0.00    +0.001 A 
ATOM     28  C   UNL     1      -9.363   9.049  -2.411  0.00  0.00    +0.020 A 
ATOM     29  C   UNL     1      -9.502   7.836  -1.760  0.00  0.00    +0.046 A 
ATOM     30 CL   UNL     1     -10.595   7.688  -0.421  0.00  0.00    -0.083 Cl
ENDBRANCH  22  24
ENDBRANCH  20  22
ENDBRANCH  15  18
BRANCH   6  31
ATOM     31  S   UNL     1       3.895   2.315  -0.022  0.00  0.00    -0.006 S 
ATOM     32  O   UNL     1       3.593   3.561   0.591  0.00  0.00    -0.170 OA
ATOM     33  O   UNL     1       4.835   1.427   0.567  0.00  0.00    -0.170 OA
ATOM     34  C   UNL     1       4.282   2.560  -1.777  0.00  0.00    +0.200 C 
ENDBRANCH   6  31
TORSDOF 4
