REMARK  Name = ZINC12719779
REMARK  8 active torsions:
REMARK  status: ('A' for Active; 'I' for Inactive)
REMARK    1  A    between atoms: C_1  and  C_2
REMARK    2  A    between atoms: C_5  and  O_39
REMARK    3  A    between atoms: C_18  and  C_38
REMARK    4  A    between atoms: C_23  and  C_24
REMARK    5  A    between atoms: C_27  and  O_32
REMARK    6  A    between atoms: C_28  and  O_30
REMARK    7  A    between atoms: O_30  and  C_31
REMARK    8  A    between atoms: O_32  and  C_33
REMARK                            x       y       z     vdW  Elec       q    Type
REMARK                         _______ _______ _______ _____ _____    ______ ____
ROOT
ATOM      1  C   UNL     1       0.664  -8.258   0.242  0.00  0.00    +0.012 C 
ATOM      2  C   UNL     1       1.234  -7.124   1.097  0.00  0.00    -0.026 C 
ATOM      3  C   UNL     1       1.218  -7.539   2.569  0.00  0.00    +0.010 C 
ATOM      4  C   UNL     1       2.069  -8.797   2.754  0.00  0.00    +0.032 C 
ATOM      5  C   UNL     1       3.508  -8.506   2.322  0.00  0.00    +0.115 C 
ATOM      6  C   UNL     1       3.525  -8.091   0.850  0.00  0.00    +0.035 C 
ATOM      7  C   UNL     1       2.673  -6.834   0.664  0.00  0.00    -0.002 C 
ATOM      8  C   UNL     1       2.688  -6.420  -0.809  0.00  0.00    +0.004 C 
ATOM      9  C   UNL     1       1.837  -5.164  -0.995  0.00  0.00    +0.004 C 
ATOM     10  C   UNL     1       0.398  -5.453  -0.561  0.00  0.00    -0.003 C 
ATOM     11  C   UNL     1       0.381  -5.867   0.909  0.00  0.00    -0.001 C 
ATOM     12  C   UNL     1      -1.067  -6.178   1.305  0.00  0.00    +0.005 C 
ATOM     13  C   UNL     1      -1.885  -4.895   1.186  0.00  0.00    +0.015 C 
ATOM     14  C   UNL     1      -1.912  -4.394  -0.260  0.00  0.00    +0.034 C 
ATOM     15  C   UNL     1      -0.486  -4.262  -0.824  0.00  0.00    +0.010 C 
ATOM     16  C   UNL     1       0.008  -2.978  -0.129  0.00  0.00    +0.043 C 
ATOM     17  C   UNL     1      -1.240  -2.108  -0.099  0.00  0.00    -0.004 C 
ATOM     18  C   UNL     1      -1.258  -0.757   0.011  0.00  0.00    +0.015 C 
ATOM     19  C   UNL     1      -2.378  -2.940  -0.198  0.00  0.00    +0.165 C 
ATOM     20  O   UNL     1      -3.532  -2.563  -0.231  0.00  0.00    -0.292 OA
ATOM     21  C   UNL     1      -2.803  -5.264  -1.149  0.00  0.00    +0.020 C 
ENDROOT
BRANCH  18  22
ATOM     22  C   UNL     1      -0.013  -0.026   0.275  0.00  0.00    -0.021 A 
ATOM     23  C   UNL     1       1.108  -0.704   0.772  0.00  0.00    +0.012 A 
ATOM     24  C   UNL     1       2.275  -0.015   1.019  0.00  0.00    +0.050 A 
ATOM     25  C   UNL     1       2.344   1.351   0.776  0.00  0.00    +0.168 A 
ATOM     26  C   UNL     1       1.232   2.033   0.281  0.00  0.00    +0.162 A 
ATOM     27  C   UNL     1       0.059   1.351   0.030  0.00  0.00    +0.057 A 
BRANCH  26  28
ATOM     28  O   UNL     1       1.305   3.370   0.045  0.00  0.00    -0.491 OA
ATOM     29  C   UNL     1       0.130   4.005  -0.462  0.00  0.00    +0.277 C 
ENDBRANCH  26  28
BRANCH  25  30
ATOM     30  O   UNL     1       3.497   2.024   1.021  0.00  0.00    -0.431 OA
BRANCH  30  31
ATOM     31  C   UNL     1       4.597   1.264   1.528  0.00  0.00    +0.541 C 
ATOM     32  F   UNL     1       4.237   0.679   2.746  0.00  0.00    -0.166 F 
ATOM     33  F   UNL     1       4.934   0.263   0.611  0.00  0.00    -0.166 F 
ENDBRANCH  30  31
ENDBRANCH  25  30
ENDBRANCH  18  22
BRANCH   5  34
ATOM     34  O   UNL     1       4.041  -7.448   3.122  0.00  0.00    -0.392 OA
ATOM     35  H   UNL     1       4.060  -7.643   4.069  0.00  0.00    +0.210 HD
ENDBRANCH   5  34
TORSDOF 5
