REMARK  Name = ZINC24881131
REMARK  8 active torsions:
REMARK  status: ('A' for Active; 'I' for Inactive)
REMARK    1  A    between atoms: C_1  and  C_2
REMARK    2  A    between atoms: C_5  and  C_36
REMARK    3  A    between atoms: C_10  and  C_12
REMARK    4  A    between atoms: C_12  and  N_13
REMARK    5  A    between atoms: N_16  and  C_19
REMARK    6  A    between atoms: C_19  and  C_20
REMARK    7  A    between atoms: C_20  and  C_21
REMARK    8  A    between atoms: N_23  and  N_24
REMARK                            x       y       z     vdW  Elec       q    Type
REMARK                         _______ _______ _______ _____ _____    ______ ____
ROOT
ATOM      1  C   UNL     1       0.952   7.096  -7.798  0.00  0.00    +0.093 C 
ENDROOT
BRANCH   1   5
ATOM      2  N   UNL     1       0.520   4.728  -4.325  0.00  0.00    +0.387 N 
ATOM      3  C   UNL     1      -0.668   5.426  -4.835  0.00  0.00    -0.063 C 
ATOM      4  C   UNL     1      -0.231   6.572  -5.750  0.00  0.00    +0.066 C 
ATOM      5  N   UNL     1       0.575   6.034  -6.855  0.00  0.00    -0.305 NA
ATOM      6  C   UNL     1       1.764   5.337  -6.345  0.00  0.00    +0.066 C 
ATOM      7  C   UNL     1       1.326   4.190  -5.430  0.00  0.00    -0.063 C 
ATOM      8  H   UNL     1       1.136   5.460  -3.781  0.00  0.00    -0.081 HD
BRANCH   2   9
ATOM      9  C   UNL     1       0.144   3.667  -3.383  0.00  0.00    +0.019 C 
BRANCH   9  17
ATOM     10  C   UNL     1       0.002  -0.004   0.002  0.00  0.00    +0.009 C 
ATOM     11  C   UNL     1      -0.019   1.526   0.010  0.00  0.00    +0.004 C 
ATOM     12  C   UNL     1      -0.736   2.020   1.269  0.00  0.00    +0.009 C 
ATOM     13  C   UNL     1      -0.729   3.550   1.294  0.00  0.00    +0.004 C 
ATOM     14  C   UNL     1      -1.480   4.081   0.069  0.00  0.00    +0.111 C 
ATOM     15  N   UNL     1      -0.886   3.495  -1.140  0.00  0.00    -0.303 N 
ATOM     16  C   UNL     1      -0.761   2.034  -1.230  0.00  0.00    +0.111 C 
ATOM     17  C   UNL     1      -0.463   4.283  -2.149  0.00  0.00    +0.199 C 
ATOM     18  O   UNL     1      -0.572   5.488  -2.063  0.00  0.00    -0.278 OA
ATOM     19  C   UNL     1      -1.417   4.043   2.569  0.00  0.00    +0.009 C 
ENDBRANCH   9  17
ENDBRANCH   2   9
ENDBRANCH   1   5
BRANCH   1  20
ATOM     20  C   UNL     1      -0.303   7.629  -8.493  0.00  0.00    +0.112 C 
BRANCH  20  21
ATOM     21  C   UNL     1       0.084   8.719  -9.460  0.00  0.00    +0.231 C 
ATOM     22  O   UNL     1       1.248   9.037  -9.581  0.00  0.00    -0.274 OA
ATOM     23  N   UNL     1      -0.864   9.339 -10.190  0.00  0.00    -0.224 N 
ATOM     24  H   UNL     1      -1.920   9.051 -10.079  0.00  0.00    +0.174 HD
BRANCH  23  25
ATOM     25  N   UNL     1      -0.505  10.352 -11.089  0.00  0.00    -0.137 N 
ATOM     26  C   UNL     1      -0.469  10.198 -12.429  0.00  0.00    +0.263 C 
ATOM     27  O   UNL     1      -0.731   9.197 -13.060  0.00  0.00    -0.271 OA
ATOM     28  C   UNL     1      -0.033  11.537 -12.977  0.00  0.00    +0.114 C 
ATOM     29  C   UNL     1      -1.115  12.119 -13.880  0.00  0.00    +0.035 C 
ATOM     30  C   UNL     1      -0.667  13.487 -14.402  0.00  0.00    +0.003 C 
ATOM     31  C   UNL     1       0.641  13.331 -15.181  0.00  0.00    +0.000 C 
ATOM     32  C   UNL     1       1.722  12.770 -14.255  0.00  0.00    +0.003 C 
ATOM     33  C   UNL     1       1.284  11.399 -13.732  0.00  0.00    +0.035 C 
ATOM     34  N   UNL     1       0.144  12.372 -11.782  0.00  0.00    -0.284 N 
ATOM     35  C   UNL     1      -0.161  11.593 -10.726  0.00  0.00    +0.326 C 
ATOM     36  O   UNL     1      -0.124  11.974  -9.572  0.00  0.00    -0.251 OA
ATOM     37  H   UNL     1       0.469  13.418 -11.884  0.00  0.00    +0.151 HD
ENDBRANCH  23  25
ENDBRANCH  20  21
ENDBRANCH   1  20
TORSDOF 6
