REMARK  Name = ZINC21026851
REMARK  4 active torsions:
REMARK  status: ('A' for Active; 'I' for Inactive)
REMARK    1  A    between atoms: C_1  and  C_2
REMARK    2  A    between atoms: C_2  and  C_4
REMARK    3  A    between atoms: C_2  and  N_14
REMARK    4  A    between atoms: N_14  and  C_15
REMARK                            x       y       z     vdW  Elec       q    Type
REMARK                         _______ _______ _______ _____ _____    ______ ____
ROOT
ATOM      1  C   UNL     1       6.525   0.349   1.364  0.00  0.00    -0.006 C 
ATOM      2  C   UNL     1       6.013   0.628  -0.051  0.00  0.00    -0.007 C 
ENDROOT
BRANCH   2   3
ATOM      3  C   UNL     1       4.507   0.692  -0.036  0.00  0.00    +0.092 A 
ATOM      4  C   UNL     1       3.788   1.823  -0.024  0.00  0.00    +0.051 A 
ATOM      5  C   UNL     1       2.379   1.411  -0.013  0.00  0.00    +0.021 A 
ATOM      6  C   UNL     1       1.164   2.095   0.002  0.00  0.00    +0.027 A 
ATOM      7  C   UNL     1      -0.017   1.384   0.010  0.00  0.00    +0.019 A 
ATOM      8  C   UNL     1       0.002  -0.004   0.002  0.00  0.00    +0.019 A 
ATOM      9  C   UNL     1       1.197  -0.691  -0.013  0.00  0.00    +0.048 A 
ATOM     10  C   UNL     1       2.398   0.006  -0.020  0.00  0.00    +0.135 A 
ATOM     11  O   UNL     1       3.691  -0.376  -0.034  0.00  0.00    -0.461 OA
ATOM     12 BR   UNL     1      -1.669   2.304   0.022  0.00  0.00    -0.050 Br
ENDBRANCH   2   3
BRANCH   2  13
ATOM     13  N   UNL     1       6.448  -0.448  -0.951  0.00  0.00    +0.387 N 
ATOM     14  H   UNL     1       6.450  -1.404  -0.406  0.00  0.00    -0.085 HD
ATOM     15  H   UNL     1       5.758  -0.514  -1.804  0.00  0.00    -0.085 HD
BRANCH  13  16
ATOM     16  C   UNL     1       7.803  -0.194  -1.459  0.00  0.00    -0.071 C 
ATOM     17  C   UNL     1       7.724   0.713  -2.689  0.00  0.00    -0.016 C 
ATOM     18  C   UNL     1       9.108   1.299  -2.979  0.00  0.00    -0.002 C 
ATOM     19  C   UNL     1       9.750   1.765  -1.672  0.00  0.00    -0.000 C 
ATOM     20  C   UNL     1      10.963   0.886  -1.357  0.00  0.00    -0.000 C 
ATOM     21  C   UNL     1      10.486  -0.468  -0.828  0.00  0.00    -0.000 C 
ATOM     22  C   UNL     1       9.970  -1.317  -1.991  0.00  0.00    -0.002 C 
ATOM     23  C   UNL     1       8.461  -1.520  -1.845  0.00  0.00    -0.016 C 
ENDBRANCH  13  16
ENDBRANCH   2  13
TORSDOF 3
