REMARK  Name = ZINC49268737
REMARK  6 active torsions:
REMARK  status: ('A' for Active; 'I' for Inactive)
REMARK    1  A    between atoms: C_1  and  C_2
REMARK    2  A    between atoms: N_5  and  C_11
REMARK    3  A    between atoms: C_7  and  C_10
REMARK    4  A    between atoms: C_13  and  C_14
REMARK    5  A    between atoms: C_13  and  C_16
REMARK    6  A    between atoms: C_16  and  C_18
REMARK                            x       y       z     vdW  Elec       q    Type
REMARK                         _______ _______ _______ _____ _____    ______ ____
ROOT
ATOM      1  C   UNL     1      -2.043  -2.895  -0.571  0.00  0.00    +0.261 C 
ATOM      2  O   UNL     1      -1.545  -3.166  -1.792  0.00  0.00    -0.269 OA
ATOM      3  C   UNL     1      -3.308  -3.366  -0.213  0.00  0.00    +0.160 C 
ENDROOT
BRANCH   1   7
ATOM      4  C   UNL     1       0.088   1.347   0.450  0.00  0.00    +0.039 C 
ATOM      5  C   UNL     1       0.091  -0.173   0.277  0.00  0.00    +0.133 C 
ATOM      6  C   UNL     1      -1.351  -0.693   0.293  0.00  0.00    +0.139 C 
ATOM      7  N   UNL     1      -1.314  -2.164   0.314  0.00  0.00    -0.292 N 
ATOM      8  C   UNL     1      -0.465  -2.820   1.321  0.00  0.00    +0.139 C 
ATOM      9  C   UNL     1       0.934  -2.196   1.254  0.00  0.00    +0.133 C 
ATOM     10  O   UNL     1       0.822  -0.774   1.348  0.00  0.00    -0.371 OA
ATOM     11  C   UNL     1       1.783  -2.720   2.414  0.00  0.00    +0.039 C 
ENDBRANCH   1   7
BRANCH   3  12
ATOM     12  C   UNL     1      -3.886  -2.982   1.040  0.00  0.00    +0.108 C 
ATOM     13  N   UNL     1      -4.345  -2.678   2.033  0.00  0.00    -0.191 NA
ENDBRANCH   3  12
BRANCH   3  14
ATOM     14  C   UNL     1      -4.019  -4.224  -1.089  0.00  0.00    +0.208 C 
ATOM     15  O   UNL     1      -3.486  -4.637  -2.103  0.00  0.00    -0.286 OA
BRANCH  14  16
ATOM     16  C   UNL     1      -5.410  -4.617  -0.772  0.00  0.00    +0.027 A 
ATOM     17  C   UNL     1      -6.240  -3.748  -0.063  0.00  0.00    +0.050 A 
ATOM     18  C   UNL     1      -7.537  -4.121   0.230  0.00  0.00    +0.125 A 
ATOM     19  C   UNL     1      -8.015  -5.356  -0.179  0.00  0.00    +0.053 A 
ATOM     20  C   UNL     1      -7.195  -6.222  -0.882  0.00  0.00    +0.021 A 
ATOM     21  C   UNL     1      -5.899  -5.857  -1.185  0.00  0.00    +0.027 A 
ATOM     22 BR   UNL     1      -7.856  -7.905  -1.435  0.00  0.00    -0.050 Br
ATOM     23  F   UNL     1      -8.342  -3.281   0.917  0.00  0.00    -0.205 F 
ENDBRANCH  14  16
ENDBRANCH   3  14
TORSDOF 4
