REMARK  Name = ZINC12815706
REMARK  6 active torsions:
REMARK  status: ('A' for Active; 'I' for Inactive)
REMARK    1  A    between atoms: C_1  and  C_2
REMARK    2  A    between atoms: C_2  and  C_4
REMARK    3  A    between atoms: C_2  and  N_14
REMARK    4  A    between atoms: C_15  and  C_17
REMARK    5  A    between atoms: C_17  and  C_18
REMARK    6  A    between atoms: C_18  and  C_19
REMARK                            x       y       z     vdW  Elec       q    Type
REMARK                         _______ _______ _______ _____ _____    ______ ____
ROOT
ATOM      1  N   UNL     1      -2.371   3.894  -9.503  0.00  0.00    -0.309 N 
ATOM      2  C   UNL     1      -1.328   3.441  -8.778  0.00  0.00    +0.214 C 
ATOM      3  O   UNL     1      -0.280   3.174  -9.326  0.00  0.00    -0.276 OA
ATOM      4  H   UNL     1      -3.209   4.107  -9.065  0.00  0.00    +0.149 HD
ENDROOT
BRANCH   1   6
ATOM      5  C   UNL     1      -1.675   5.455 -11.253  0.00  0.00    +0.033 C 
ATOM      6  C   UNL     1      -2.237   4.063 -10.952  0.00  0.00    +0.101 C 
BRANCH   6   7
ATOM      7  C   UNL     1      -3.589   3.916 -11.601  0.00  0.00    -0.020 A 
ATOM      8  C   UNL     1      -4.719   4.210 -10.903  0.00  0.00    +0.006 A 
ATOM      9  C   UNL     1      -5.978   4.080 -11.487  0.00  0.00    +0.001 A 
ATOM     10  C   UNL     1      -6.113   3.655 -12.773  0.00  0.00    +0.008 A 
ATOM     11  C   UNL     1      -4.968   3.342 -13.526  0.00  0.00    -0.018 A 
ATOM     12  C   UNL     1      -3.688   3.480 -12.933  0.00  0.00    -0.013 A 
ATOM     13  C   UNL     1      -2.543   3.173 -13.688  0.00  0.00    +0.009 A 
ATOM     14  C   UNL     1      -2.678   2.753 -14.976  0.00  0.00    +0.001 A 
ATOM     15  C   UNL     1      -3.937   2.623 -15.560  0.00  0.00    +0.001 A 
ATOM     16  C   UNL     1      -5.068   2.902 -14.857  0.00  0.00    +0.008 A 
ENDBRANCH   6   7
ENDBRANCH   1   6
BRANCH   2  17
ATOM     17  C   UNL     1      -1.466   3.267  -7.288  0.00  0.00    +0.103 C 
BRANCH  17  18
ATOM     18  C   UNL     1      -0.148   2.744  -6.712  0.00  0.00    +0.083 C 
BRANCH  18  19
ATOM     19  C   UNL     1      -0.285   2.570  -5.221  0.00  0.00    +0.111 A 
ATOM     20  N   UNL     1       0.773   2.113  -4.503  0.00  0.00    -0.310 N 
ATOM     21  H   UNL     1       1.603   1.905  -4.961  0.00  0.00    +0.170 HD
ATOM     22  C   UNL     1       0.693   1.942  -3.170  0.00  0.00    +0.260 A 
ATOM     23  O   UNL     1       1.651   1.530  -2.539  0.00  0.00    -0.267 OA
ATOM     24  C   UNL     1      -0.539   2.252  -2.508  0.00  0.00    +0.075 A 
ATOM     25  C   UNL     1      -0.851   2.142  -1.075  0.00  0.00    -0.023 A 
ATOM     26  C   UNL     1      -2.090   2.497  -0.694  0.00  0.00    -0.004 A 
ATOM     27  S   UNL     1      -2.908   2.991  -2.194  0.00  0.00    -0.073 S 
ATOM     28  C   UNL     1      -1.573   2.717  -3.330  0.00  0.00    +0.116 A 
ATOM     29  N   UNL     1      -1.420   2.861  -4.644  0.00  0.00    -0.227 NA
ATOM     30  C   UNL     1      -2.293   2.348   0.790  0.00  0.00    +0.043 C 
ATOM     31  C   UNL     1      -0.862   2.256   1.370  0.00  0.00    +0.010 C 
ATOM     32  C   UNL     1      -0.075   1.698   0.169  0.00  0.00    +0.037 C 
ENDBRANCH  18  19
ENDBRANCH  17  18
ENDBRANCH   2  17
TORSDOF 5
