REMARK  Name = ZINC05685919
REMARK  10 active torsions:
REMARK  status: ('A' for Active; 'I' for Inactive)
REMARK    1  A    between atoms: C_1  and  C_2
REMARK    2  A    between atoms: C_2  and  C_3
REMARK    3  A    between atoms: C_2  and  C_4
REMARK    4  A    between atoms: C_2  and  C_5
REMARK    5  A    between atoms: C_12  and  N_27
REMARK    6  A    between atoms: C_13  and  C_25
REMARK    7  A    between atoms: C_14  and  C_16
REMARK    8  A    between atoms: C_19  and  O_24
REMARK    9  A    between atoms: C_20  and  O_22
REMARK   10  A    between atoms: O_22  and  C_23
REMARK                            x       y       z     vdW  Elec       q    Type
REMARK                         _______ _______ _______ _____ _____    ______ ____
ROOT
ATOM      1  C   UNL     1       0.691  -0.806  -2.054  0.00  0.00    +0.076 A 
ATOM      2  C   UNL     1       0.910  -2.177  -2.080  0.00  0.00    +0.050 A 
ATOM      3  C   UNL     1       1.540  -2.483  -3.254  0.00  0.00    +0.222 A 
ATOM      4  N   UNL     1       1.706  -1.338  -3.936  0.00  0.00    -0.246 N 
ATOM      5  H   UNL     1       2.124  -1.248  -4.807  0.00  0.00    +0.192 HD
ATOM      6  N   UNL     1       1.161  -0.297  -3.168  0.00  0.00    -0.175 NA
ATOM      7  O   UNL     1       1.899  -3.748  -3.585  0.00  0.00    -0.423 OA
ATOM      8  C   UNL     1       1.869  -4.681  -2.610  0.00  0.00    +0.200 C 
ATOM      9  C   UNL     1       1.267  -4.500  -1.414  0.00  0.00    +0.098 C 
ATOM     10  C   UNL     1       0.555  -3.220  -1.052  0.00  0.00    +0.101 C 
ENDROOT
BRANCH  10  11
ATOM     11  C   UNL     1      -0.935  -3.448  -1.053  0.00  0.00    -0.031 A 
ATOM     12  C   UNL     1      -1.599  -3.661  -2.247  0.00  0.00    +0.008 A 
ATOM     13  C   UNL     1      -2.966  -3.870  -2.253  0.00  0.00    +0.049 A 
ATOM     14  C   UNL     1      -3.672  -3.868  -1.061  0.00  0.00    +0.158 A 
ATOM     15  C   UNL     1      -3.003  -3.654   0.141  0.00  0.00    +0.162 A 
ATOM     16  C   UNL     1      -1.633  -3.450   0.140  0.00  0.00    +0.054 A 
BRANCH  15  17
ATOM     17  O   UNL     1      -3.693  -3.651   1.313  0.00  0.00    -0.491 OA
ATOM     18  C   UNL     1      -2.941  -3.425   2.507  0.00  0.00    +0.277 C 
ENDBRANCH  15  17
BRANCH  14  19
ATOM     19  O   UNL     1      -5.017  -4.073  -1.065  0.00  0.00    -0.503 OA
ATOM     20  H   UNL     1      -5.273  -5.003  -0.986  0.00  0.00    +0.292 HD
ENDBRANCH  14  19
ENDBRANCH  10  11
BRANCH   1  22
ATOM     21  C   UNL     1      -1.463  -0.396  -0.896  0.00  0.00    +0.017 C 
ATOM     22  C   UNL     1       0.024  -0.038  -0.943  0.00  0.00    +0.007 C 
ATOM     23  C   UNL     1       0.179   1.463  -1.195  0.00  0.00    +0.017 C 
ATOM     24  C   UNL     1       0.677  -0.401   0.392  0.00  0.00    +0.017 C 
ENDBRANCH   1  22
BRANCH   8  25
ATOM     25  N   UNL     1       2.487  -5.883  -2.848  0.00  0.00    -0.328 N 
ATOM     26  H   UNL     1       2.928  -6.043  -3.697  0.00  0.00    +0.145 HD
ATOM     27  H   UNL     1       2.483  -6.573  -2.166  0.00  0.00    +0.145 HD
ENDBRANCH   8  25
BRANCH   9  28
ATOM     28  C   UNL     1       1.306  -5.562  -0.455  0.00  0.00    +0.101 C 
ATOM     29  N   UNL     1       1.337  -6.405   0.306  0.00  0.00    -0.191 NA
ENDBRANCH   9  28
TORSDOF 6
