REMARK  Name = ZINC05347182
REMARK  7 active torsions:
REMARK  status: ('A' for Active; 'I' for Inactive)
REMARK    1  A    between atoms: C_1  and  C_2
REMARK    2  A    between atoms: C_3  and  C_15
REMARK    3  A    between atoms: C_9  and  O_14
REMARK    4  A    between atoms: C_11  and  O_13
REMARK    5  A    between atoms: C_15  and  C_16
REMARK    6  A    between atoms: N_18  and  C_19
REMARK    7  A    between atoms: C_19  and  C_20
REMARK                            x       y       z     vdW  Elec       q    Type
REMARK                         _______ _______ _______ _____ _____    ______ ____
ROOT
ATOM      1  C   UNL     1       4.938   1.416  -0.038  0.00  0.00    +0.045 C 
ATOM      2  C   UNL     1       3.612   2.132  -0.021  0.00  0.00    -0.026 A 
ATOM      3  C   UNL     1       3.559   3.489   0.028  0.00  0.00    +0.049 A 
ATOM      4  C   UNL     1       2.311   4.143   0.043  0.00  0.00    +0.341 A 
ATOM      5  O   UNL     1       2.272   5.359   0.088  0.00  0.00    -0.245 OA
ATOM      6  O   UNL     1       1.163   3.445   0.009  0.00  0.00    -0.422 OA
ATOM      7  C   UNL     1       1.172   2.094  -0.041  0.00  0.00    +0.146 A 
ATOM      8  C   UNL     1       2.397   1.401  -0.058  0.00  0.00    +0.062 A 
ATOM      9  C   UNL     1       2.405  -0.004  -0.110  0.00  0.00    +0.131 A 
ATOM     10  C   UNL     1       1.209  -0.693  -0.144  0.00  0.00    +0.091 A 
ATOM     11  C   UNL     1       0.002  -0.001  -0.128  0.00  0.00    +0.124 A 
ATOM     12  C   UNL     1      -0.017   1.384  -0.076  0.00  0.00    +0.092 A 
ENDROOT
BRANCH  11  13
ATOM     13  O   UNL     1      -1.168  -0.689  -0.162  0.00  0.00    -0.507 OA
ATOM     14  H   UNL     1      -1.500  -0.856  -1.054  0.00  0.00    +0.292 HD
ENDBRANCH  11  13
BRANCH   9  15
ATOM     15  O   UNL     1       3.582  -0.679  -0.126  0.00  0.00    -0.506 OA
ATOM     16  H   UNL     1       3.930  -0.842  -1.014  0.00  0.00    +0.292 HD
ENDBRANCH   9  15
BRANCH   3  17
ATOM     17  C   UNL     1       4.833   4.293   0.068  0.00  0.00    +0.138 C 
BRANCH  17  18
ATOM     18  C   UNL     1       5.269   4.613  -1.339  0.00  0.00    +0.218 C 
ATOM     19  O   UNL     1       4.610   4.226  -2.281  0.00  0.00    -0.275 OA
ATOM     20  N   UNL     1       6.391   5.329  -1.550  0.00  0.00    -0.311 N 
ATOM     21  H   UNL     1       6.918   5.638  -0.797  0.00  0.00    +0.149 HD
BRANCH  20  22
ATOM     22  C   UNL     1       6.815   5.640  -2.918  0.00  0.00    +0.139 C 
BRANCH  22  23
ATOM     23  C   UNL     1       8.089   6.444  -2.878  0.00  0.00    -0.030 A 
ATOM     24  C   UNL     1       8.033   7.825  -2.833  0.00  0.00    +0.008 A 
ATOM     25  C   UNL     1       9.201   8.563  -2.792  0.00  0.00    +0.038 A 
ATOM     26  C   UNL     1      10.427   7.920  -2.806  0.00  0.00    +0.123 A 
ATOM     27  C   UNL     1      10.481   6.537  -2.856  0.00  0.00    +0.038 A 
ATOM     28  C   UNL     1       9.312   5.801  -2.892  0.00  0.00    +0.008 A 
ATOM     29  F   UNL     1      11.569   8.640  -2.771  0.00  0.00    -0.205 F 
ENDBRANCH  22  23
ENDBRANCH  20  22
ENDBRANCH  17  18
ENDBRANCH   3  17
TORSDOF 6
