REMARK  Name = ZINC03849805
REMARK  13 active torsions:
REMARK  status: ('A' for Active; 'I' for Inactive)
REMARK    1  A    between atoms: C_1  and  C_2
REMARK    2  A    between atoms: C_2  and  O_3
REMARK    3  A    between atoms: O_3  and  C_4
REMARK    4  A    between atoms: C_4  and  C_6
REMARK    5  A    between atoms: C_6  and  C_7
REMARK    6  A    between atoms: C_6  and  C_8
REMARK    7  A    between atoms: C_6  and  C_9
REMARK    8  A    between atoms: C_9  and  O_41
REMARK    9  A    between atoms: C_12  and  C_40
REMARK   10  A    between atoms: C_24  and  C_39
REMARK   11  A    between atoms: C_29  and  O_31
REMARK   12  A    between atoms: O_31  and  C_32
REMARK   13  A    between atoms: C_32  and  C_33
REMARK                            x       y       z     vdW  Elec       q    Type
REMARK                         _______ _______ _______ _____ _____    ______ ____
ROOT
ATOM      1  C   UNL     1      -2.108   1.054  -3.658  0.00  0.00    +0.082 C 
ATOM      2  C   UNL     1      -0.953   0.316  -2.991  0.00  0.00    +0.036 C 
ATOM      3  C   UNL     1      -0.271   1.183  -1.944  0.00  0.00    +0.010 C 
ATOM      4  C   UNL     1      -1.294   1.842  -1.007  0.00  0.00    -0.026 C 
ATOM      5  C   UNL     1      -2.655   1.177  -1.214  0.00  0.00    -0.002 C 
ATOM      6  C   UNL     1      -3.175   1.409  -2.628  0.00  0.00    +0.040 C 
ATOM      7  C   UNL     1      -3.665   1.722  -0.203  0.00  0.00    +0.004 C 
ATOM      8  C   UNL     1      -3.206   1.372   1.210  0.00  0.00    +0.004 C 
ATOM      9  C   UNL     1      -1.834   1.982   1.494  0.00  0.00    -0.004 C 
ATOM     10  C   UNL     1      -0.830   1.617   0.426  0.00  0.00    -0.001 C 
ATOM     11  C   UNL     1       0.536   2.226   0.699  0.00  0.00    +0.005 C 
ATOM     12  C   UNL     1       0.498   3.701   1.041  0.00  0.00    +0.010 C 
ATOM     13  C   UNL     1      -0.580   4.103   2.014  0.00  0.00    -0.003 C 
ATOM     14  C   UNL     1      -1.958   3.485   1.727  0.00  0.00    +0.001 C 
ATOM     15  C   UNL     1      -2.694   3.669   3.088  0.00  0.00    +0.007 C 
ATOM     16  C   UNL     1      -1.600   3.481   4.158  0.00  0.00    +0.032 C 
ATOM     17  C   UNL     1      -0.245   3.686   3.455  0.00  0.00    +0.125 C 
ATOM     18  C   UNL     1      -0.715   5.632   1.975  0.00  0.00    +0.014 C 
ATOM     19  C   UNL     1      -1.383   3.324  -1.360  0.00  0.00    +0.012 C 
ENDROOT
BRANCH   1  20
ATOM     20  C   UNL     1      -2.730   0.150  -4.728  0.00  0.00    +0.091 C 
ATOM     21  C   UNL     1      -1.669  -0.214  -5.768  0.00  0.00    +0.025 C 
ATOM     22  C   UNL     1      -3.260  -1.127  -4.072  0.00  0.00    +0.025 C 
BRANCH  20  23
ATOM     23  C   UNL     1      -3.865   0.877  -5.402  0.00  0.00    +0.316 C 
ATOM     24  O   UNL     1      -4.148   2.002  -5.063  0.00  0.00    -0.250 OA
BRANCH  23  25
ATOM     25  O   UNL     1      -4.561   0.275  -6.379  0.00  0.00    -0.464 OA
BRANCH  25  27
ATOM     26  C   UNL     1      -6.314   0.192  -8.068  0.00  0.00    +0.048 C 
ATOM     27  C   UNL     1      -5.641   1.035  -6.983  0.00  0.00    +0.229 C 
ENDBRANCH  25  27
ENDBRANCH  23  25
ENDBRANCH  20  23
ENDBRANCH   1  20
BRANCH   1  28
ATOM     28  O   UNL     1      -1.623   2.246  -4.281  0.00  0.00    -0.387 OA
ATOM     29  H   UNL     1      -1.118   2.821  -3.689  0.00  0.00    +0.210 HD
ENDBRANCH   1  28
BRANCH  17  30
ATOM     30  O   UNL     1       0.499   4.718   4.102  0.00  0.00    -0.371 OA
BRANCH  30  31
ATOM     31  C   UNL     1       1.405   4.243   5.099  0.00  0.00    +0.195 C 
BRANCH  31  32
ATOM     32  C   UNL     1       2.133   5.411   5.713  0.00  0.00    -0.022 A 
ATOM     33  C   UNL     1       3.328   5.844   5.170  0.00  0.00    +0.006 A 
ATOM     34  C   UNL     1       3.993   6.918   5.731  0.00  0.00    +0.000 A 
ATOM     35  C   UNL     1       3.468   7.553   6.841  0.00  0.00    +0.000 A 
ATOM     36  C   UNL     1       2.276   7.117   7.387  0.00  0.00    +0.000 A 
ATOM     37  C   UNL     1       1.608   6.046   6.823  0.00  0.00    +0.006 A 
ENDBRANCH  31  32
ENDBRANCH  30  31
ENDBRANCH  17  30
TORSDOF 8
