REMARK  Name = ZINC40569368
REMARK  8 active torsions:
REMARK  status: ('A' for Active; 'I' for Inactive)
REMARK    1  A    between atoms: C_1  and  C_2
REMARK    2  A    between atoms: C_2  and  C_3
REMARK    3  A    between atoms: C_3  and  C_4
REMARK    4  A    between atoms: N_10  and  C_11
REMARK    5  A    between atoms: C_11  and  C_12
REMARK    6  A    between atoms: C_18  and  C_26
REMARK    7  A    between atoms: C_20  and  C_24
REMARK    8  A    between atoms: C_21  and  N_23
REMARK                            x       y       z     vdW  Elec       q    Type
REMARK                         _______ _______ _______ _____ _____    ______ ____
ROOT
ATOM      1  C   UNL     1       0.555  -1.855  -1.205  0.00  0.00    +0.026 A 
ATOM      2  C   UNL     1      -0.436  -2.351  -1.976  0.00  0.00    +0.068 A 
ATOM      3  C   UNL     1      -0.495  -3.736  -2.235  0.00  0.00    +0.141 A 
ATOM      4  C   UNL     1       0.469  -4.559  -1.692  0.00  0.00    +0.072 A 
ATOM      5  C   UNL     1       1.478  -3.999  -0.898  0.00  0.00    +0.259 A 
ATOM      6  O   UNL     1       2.338  -4.716  -0.410  0.00  0.00    -0.267 OA
ATOM      7  N   UNL     1       1.504  -2.671  -0.677  0.00  0.00    -0.309 N 
ATOM      8  C   UNL     1       0.445  -6.041  -1.944  0.00  0.00    +0.103 C 
ATOM      9  C   UNL     1      -0.903  -6.456  -2.464  0.00  0.00    +0.098 C 
ATOM     10  C   UNL     1      -1.777  -5.546  -2.957  0.00  0.00    +0.199 C 
ATOM     11  O   UNL     1      -1.485  -4.235  -3.006  0.00  0.00    -0.441 OA
ENDROOT
BRANCH   8  12
ATOM     12  C   UNL     1       1.499  -6.392  -2.962  0.00  0.00    -0.033 A 
ATOM     13  C   UNL     1       1.455  -5.831  -4.224  0.00  0.00    +0.004 A 
ATOM     14  C   UNL     1       2.421  -6.153  -5.159  0.00  0.00    +0.001 A 
ATOM     15  C   UNL     1       3.434  -7.035  -4.830  0.00  0.00    +0.015 A 
ATOM     16  C   UNL     1       3.479  -7.596  -3.567  0.00  0.00    +0.018 A 
ATOM     17  C   UNL     1       2.514  -7.270  -2.631  0.00  0.00    +0.020 A 
ATOM     18 BR   UNL     1       4.863  -8.803  -3.117  0.00  0.00    -0.050 Br
ENDBRANCH   8  12
BRANCH  10  19
ATOM     19  N   UNL     1      -2.995  -5.976  -3.420  0.00  0.00    -0.328 N 
ATOM     20  H   UNL     1      -3.220  -6.919  -3.391  0.00  0.00    +0.145 HD
ATOM     21  H   UNL     1      -3.631  -5.336  -3.776  0.00  0.00    +0.145 HD
ENDBRANCH  10  19
BRANCH   9  22
ATOM     22  C   UNL     1      -1.271  -7.840  -2.438  0.00  0.00    +0.101 C 
ATOM     23  N   UNL     1      -1.562  -8.938  -2.417  0.00  0.00    -0.191 NA
ENDBRANCH   9  22
BRANCH   1  24
ATOM     24  C   UNL     1       0.614  -0.374  -0.932  0.00  0.00    +0.053 C 
BRANCH  24  26
ATOM     25  C   UNL     1       1.446   1.823  -1.784  0.00  0.00    +0.004 C 
ATOM     26  C   UNL     1       1.475   0.308  -1.997  0.00  0.00    +0.003 C 
ENDBRANCH  24  26
ENDBRANCH   1  24
BRANCH   7  27
ATOM     27  C   UNL     1       2.569  -2.099   0.150  0.00  0.00    +0.156 C 
BRANCH  27  28
ATOM     28  C   UNL     1       2.092  -2.003   1.601  0.00  0.00    +0.138 C 
ATOM     29  C   UNL     1       3.172  -1.315   2.463  0.00  0.00    +0.035 C 
ATOM     30  C   UNL     1       3.111  -2.132   3.782  0.00  0.00    +0.031 C 
ATOM     31  C   UNL     1       2.773  -3.543   3.239  0.00  0.00    +0.160 C 
ATOM     32  O   UNL     1       1.884  -3.317   2.132  0.00  0.00    -0.375 OA
ENDBRANCH  27  28
ENDBRANCH   7  27
TORSDOF 7
