REMARK  Name = ZINC39664120
REMARK  9 active torsions:
REMARK  status: ('A' for Active; 'I' for Inactive)
REMARK    1  A    between atoms: C_1  and  N_2
REMARK    2  A    between atoms: C_6  and  C_7
REMARK    3  A    between atoms: C_11  and  C_20
REMARK    4  A    between atoms: N_22  and  C_23
REMARK    5  A    between atoms: C_23  and  C_24
REMARK    6  A    between atoms: C_24  and  C_26
REMARK    7  A    between atoms: C_24  and  N_34
REMARK    8  A    between atoms: C_29  and  O_32
REMARK    9  A    between atoms: O_32  and  C_33
REMARK                            x       y       z     vdW  Elec       q    Type
REMARK                         _______ _______ _______ _____ _____    ______ ____
ROOT
ATOM      1  C   UNL     1      -0.135  -0.326   2.380  0.00  0.00    +0.263 C 
ATOM      2  O   UNL     1      -0.018  -1.091   3.319  0.00  0.00    -0.268 OA
ATOM      3  N   UNL     1      -0.325   0.990   2.602  0.00  0.00    -0.295 N 
ATOM      4  C   UNL     1      -0.629   2.044   1.606  0.00  0.00    +0.121 C 
ATOM      5  C   UNL     1      -1.659   2.958   2.308  0.00  0.00    +0.100 C 
ATOM      6  C   UNL     1      -1.423   2.735   3.811  0.00  0.00    -0.004 C 
ATOM      7  C   UNL     1      -0.285   1.707   3.899  0.00  0.00    +0.115 C 
ATOM      8  C   UNL     1      -2.682   2.175   4.466  0.00  0.00    -0.010 C 
ATOM      9  C   UNL     1      -2.440   2.015   5.970  0.00  0.00    -0.082 C 
ATOM     10  N   UNL     1      -2.098   3.318   6.554  0.00  0.00    +0.379 N 
ATOM     11  C   UNL     1      -0.836   3.806   5.984  0.00  0.00    -0.082 C 
ATOM     12  C   UNL     1      -1.009   4.041   4.481  0.00  0.00    -0.010 C 
ATOM     13  H   UNL     1      -2.833   3.979   6.353  0.00  0.00    -0.086 HD
ATOM     14  H   UNL     1      -1.999   3.222   7.553  0.00  0.00    -0.086 HD
ENDROOT
BRANCH   1  20
ATOM     15  C   UNL     1      -0.051  -3.307   1.540  0.00  0.00    +0.149 C 
ATOM     16  N   UNL     1      -0.030  -2.159   0.630  0.00  0.00    -0.346 N 
ATOM     17  C   UNL     1       0.023  -2.224  -0.723  0.00  0.00    +0.086 A 
ATOM     18  C   UNL     1       0.026  -0.965  -1.222  0.00  0.00    +0.020 A 
ATOM     19  C   UNL     1      -0.027  -0.076  -0.144  0.00  0.00    +0.032 A 
ATOM     20  C   UNL     1      -0.068  -0.835   1.006  0.00  0.00    +0.104 A 
ENDBRANCH   1  20
BRANCH   5  21
ATOM     21  C   UNL     1      -3.061   2.556   1.929  0.00  0.00    +0.218 C 
ATOM     22  O   UNL     1      -3.291   1.418   1.577  0.00  0.00    -0.275 OA
ATOM     23  N   UNL     1      -4.059   3.460   1.982  0.00  0.00    -0.316 N 
ATOM     24  H   UNL     1      -3.875   4.370   2.264  0.00  0.00    +0.149 HD
BRANCH  23  25
ATOM     25  C   UNL     1      -5.422   3.068   1.614  0.00  0.00    +0.093 C 
BRANCH  25  26
ATOM     26  C   UNL     1      -6.331   4.299   1.639  0.00  0.00    -0.020 C 
BRANCH  26  27
ATOM     27  C   UNL     1      -5.899   5.264   0.565  0.00  0.00    -0.059 A 
ATOM     28  C   UNL     1      -6.285   5.054  -0.746  0.00  0.00    +0.005 A 
ATOM     29  C   UNL     1      -5.891   5.937  -1.733  0.00  0.00    +0.046 A 
ATOM     30  C   UNL     1      -5.107   7.034  -1.408  0.00  0.00    +0.120 A 
ATOM     31  C   UNL     1      -4.721   7.243  -0.092  0.00  0.00    +0.046 A 
ATOM     32  C   UNL     1      -5.123   6.360   0.892  0.00  0.00    +0.005 A 
BRANCH  30  33
ATOM     33  O   UNL     1      -4.718   7.904  -2.377  0.00  0.00    -0.495 OA
ATOM     34  C   UNL     1      -3.912   9.011  -1.969  0.00  0.00    +0.277 C 
ENDBRANCH  30  33
ENDBRANCH  26  27
BRANCH  26  35
ATOM     35  N   UNL     1      -7.720   3.888   1.399  0.00  0.00    +0.385 N 
ATOM     36  C   UNL     1      -8.225   3.092   2.547  0.00  0.00    -0.078 C 
ATOM     37  C   UNL     1      -9.763   3.227   2.423  0.00  0.00    -0.020 C 
ATOM     38  C   UNL     1      -9.945   4.688   1.951  0.00  0.00    -0.020 C 
ATOM     39  C   UNL     1      -8.597   5.076   1.315  0.00  0.00    -0.078 C 
ATOM     40  H   UNL     1      -7.782   3.349   0.547  0.00  0.00    -0.081 HD
ENDBRANCH  26  35
ENDBRANCH  25  26
ENDBRANCH  23  25
ENDBRANCH   5  21
TORSDOF 7
