REMARK  Name = ZINC61698968
REMARK  5 active torsions:
REMARK  status: ('A' for Active; 'I' for Inactive)
REMARK    1  A    between atoms: C_1  and  C_2
REMARK    2  A    between atoms: C_2  and  C_4
REMARK    3  A    between atoms: C_2  and  N_23
REMARK    4  A    between atoms: C_7  and  O_11
REMARK    5  A    between atoms: O_11  and  C_12
REMARK                            x       y       z     vdW  Elec       q    Type
REMARK                         _______ _______ _______ _____ _____    ______ ____
ROOT
ATOM      1  C   UNL     1       0.726  -0.570   1.200  0.00  0.00    -0.061 A 
ATOM      2  C   UNL     1       2.108  -0.561   1.227  0.00  0.00    +0.005 A 
ATOM      3  C   UNL     1       2.781  -0.996   2.353  0.00  0.00    +0.047 A 
ATOM      4  C   UNL     1       2.068  -1.442   3.456  0.00  0.00    +0.135 A 
ATOM      5  C   UNL     1       0.681  -1.450   3.427  0.00  0.00    +0.060 A 
ATOM      6  C   UNL     1       0.013  -1.008   2.300  0.00  0.00    +0.021 A 
ATOM      7 BR   UNL     1      -0.295  -2.058   4.928  0.00  0.00    -0.047 Br
ENDROOT
BRANCH   1   9
ATOM      8  C   UNL     1      -0.047   1.435  -0.039  0.00  0.00    -0.009 C 
ATOM      9  C   UNL     1      -0.005  -0.095  -0.030  0.00  0.00    -0.047 C 
BRANCH   9  10
ATOM     10  N   UNL     1       0.693  -0.573  -1.230  0.00  0.00    +0.382 N 
ATOM     11  H   UNL     1       1.635  -0.211  -1.238  0.00  0.00    -0.089 HD
ATOM     12  H   UNL     1       0.721  -1.582  -1.224  0.00  0.00    -0.089 HD
ATOM     13  H   UNL     1       0.204  -0.255  -2.053  0.00  0.00    -0.089 HD
ENDBRANCH   9  10
ENDBRANCH   1   9
BRANCH   4  14
ATOM     14  O   UNL     1       2.728  -1.871   4.564  0.00  0.00    -0.483 OA
BRANCH  14  15
ATOM     15  C   UNL     1       4.152  -1.958   4.479  0.00  0.00    +0.204 C 
ATOM     16  C   UNL     1       4.631  -3.175   5.268  0.00  0.00    +0.050 C 
ATOM     17  C   UNL     1       6.161  -3.129   5.347  0.00  0.00    +0.009 C 
ATOM     18  C   UNL     1       6.561  -1.975   6.265  0.00  0.00    +0.035 C 
ATOM     19  C   UNL     1       5.869  -0.703   5.849  0.00  0.00    -0.041 A 
ATOM     20  C   UNL     1       4.761  -0.696   5.032  0.00  0.00    -0.004 A 
ATOM     21  C   UNL     1       4.166   0.512   4.692  0.00  0.00    +0.007 A 
ATOM     22  C   UNL     1       4.679   1.703   5.163  0.00  0.00    +0.000 A 
ATOM     23  C   UNL     1       5.794   1.695   5.980  0.00  0.00    +0.000 A 
ATOM     24  C   UNL     1       6.385   0.497   6.319  0.00  0.00    +0.004 A 
ENDBRANCH  14  15
ENDBRANCH   4  14
TORSDOF 4
