REMARK  Name = ZINC06895703
REMARK  6 active torsions:
REMARK  status: ('A' for Active; 'I' for Inactive)
REMARK    1  A    between atoms: C_1  and  C_2
REMARK    2  A    between atoms: C_5  and  C_8
REMARK    3  A    between atoms: C_8  and  S_9
REMARK    4  A    between atoms: S_9  and  C_11
REMARK    5  A    between atoms: C_11  and  C_12
REMARK    6  A    between atoms: C_15  and  C_17
REMARK                            x       y       z     vdW  Elec       q    Type
REMARK                         _______ _______ _______ _____ _____    ______ ____
ROOT
ATOM      1  C   UNL     1       2.928  -7.597  -0.038  0.00  0.00    +0.118 A 
ATOM      2  C   UNL     1       3.754  -7.622   1.031  0.00  0.00    +0.046 A 
ATOM      3  C   UNL     1       5.021  -8.007   0.565  0.00  0.00    +0.055 A 
ATOM      4  C   UNL     1       4.902  -8.199  -0.782  0.00  0.00    +0.190 A 
ATOM      5  O   UNL     1       3.621  -7.950  -1.128  0.00  0.00    -0.454 OA
ENDROOT
BRANCH   4   6
ATOM      6  C   UNL     1       5.976  -8.609  -1.692  0.00  0.00    +0.282 C 
ATOM      7  O   UNL     1       7.057  -8.944  -1.246  0.00  0.00    -0.267 OA
ATOM      8  N   UNL     1       5.765  -8.616  -3.024  0.00  0.00    -0.292 N 
ATOM      9  C   UNL     1       4.516  -8.083  -3.586  0.00  0.00    +0.127 C 
ATOM     10  C   UNL     1       4.864  -7.006  -4.620  0.00  0.00    +0.125 C 
ATOM     11  N   UNL     1       5.880  -7.545  -5.536  0.00  0.00    -0.314 N 
ATOM     12  C   UNL     1       7.129  -8.077  -4.974  0.00  0.00    +0.125 C 
ATOM     13  C   UNL     1       6.783  -9.149  -3.939  0.00  0.00    +0.127 C 
ATOM     14  C   UNL     1       5.663  -7.551  -6.909  0.00  0.00    +0.099 A 
ATOM     15  C   UNL     1       4.541  -6.916  -7.433  0.00  0.00    +0.042 A 
ATOM     16  C   UNL     1       4.338  -6.930  -8.800  0.00  0.00    +0.005 A 
ATOM     17  C   UNL     1       5.266  -7.582  -9.602  0.00  0.00    +0.018 A 
ATOM     18  C   UNL     1       6.356  -8.192  -9.015  0.00  0.00    +0.084 A 
ATOM     19  N   UNL     1       6.528  -8.158  -7.707  0.00  0.00    -0.350 N 
ATOM     20  H   UNL     1       7.305  -8.591  -7.321  0.00  0.00    +0.166 HD
ENDBRANCH   4   6
BRANCH   1  21
ATOM     21  C   UNL     1       1.464  -7.237  -0.008  0.00  0.00    +0.178 C 
BRANCH  21  22
ATOM     22  S   UNL     1       1.275  -5.452  -0.273  0.00  0.00    +0.034 S 
ATOM     23  O   UNL     1       1.758  -5.112  -1.565  0.00  0.00    -0.256 OA
BRANCH  22  24
ATOM     24  C   UNL     1      -0.518  -5.187  -0.209  0.00  0.00    +0.139 C 
BRANCH  24  29
ATOM     25  C   UNL     1      -1.668   0.419  -1.010  0.00  0.00    +0.044 C 
ATOM     26  C   UNL     1      -1.368  -1.042  -0.801  0.00  0.00    -0.050 A 
ATOM     27  C   UNL     1      -1.299  -1.896  -1.886  0.00  0.00    +0.003 A 
ATOM     28  C   UNL     1      -1.024  -3.237  -1.695  0.00  0.00    +0.005 A 
ATOM     29  C   UNL     1      -0.817  -3.724  -0.418  0.00  0.00    -0.035 A 
ATOM     30  C   UNL     1      -0.885  -2.871   0.667  0.00  0.00    +0.005 A 
ATOM     31  C   UNL     1      -1.157  -1.529   0.475  0.00  0.00    +0.003 A 
ENDBRANCH  24  29
ENDBRANCH  22  24
ENDBRANCH  21  22
ENDBRANCH   1  21
TORSDOF 5
