REMARK  Name = ZINC58290037
REMARK  9 active torsions:
REMARK  status: ('A' for Active; 'I' for Inactive)
REMARK    1  A    between atoms: C_1  and  C_2
REMARK    2  A    between atoms: C_2  and  C_3
REMARK    3  A    between atoms: C_5  and  C_8
REMARK    4  A    between atoms: C_8  and  C_10
REMARK    5  A    between atoms: C_8  and  N_11
REMARK    6  A    between atoms: C_14  and  C_17
REMARK    7  A    between atoms: N_21  and  C_22
REMARK    8  A    between atoms: C_22  and  C_23
REMARK    9  A    between atoms: C_23  and  O_24
REMARK                            x       y       z     vdW  Elec       q    Type
REMARK                         _______ _______ _______ _____ _____    ______ ____
ROOT
ATOM      1  N   UNL     1       3.968  -0.949   4.299  0.00  0.00    +0.387 N 
ATOM      2  C   UNL     1       5.310  -1.320   4.766  0.00  0.00    -0.077 C 
ATOM      3  C   UNL     1       5.529  -0.780   6.181  0.00  0.00    -0.009 C 
ATOM      4  C   UNL     1       5.395   0.745   6.166  0.00  0.00    +0.034 C 
ATOM      5  C   UNL     1       4.019   1.122   5.608  0.00  0.00    -0.009 C 
ATOM      6  C   UNL     1       3.856   0.512   4.214  0.00  0.00    -0.077 C 
ATOM      7  H   UNL     1       3.280  -1.301   4.947  0.00  0.00    -0.081 HD
ENDROOT
BRANCH   4   8
ATOM      8  C   UNL     1       5.531   1.277   7.570  0.00  0.00    +0.042 A 
ATOM      9  C   UNL     1       5.102   0.667   8.699  0.00  0.00    +0.044 A 
ATOM     10  C   UNL     1       5.424   1.492   9.782  0.00  0.00    +0.134 A 
ATOM     11  N   UNL     1       6.025   2.558   9.320  0.00  0.00    -0.179 NA
ATOM     12  N   UNL     1       6.110   2.443   7.926  0.00  0.00    -0.266 N 
BRANCH  12  13
ATOM     13  C   UNL     1       6.716   3.418   7.016  0.00  0.00    +0.171 C 
BRANCH  13  14
ATOM     14  C   UNL     1       5.656   4.427   6.570  0.00  0.00    +0.179 C 
BRANCH  14  15
ATOM     15  O   UNL     1       6.248   5.378   5.682  0.00  0.00    -0.393 OA
ATOM     16  H   UNL     1       5.632   6.050   5.359  0.00  0.00    +0.209 HD
ENDBRANCH  14  15
ENDBRANCH  13  14
ENDBRANCH  12  13
ENDBRANCH   4   8
BRANCH   1  17
ATOM     17  C   UNL     1       3.734  -1.535   2.973  0.00  0.00    +0.019 C 
ATOM     18  C   UNL     1       3.850  -3.058   3.060  0.00  0.00    -0.003 C 
BRANCH  17  21
ATOM     19  C   UNL     1       0.731  -0.503   1.223  0.00  0.00    +0.171 A 
ATOM     20  N   UNL     1       2.045  -0.740   1.302  0.00  0.00    -0.197 NA
ATOM     21  C   UNL     1       2.353  -1.163   2.496  0.00  0.00    +0.214 A 
ATOM     22  O   UNL     1       1.232  -1.210   3.226  0.00  0.00    -0.340 OA
ATOM     23  N   UNL     1       0.185  -0.769   2.375  0.00  0.00    -0.061 NA
BRANCH  19  25
ATOM     24  C   UNL     1      -0.019   1.526   0.010  0.00  0.00    +0.012 C 
ATOM     25  C   UNL     1       0.002  -0.004   0.002  0.00  0.00    +0.076 C 
ENDBRANCH  19  25
ENDBRANCH  17  21
ENDBRANCH   1  17
TORSDOF 7
