REMARK  Name = ZINC39710611
REMARK  12 active torsions:
REMARK  status: ('A' for Active; 'I' for Inactive)
REMARK    1  A    between atoms: C_1  and  C_2
REMARK    2  A    between atoms: C_7  and  C_14
REMARK    3  A    between atoms: C_14  and  C_16
REMARK    4  A    between atoms: C_14  and  N_25
REMARK    5  A    between atoms: N_20  and  C_21
REMARK    6  A    between atoms: C_21  and  C_22
REMARK    7  A    between atoms: C_22  and  O_23
REMARK    8  A    between atoms: O_23  and  C_24
REMARK    9  A    between atoms: N_25  and  C_26
REMARK   10  A    between atoms: N_25  and  C_33
REMARK   11  A    between atoms: C_26  and  C_27
REMARK   12  A    between atoms: C_33  and  C_34
REMARK                            x       y       z     vdW  Elec       q    Type
REMARK                         _______ _______ _______ _____ _____    ______ ____
ROOT
ATOM      1  C   UNL     1       2.188  -6.162   1.139  0.00  0.00    +0.019 C 
ENDROOT
BRANCH   1   8
ATOM      2  C   UNL     1      -4.631  -4.338  -1.386  0.00  0.00    +0.044 C 
ATOM      3  C   UNL     1      -3.433  -4.710  -0.552  0.00  0.00    -0.049 A 
ATOM      4  C   UNL     1      -3.586  -5.667   0.451  0.00  0.00    +0.004 A 
ATOM      5  C   UNL     1      -2.543  -6.043   1.235  0.00  0.00    +0.010 A 
ATOM      6  C   UNL     1      -1.235  -5.425   1.013  0.00  0.00    -0.007 A 
ATOM      7  C   UNL     1      -0.159  -5.772   1.776  0.00  0.00    -0.006 C 
ATOM      8  C   UNL     1       1.157  -5.082   1.475  0.00  0.00    +0.092 C 
ATOM      9  C   UNL     1       1.169  -4.066   0.356  0.00  0.00    +0.223 C 
ATOM     10  O   UNL     1       2.199  -3.482   0.072  0.00  0.00    -0.275 OA
ATOM     11  N   UNL     1       0.057  -3.814  -0.314  0.00  0.00    -0.285 N 
ATOM     12  C   UNL     1      -1.102  -4.418  -0.054  0.00  0.00    +0.041 A 
ATOM     13  C   UNL     1      -2.245  -4.104  -0.812  0.00  0.00    +0.027 A 
ATOM     14  H   UNL     1       0.086  -3.159  -1.028  0.00  0.00    +0.155 HD
ENDBRANCH   1   8
BRANCH   1  15
ATOM     15  C   UNL     1       3.503  -5.511   0.796  0.00  0.00    +0.139 A 
ATOM     16  N   UNL     1       4.345  -4.958   1.635  0.00  0.00    -0.115 NA
ATOM     17  N   UNL     1       5.348  -4.516   0.958  0.00  0.00    -0.023 NA
ATOM     18  N   UNL     1       5.168  -4.773  -0.291  0.00  0.00    -0.044 NA
ATOM     19  N   UNL     1       4.044  -5.391  -0.430  0.00  0.00    -0.229 N 
BRANCH  19  20
ATOM     20  C   UNL     1       3.464  -5.869  -1.688  0.00  0.00    +0.175 C 
BRANCH  20  21
ATOM     21  C   UNL     1       2.748  -4.713  -2.391  0.00  0.00    +0.183 C 
BRANCH  21  22
ATOM     22  O   UNL     1       2.167  -5.183  -3.609  0.00  0.00    -0.381 OA
ATOM     23  C   UNL     1       1.471  -4.177  -4.346  0.00  0.00    +0.194 C 
ENDBRANCH  21  22
ENDBRANCH  20  21
ENDBRANCH  19  20
ENDBRANCH   1  15
BRANCH   1  24
ATOM     24  N   UNL     1       2.366  -7.046   2.299  0.00  0.00    +0.392 N 
ATOM     25  H   UNL     1       1.509  -7.548   2.474  0.00  0.00    -0.080 HD
BRANCH  24  26
ATOM     26  C   UNL     1       3.447  -8.002   2.023  0.00  0.00    -0.042 C 
BRANCH  26  27
ATOM     27  C   UNL     1       3.008  -8.960   0.946  0.00  0.00    -0.064 A 
ATOM     28  C   UNL     1       2.223 -10.051   1.269  0.00  0.00    +0.002 A 
ATOM     29  C   UNL     1       1.820 -10.930   0.281  0.00  0.00    +0.000 A 
ATOM     30  C   UNL     1       2.202 -10.717  -1.031  0.00  0.00    +0.000 A 
ATOM     31  C   UNL     1       2.986  -9.625  -1.354  0.00  0.00    +0.000 A 
ATOM     32  C   UNL     1       3.385  -8.744  -0.366  0.00  0.00    +0.002 A 
ENDBRANCH  26  27
ENDBRANCH  24  26
BRANCH  24  33
ATOM     33  C   UNL     1       2.713  -6.242   3.479  0.00  0.00    -0.040 C 
BRANCH  33  34
ATOM     34  C   UNL     1       1.452  -5.836   4.197  0.00  0.00    -0.046 A 
ATOM     35  C   UNL     1       1.105  -4.500   4.283  0.00  0.00    +0.003 A 
ATOM     36  C   UNL     1      -0.052  -4.128   4.942  0.00  0.00    +0.000 A 
ATOM     37  C   UNL     1      -0.862  -5.090   5.516  0.00  0.00    +0.001 A 
ATOM     38  C   UNL     1      -0.516  -6.425   5.430  0.00  0.00    +0.020 A 
ATOM     39  C   UNL     1       0.638  -6.799   4.766  0.00  0.00    +0.042 A 
ATOM     40 CL   UNL     1       1.070  -8.477   4.653  0.00  0.00    -0.083 Cl
ENDBRANCH  33  34
ENDBRANCH  24  33
ENDBRANCH   1  24
TORSDOF 10
