REMARK  Name = ZINC60379897
REMARK  11 active torsions:
REMARK  status: ('A' for Active; 'I' for Inactive)
REMARK    1  A    between atoms: C_1  and  N_2
REMARK    2  A    between atoms: N_2  and  C_3
REMARK    3  A    between atoms: C_3  and  C_4
REMARK    4  A    between atoms: C_4  and  N_5
REMARK    5  A    between atoms: N_5  and  C_6
REMARK    6  A    between atoms: C_12  and  C_14
REMARK    7  A    between atoms: N_19  and  C_21
REMARK    8  A    between atoms: C_21  and  C_22
REMARK    9  A    between atoms: C_25  and  C_27
REMARK   10  A    between atoms: N_32  and  C_34
REMARK   11  A    between atoms: C_34  and  C_35
REMARK                            x       y       z     vdW  Elec       q    Type
REMARK                         _______ _______ _______ _____ _____    ______ ____
ROOT
ATOM      1  N   UNL     1      -1.142  -1.398   3.344  0.00  0.00    -0.270 N 
ATOM      2  C   UNL     1      -1.016  -2.712   3.620  0.00  0.00    +0.225 C 
ATOM      3  O   UNL     1      -0.749  -3.071   4.748  0.00  0.00    -0.275 OA
ENDROOT
BRANCH   1   4
ATOM      4  C   UNL     1      -0.841  -0.445   4.323  0.00  0.00    +0.036 A 
ATOM      5  C   UNL     1      -1.125   0.896   4.100  0.00  0.00    +0.023 A 
ATOM      6  C   UNL     1      -0.827   1.834   5.068  0.00  0.00    +0.002 A 
ATOM      7  C   UNL     1      -0.246   1.439   6.260  0.00  0.00    +0.000 A 
ATOM      8  C   UNL     1       0.038   0.105   6.485  0.00  0.00    +0.002 A 
ATOM      9  C   UNL     1      -0.263  -0.839   5.523  0.00  0.00    +0.023 A 
ENDBRANCH   1   4
BRANCH   2  10
ATOM     10  C   UNL     1      -1.206  -3.733   2.529  0.00  0.00    +0.101 C 
ATOM     11  C   UNL     1       0.089  -3.906   1.702  0.00  0.00    +0.110 C 
ATOM     12  C   UNL     1       0.133  -5.385   1.386  0.00  0.00    +0.216 C 
ATOM     13  O   UNL     1       0.827  -5.893   0.531  0.00  0.00    -0.276 OA
ATOM     14  N   UNL     1      -0.710  -6.055   2.192  0.00  0.00    -0.300 N 
ATOM     15  C   UNL     1      -1.394  -5.147   3.121  0.00  0.00    +0.121 C 
BRANCH  14  16
ATOM     16  C   UNL     1      -0.920  -7.504   2.147  0.00  0.00    +0.111 C 
BRANCH  16  17
ATOM     17  C   UNL     1       0.069  -8.191   3.091  0.00  0.00    +0.006 C 
ATOM     18  C   UNL     1       1.100  -9.134   2.469  0.00  0.00    +0.005 C 
ATOM     19  C   UNL     1      -0.067  -9.704   3.277  0.00  0.00    +0.005 C 
ENDBRANCH  16  17
ENDBRANCH  14  16
ENDBRANCH   2  10
BRANCH   1  20
ATOM     20  C   UNL     1      -1.595  -0.969   2.019  0.00  0.00    +0.132 C 
BRANCH  20  21
ATOM     21  C   UNL     1      -0.381  -0.653   1.143  0.00  0.00    +0.127 C 
BRANCH  21  23
ATOM     22  C   UNL     1      -1.079   1.241  -0.395  0.00  0.00    +0.132 C 
ATOM     23  N   UNL     1      -0.835  -0.186  -0.170  0.00  0.00    -0.303 N 
ATOM     24  C   UNL     1      -1.028  -1.069  -1.170  0.00  0.00    +0.220 C 
ATOM     25  O   UNL     1      -0.923  -2.258  -0.957  0.00  0.00    -0.275 OA
BRANCH  24  26
ATOM     26  C   UNL     1      -1.373  -0.578  -2.552  0.00  0.00    +0.101 C 
ATOM     27  C   UNL     1      -2.866  -0.183  -2.642  0.00  0.00    +0.110 C 
ATOM     28  C   UNL     1      -3.283  -0.621  -4.029  0.00  0.00    +0.216 C 
ATOM     29  O   UNL     1      -4.285  -0.250  -4.602  0.00  0.00    -0.276 OA
ATOM     30  N   UNL     1      -2.380  -1.479  -4.534  0.00  0.00    -0.300 N 
ATOM     31  C   UNL     1      -1.288  -1.725  -3.583  0.00  0.00    +0.121 C 
BRANCH  30  32
ATOM     32  C   UNL     1      -2.473  -2.090  -5.862  0.00  0.00    +0.111 C 
BRANCH  32  33
ATOM     33  C   UNL     1      -1.766  -1.197  -6.884  0.00  0.00    +0.006 C 
ATOM     34  C   UNL     1      -2.621  -0.581  -7.994  0.00  0.00    +0.005 C 
ATOM     35  C   UNL     1      -1.651  -1.719  -8.318  0.00  0.00    +0.005 C 
ENDBRANCH  32  33
ENDBRANCH  30  32
ENDBRANCH  24  26
ENDBRANCH  21  23
ENDBRANCH  20  21
ENDBRANCH   1  20
TORSDOF 10
