REMARK  Name = ZINC12161365
REMARK  12 active torsions:
REMARK  status: ('A' for Active; 'I' for Inactive)
REMARK    1  A    between atoms: C_1  and  C_2
REMARK    2  A    between atoms: C_7  and  C_8
REMARK    3  A    between atoms: C_8  and  C_9
REMARK    4  A    between atoms: C_9  and  C_21
REMARK    5  A    between atoms: N_12  and  C_16
REMARK    6  A    between atoms: C_16  and  C_17
REMARK    7  A    between atoms: C_17  and  C_18
REMARK    8  A    between atoms: C_18  and  N_74
REMARK    9  A    between atoms: C_19  and  N_74
REMARK   10  A    between atoms: C_20  and  N_74
REMARK   11  A    between atoms: C_27  and  C_29
REMARK   12  A    between atoms: C_34  and  C_35
REMARK                            x       y       z     vdW  Elec       q    Type
REMARK                         _______ _______ _______ _____ _____    ______ ____
ROOT
ATOM      1  C   UNL     1      -3.775  -6.597  -0.866  0.00  0.00    +0.119 C 
ATOM      2  C   UNL     1      -3.105  -5.327  -1.353  0.00  0.00    +0.247 C 
ATOM      3  O   UNL     1      -2.712  -5.090  -2.475  0.00  0.00    -0.273 OA
ATOM      4  N   UNL     1      -3.035  -4.517  -0.278  0.00  0.00    -0.224 N 
ATOM      5  C   UNL     1      -3.569  -5.090   0.807  0.00  0.00    +0.309 C 
ATOM      6  O   UNL     1      -3.626  -4.552   1.895  0.00  0.00    -0.252 OA
ATOM      7  N   UNL     1      -4.036  -6.326   0.558  0.00  0.00    -0.284 N 
ATOM      8  H   UNL     1      -4.462  -6.924   1.193  0.00  0.00    +0.151 HD
ENDROOT
BRANCH   1   9
ATOM      9  C   UNL     1      -5.086  -6.834  -1.618  0.00  0.00    +0.025 C 
ATOM     10  C   UNL     1      -4.780  -7.218  -3.068  0.00  0.00    +0.025 C 
ATOM     11  C   UNL     1      -6.094  -7.489  -3.808  0.00  0.00    +0.108 C 
ATOM     12  N   UNL     1      -6.967  -6.316  -3.666  0.00  0.00    -0.297 N 
ATOM     13  C   UNL     1      -7.253  -5.807  -2.318  0.00  0.00    +0.108 C 
ATOM     14  C   UNL     1      -5.927  -5.556  -1.594  0.00  0.00    +0.025 C 
ATOM     15  C   UNL     1      -7.496  -5.718  -4.752  0.00  0.00    +0.247 C 
ATOM     16  O   UNL     1      -8.273  -4.793  -4.619  0.00  0.00    -0.270 OA
BRANCH  15  17
ATOM     17  C   UNL     1      -7.131  -6.188  -6.106  0.00  0.00    +0.040 A 
ATOM     18  C   UNL     1      -7.278  -7.535  -6.444  0.00  0.00    +0.013 A 
ATOM     19  C   UNL     1      -6.940  -7.966  -7.710  0.00  0.00    +0.001 A 
ATOM     20  C   UNL     1      -6.447  -7.069  -8.641  0.00  0.00    +0.000 A 
ATOM     21  C   UNL     1      -6.295  -5.734  -8.311  0.00  0.00    +0.004 A 
ATOM     22  C   UNL     1      -6.634  -5.289  -7.050  0.00  0.00    -0.038 A 
ATOM     23  C   UNL     1      -6.466  -3.834  -6.692  0.00  0.00    +0.044 C 
ENDBRANCH  15  17
ENDBRANCH   1   9
BRANCH   1  24
ATOM     24  C   UNL     1      -2.841  -7.798  -1.024  0.00  0.00    +0.071 C 
BRANCH  24  31
ATOM     25  C   UNL     1      -0.451  -6.799  -2.302  0.00  0.00    +0.044 C 
ATOM     26  C   UNL     1      -0.447  -7.094  -0.825  0.00  0.00    -0.047 A 
ATOM     27  C   UNL     1       0.698  -6.883  -0.080  0.00  0.00    +0.003 A 
ATOM     28  C   UNL     1       0.703  -7.157   1.275  0.00  0.00    +0.000 A 
ATOM     29  C   UNL     1      -0.440  -7.641   1.885  0.00  0.00    +0.000 A 
ATOM     30  C   UNL     1      -1.586  -7.848   1.142  0.00  0.00    +0.004 A 
ATOM     31  C   UNL     1      -1.591  -7.572  -0.213  0.00  0.00    -0.042 A 
ENDBRANCH  24  31
ENDBRANCH   1  24
BRANCH   4  32
ATOM     32  C   UNL     1      -2.452  -3.173  -0.297  0.00  0.00    +0.116 C 
BRANCH  32  33
ATOM     33  C   UNL     1      -0.961  -3.259   0.038  0.00  0.00    +0.001 C 
BRANCH  33  34
ATOM     34  C   UNL     1      -0.352  -1.856   0.018  0.00  0.00    -0.078 C 
BRANCH  34  37
ATOM     35  C   UNL     1       1.747  -0.652   0.101  0.00  0.00    -0.097 C 
ATOM     36  C   UNL     1       1.282  -2.389   1.723  0.00  0.00    -0.097 C 
ATOM     37  N   UNL     1       1.091  -1.958   0.322  0.00  0.00    +0.376 N 
ATOM     38  H   UNL     1       1.514  -2.655  -0.302  0.00  0.00    -0.083 HD
ENDBRANCH  34  37
ENDBRANCH  33  34
ENDBRANCH  32  33
ENDBRANCH   4  32
TORSDOF 8
