REMARK  Name = ZINC10038501
REMARK  9 active torsions:
REMARK  status: ('A' for Active; 'I' for Inactive)
REMARK    1  A    between atoms: C_4  and  C_7
REMARK    2  A    between atoms: C_10  and  O_13
REMARK    3  A    between atoms: O_13  and  C_14
REMARK    4  A    between atoms: C_14  and  C_15
REMARK    5  A    between atoms: N_17  and  N_18
REMARK    6  A    between atoms: C_19  and  C_21
REMARK    7  A    between atoms: C_21  and  C_22
REMARK    8  A    between atoms: C_22  and  C_23
REMARK    9  A    between atoms: N_25  and  C_26
REMARK                            x       y       z     vdW  Elec       q    Type
REMARK                         _______ _______ _______ _____ _____    ______ ____
ROOT
ATOM      1  N   UNL     1      -2.094   9.933   0.074  0.00  0.00    -0.234 N 
ATOM      2  C   UNL     1      -3.174  10.740   0.089  0.00  0.00    +0.230 C 
ATOM      3  O   UNL     1      -4.288  10.261   0.097  0.00  0.00    -0.274 OA
ATOM      4  H   UNL     1      -1.203  10.316   0.067  0.00  0.00    +0.173 HD
ENDROOT
BRANCH   1   7
ATOM      5  C   UNL     1      -1.179   7.736   0.054  0.00  0.00    +0.267 C 
ATOM      6  O   UNL     1      -0.065   8.214   0.046  0.00  0.00    -0.271 OA
ATOM      7  N   UNL     1      -2.259   8.542   0.069  0.00  0.00    -0.232 N 
ATOM      8  H   UNL     1      -3.150   8.159   0.075  0.00  0.00    +0.173 HD
BRANCH   5   9
ATOM      9  C   UNL     1      -1.356   6.239   0.048  0.00  0.00    +0.326 C 
BRANCH   9  10
ATOM     10  O   UNL     1      -0.074   5.608   0.033  0.00  0.00    -0.483 OA
BRANCH  10  14
ATOM     11  C   UNL     1      -0.018   1.479   0.010  0.00  0.00    -0.018 A 
ATOM     12  C   UNL     1      -1.234   2.161   0.020  0.00  0.00    +0.012 A 
ATOM     13  C   UNL     1      -1.249   3.540   0.033  0.00  0.00    +0.046 A 
ATOM     14  C   UNL     1      -0.056   4.249   0.025  0.00  0.00    +0.121 A 
ATOM     15  C   UNL     1       1.157   3.573   0.010  0.00  0.00    +0.046 A 
ATOM     16  C   UNL     1       1.179   2.194   0.003  0.00  0.00    +0.012 A 
BRANCH  11  20
ATOM     17  C   UNL     1       0.040  -2.772  -0.014  0.00  0.00    +0.000 A 
ATOM     18  C   UNL     1      -1.169  -2.100   0.002  0.00  0.00    +0.001 A 
ATOM     19  C   UNL     1      -1.194  -0.720   0.010  0.00  0.00    +0.008 A 
ATOM     20  C   UNL     1       0.002  -0.004   0.002  0.00  0.00    -0.018 A 
ATOM     21  C   UNL     1       1.217  -0.687  -0.019  0.00  0.00    +0.008 A 
ATOM     22  C   UNL     1       1.230  -2.067  -0.022  0.00  0.00    +0.001 A 
ENDBRANCH  11  20
ENDBRANCH  10  14
ENDBRANCH   9  10
ENDBRANCH   5   9
ENDBRANCH   1   7
BRANCH   2  23
ATOM     23  C   UNL     1      -2.997  12.236   0.095  0.00  0.00    +0.106 C 
BRANCH  23  24
ATOM     24  C   UNL     1      -4.369  12.912   0.112  0.00  0.00    +0.105 C 
BRANCH  24  25
ATOM     25  C   UNL     1      -4.192  14.409   0.117  0.00  0.00    +0.214 C 
ATOM     26  O   UNL     1      -3.078  14.887   0.109  0.00  0.00    -0.276 OA
ATOM     27  N   UNL     1      -5.272  15.215   0.132  0.00  0.00    -0.310 N 
ATOM     28  H   UNL     1      -6.163  14.832   0.139  0.00  0.00    +0.149 HD
BRANCH  27  29
ATOM     29  C   UNL     1      -5.099  16.670   0.138  0.00  0.00    +0.035 C 
ATOM     30  C   UNL     1      -4.311  17.085   1.381  0.00  0.00    +0.029 C 
ATOM     31  C   UNL     1      -4.131  18.605   1.387  0.00  0.00    -0.008 C 
ATOM     32  C   UNL     1      -5.504  19.281   1.404  0.00  0.00    +0.007 C 
ATOM     33  C   UNL     1      -6.292  18.865   0.160  0.00  0.00    -0.008 C 
ATOM     34  C   UNL     1      -6.472  17.346   0.154  0.00  0.00    +0.029 C 
ATOM     35  C   UNL     1      -5.528  19.293  -1.094  0.00  0.00    +0.007 C 
ATOM     36  C   UNL     1      -4.156  18.617  -1.111  0.00  0.00    -0.008 C 
ATOM     37  C   UNL     1      -3.367  19.033   0.133  0.00  0.00    +0.007 C 
ATOM     38  C   UNL     1      -4.335  17.098  -1.117  0.00  0.00    +0.029 C 
ENDBRANCH  27  29
ENDBRANCH  24  25
ENDBRANCH  23  24
ENDBRANCH   2  23
TORSDOF 9
