REMARK  Name = ZINC63669069
REMARK  8 active torsions:
REMARK  status: ('A' for Active; 'I' for Inactive)
REMARK    1  A    between atoms: C_5  and  C_7
REMARK    2  A    between atoms: C_7  and  N_8
REMARK    3  A    between atoms: C_13  and  C_24
REMARK    4  A    between atoms: C_24  and  C_25
REMARK    5  A    between atoms: C_25  and  C_26
REMARK    6  A    between atoms: N_28  and  C_29
REMARK    7  A    between atoms: C_29  and  C_30
REMARK    8  A    between atoms: C_30  and  C_31
REMARK                            x       y       z     vdW  Elec       q    Type
REMARK                         _______ _______ _______ _____ _____    ______ ____
ROOT
ATOM      1  N   UNL     1       1.382  -2.734   1.328  0.00  0.00    -0.254 N 
ATOM      2  C   UNL     1       2.720  -2.945   1.877  0.00  0.00    +0.311 C 
ATOM      3  N   UNL     1       3.674  -1.935   1.431  0.00  0.00    -0.147 NA
ATOM      4  N   UNL     1       4.230  -1.380   2.383  0.00  0.00    -0.166 NA
ATOM      5  C   UNL     1       3.740  -1.889   3.671  0.00  0.00    +0.217 C 
ATOM      6  N   UNL     1       2.637  -2.812   3.348  0.00  0.00    -0.267 N 
ATOM      7  C   UNL     1       1.644  -3.405   4.094  0.00  0.00    +0.047 A 
ATOM      8  C   UNL     1       1.792  -3.838   5.394  0.00  0.00    +0.024 A 
ATOM      9  C   UNL     1       0.726  -4.437   6.040  0.00  0.00    +0.002 A 
ATOM     10  C   UNL     1      -0.486  -4.607   5.388  0.00  0.00    +0.001 A 
ATOM     11  C   UNL     1      -0.653  -4.174   4.089  0.00  0.00    +0.015 A 
ATOM     12  C   UNL     1       0.406  -3.561   3.428  0.00  0.00    +0.058 A 
ATOM     13  C   UNL     1       0.284  -3.034   2.058  0.00  0.00    +0.251 C 
ATOM     14  O   UNL     1      -0.820  -2.872   1.574  0.00  0.00    -0.270 OA
ENDROOT
BRANCH   1  15
ATOM     15  C   UNL     1       1.229  -2.186  -0.022  0.00  0.00    +0.148 C 
BRANCH  15  20
ATOM     16  C   UNL     1       2.734  -4.573  -2.529  0.00  0.00    +0.000 A 
ATOM     17  C   UNL     1       1.633  -5.328  -2.889  0.00  0.00    +0.001 A 
ATOM     18  C   UNL     1       0.400  -5.066  -2.321  0.00  0.00    +0.020 A 
ATOM     19  C   UNL     1       0.269  -4.049  -1.392  0.00  0.00    +0.046 A 
ATOM     20  C   UNL     1       1.371  -3.294  -1.033  0.00  0.00    -0.012 A 
ATOM     21  C   UNL     1       2.603  -3.557  -1.602  0.00  0.00    +0.006 A 
ATOM     22 CL   UNL     1      -1.279  -3.719  -0.679  0.00  0.00    -0.083 Cl
ENDBRANCH  15  20
ENDBRANCH   1  15
BRANCH   5  23
ATOM     23  C   UNL     1       4.852  -2.650   4.396  0.00  0.00    +0.058 C 
BRANCH  23  24
ATOM     24  C   UNL     1       5.964  -1.676   4.789  0.00  0.00    +0.099 C 
BRANCH  24  25
ATOM     25  C   UNL     1       7.059  -2.425   5.503  0.00  0.00    +0.213 C 
ATOM     26  O   UNL     1       6.960  -3.621   5.681  0.00  0.00    -0.276 OA
ATOM     27  N   UNL     1       8.149  -1.767   5.944  0.00  0.00    -0.315 N 
ATOM     28  H   UNL     1       8.229  -0.810   5.803  0.00  0.00    +0.149 HD
BRANCH  27  29
ATOM     29  C   UNL     1       9.214  -2.495   6.639  0.00  0.00    +0.108 C 
BRANCH  29  30
ATOM     30  C   UNL     1      10.327  -1.521   7.031  0.00  0.00    +0.052 C 
BRANCH  30  31
ATOM     31  C   UNL     1      11.422  -2.270   7.745  0.00  0.00    -0.040 C 
ATOM     32  C   UNL     1      12.554  -2.770   7.200  0.00  0.00    -0.001 A 
ATOM     33  C   UNL     1      13.084  -2.767   5.831  0.00  0.00    +0.010 A 
ATOM     34  C   UNL     1      14.273  -3.364   5.587  0.00  0.00    +0.001 A 
ATOM     35  C   UNL     1      15.010  -3.983   6.606  0.00  0.00    +0.002 A 
ATOM     36  C   UNL     1      14.589  -4.027   7.888  0.00  0.00    +0.026 A 
ATOM     37  C   UNL     1      13.352  -3.431   8.258  0.00  0.00    +0.043 A 
ATOM     38  N   UNL     1      12.737  -3.342   9.412  0.00  0.00    -0.380 N 
ATOM     39  C   UNL     1      11.480  -2.610   9.218  0.00  0.00    +0.144 C 
ATOM     40  H   UNL     1      13.060  -3.698  10.255  0.00  0.00    +0.160 HD
ENDBRANCH  30  31
ENDBRANCH  29  30
ENDBRANCH  27  29
ENDBRANCH  24  25
ENDBRANCH  23  24
ENDBRANCH   5  23
TORSDOF 8
