REMARK  Name = ZINC09536456
REMARK  7 active torsions:
REMARK  status: ('A' for Active; 'I' for Inactive)
REMARK    1  A    between atoms: C_1  and  C_2
REMARK    2  A    between atoms: C_3  and  C_32
REMARK    3  A    between atoms: C_7  and  N_19
REMARK    4  A    between atoms: C_9  and  C_11
REMARK    5  A    between atoms: C_11  and  S_12
REMARK    6  A    between atoms: S_12  and  C_13
REMARK    7  A    between atoms: C_24  and  N_60
REMARK                            x       y       z     vdW  Elec       q    Type
REMARK                         _______ _______ _______ _____ _____    ______ ____
ROOT
ATOM      1  C   UNL     1      -2.139   6.334   3.530  0.00  0.00    +0.045 C 
ATOM      2  C   UNL     1      -3.066   6.874   4.588  0.00  0.00    -0.028 A 
ATOM      3  C   UNL     1      -3.075   8.183   4.878  0.00  0.00    -0.008 A 
ATOM      4  S   UNL     1      -4.307   8.317   6.160  0.00  0.00    -0.074 S 
ATOM      5  C   UNL     1      -4.776   6.611   6.272  0.00  0.00    +0.114 A 
ATOM      6  C   UNL     1      -3.955   5.981   5.311  0.00  0.00    +0.051 A 
ATOM      7  C   UNL     1      -4.134   4.576   5.183  0.00  0.00    +0.133 A 
ATOM      8  N   UNL     1      -5.021   3.966   5.954  0.00  0.00    -0.216 NA
ATOM      9  C   UNL     1      -5.752   4.620   6.838  0.00  0.00    +0.142 A 
ATOM     10  N   UNL     1      -5.635   5.924   6.998  0.00  0.00    -0.224 NA
ATOM     11  C   UNL     1      -2.243   9.280   4.266  0.00  0.00    +0.052 C 
ENDROOT
BRANCH   7  12
ATOM     12  N   UNL     1      -3.387   3.855   4.269  0.00  0.00    -0.318 N 
ATOM     13  C   UNL     1      -2.647   2.773   4.931  0.00  0.00    +0.088 C 
ATOM     14  C   UNL     1      -1.774   2.051   3.902  0.00  0.00    -0.059 C 
ATOM     15  C   UNL     1      -3.365   2.605   2.164  0.00  0.00    -0.059 C 
ATOM     16  C   UNL     1      -4.238   3.326   3.194  0.00  0.00    +0.088 C 
ATOM     17  N   UNL     1      -2.643   1.506   2.838  0.00  0.00    +0.385 N 
ATOM     18  H   UNL     1      -3.328   0.867   3.261  0.00  0.00    -0.081 HD
BRANCH  17  19
ATOM     19  C   UNL     1      -1.831   0.757   1.856  0.00  0.00    -0.046 C 
ATOM     20  C   UNL     1      -2.770   0.140   0.804  0.00  0.00    +0.009 C 
ATOM     21  C   UNL     1      -1.959  -0.907  -0.012  0.00  0.00    +0.164 C 
ATOM     22  S   UNL     1      -0.979  -1.698   1.333  0.00  0.00    -0.033 S 
ATOM     23  O   UNL     1      -1.687  -2.832   1.815  0.00  0.00    -0.174 OA
ATOM     24  O   UNL     1       0.366  -1.847   0.898  0.00  0.00    -0.174 OA
ATOM     25  C   UNL     1      -1.057  -0.362   2.594  0.00  0.00    +0.151 C 
ENDBRANCH  17  19
ENDBRANCH   7  12
BRANCH   9  26
ATOM     26  C   UNL     1      -6.742   3.859   7.682  0.00  0.00    +0.150 C 
BRANCH  26  27
ATOM     27  S   UNL     1      -5.934   3.300   9.206  0.00  0.00    -0.117 S 
BRANCH  27  28
ATOM     28  C   UNL     1      -7.204   2.440  10.072  0.00  0.00    +0.008 A 
ATOM     29  C   UNL     1      -8.477   2.340   9.523  0.00  0.00    +0.015 A 
ATOM     30  C   UNL     1      -9.469   1.660  10.201  0.00  0.00    +0.001 A 
ATOM     31  C   UNL     1      -9.200   1.089  11.432  0.00  0.00    +0.000 A 
ATOM     32  C   UNL     1      -7.936   1.191  11.984  0.00  0.00    +0.001 A 
ATOM     33  C   UNL     1      -6.938   1.865  11.309  0.00  0.00    +0.015 A 
ENDBRANCH  27  28
ENDBRANCH  26  27
ENDBRANCH   9  26
TORSDOF 5
