REMARK  Name = ZINC40547693
REMARK  3 active torsions:
REMARK  status: ('A' for Active; 'I' for Inactive)
REMARK    1  A    between atoms: C_5  and  C_8
REMARK    2  A    between atoms: C_8  and  C_9
REMARK    3  A    between atoms: C_18  and  C_21
REMARK                            x       y       z     vdW  Elec       q    Type
REMARK                         _______ _______ _______ _____ _____    ______ ____
ROOT
ATOM      1  C   UNL     1       0.134   0.833  -0.764  0.00  0.00    +0.003 C 
ATOM      2  C   UNL     1       1.618   1.079  -1.042  0.00  0.00    +0.019 C 
ATOM      3  C   UNL     1       2.378   1.148   0.286  0.00  0.00    +0.109 C 
ATOM      4  N   UNL     1       2.103  -0.076   1.052  0.00  0.00    -0.282 N 
ATOM      5  C   UNL     1       0.705  -0.455   1.299  0.00  0.00    +0.088 C 
ATOM      6  C   UNL     1      -0.036  -0.505  -0.041  0.00  0.00    +0.023 C 
ATOM      7  C   UNL     1       3.114  -0.836   1.519  0.00  0.00    +0.305 C 
ATOM      8  O   UNL     1       2.889  -1.953   1.941  0.00  0.00    -0.252 OA
ATOM      9  N   UNL     1       4.373  -0.356   1.517  0.00  0.00    -0.285 N 
ATOM     10  C   UNL     1       4.624   1.091   1.475  0.00  0.00    +0.109 C 
ATOM     11  C   UNL     1       5.543   1.466   2.641  0.00  0.00    +0.020 C 
ATOM     12  C   UNL     1       6.809   0.607   2.585  0.00  0.00    +0.016 C 
ATOM     13  C   UNL     1       6.432  -0.870   2.723  0.00  0.00    +0.092 C 
ATOM     14  C   UNL     1       5.522  -1.271   1.564  0.00  0.00    +0.122 C 
ENDROOT
BRANCH  13  15
ATOM     15  C   UNL     1       7.681  -1.712   2.700  0.00  0.00    +0.215 C 
ATOM     16  O   UNL     1       7.830  -2.553   1.840  0.00  0.00    -0.276 OA
ATOM     17  N   UNL     1       8.633  -1.531   3.637  0.00  0.00    -0.329 N 
ATOM     18  H   UNL     1       8.514  -0.858   4.325  0.00  0.00    +0.145 HD
ATOM     19  H   UNL     1       9.437  -2.073   3.622  0.00  0.00    +0.145 HD
ENDBRANCH  13  15
BRANCH   5  20
ATOM     20  C   UNL     1       0.657  -1.830   1.967  0.00  0.00    +0.147 C 
BRANCH  20  21
ATOM     21  C   UNL     1       1.170  -1.720   3.380  0.00  0.00    +0.358 C 
ATOM     22  O   UNL     1       1.539  -0.642   3.813  0.00  0.00    -0.246 OA
ATOM     23  O   UNL     1       1.215  -2.710   4.091  0.00  0.00    -0.246 OA
ENDBRANCH  20  21
ENDBRANCH   5  20
TORSDOF 3
