REMARK  Name = ZINC20356512
REMARK  4 active torsions:
REMARK  status: ('A' for Active; 'I' for Inactive)
REMARK    1  A    between atoms: C_3  and  O_25
REMARK    2  A    between atoms: C_6  and  C_7
REMARK    3  A    between atoms: O_25  and  C_26
REMARK    4  A    between atoms: C_26  and  C_28
REMARK                            x       y       z     vdW  Elec       q    Type
REMARK                         _______ _______ _______ _____ _____    ______ ____
ROOT
ATOM      1  C   UNL     1      -1.234  -0.803   0.082  0.00  0.00    +0.024 C 
ATOM      2  C   UNL     1      -1.271  -2.170   0.239  0.00  0.00    +0.081 C 
ATOM      3  C   UNL     1      -0.037  -2.965   0.502  0.00  0.00    +0.153 C 
ATOM      4  N   UNL     1       0.976  -2.510   1.192  0.00  0.00    -0.283 NA
ATOM      5  N   UNL     1      -0.071  -4.255  -0.064  0.00  0.00    -0.150 N 
ATOM      6  C   UNL     1      -1.306  -4.804  -0.324  0.00  0.00    +0.182 C 
ATOM      7  N   UNL     1      -2.478  -4.232  -0.196  0.00  0.00    -0.152 NA
ATOM      8  C   UNL     1      -2.542  -2.932   0.162  0.00  0.00    +0.273 C 
ATOM      9  O   UNL     1      -3.611  -2.398   0.410  0.00  0.00    -0.268 OA
ATOM     10  S   UNL     1      -0.883  -6.434  -0.879  0.00  0.00    -0.018 S 
ATOM     11  C   UNL     1       0.893  -6.247  -0.828  0.00  0.00    +0.182 C 
ATOM     12  N   UNL     1       1.030  -5.026  -0.374  0.00  0.00    -0.149 NA
ATOM     13  N   UNL     1       1.875  -7.159  -1.178  0.00  0.00    -0.308 N 
ATOM     14  C   UNL     1       3.298  -6.812  -1.057  0.00  0.00    +0.107 C 
ATOM     15  C   UNL     1       3.998  -7.886  -0.219  0.00  0.00    +0.019 C 
ATOM     16  C   UNL     1       3.737  -9.261  -0.838  0.00  0.00    +0.003 C 
ATOM     17  C   UNL     1       2.233  -9.548  -0.833  0.00  0.00    +0.019 C 
ATOM     18  C   UNL     1       1.514  -8.495  -1.673  0.00  0.00    +0.107 C 
ATOM     19  H   UNL     1       1.724  -3.092   1.396  0.00  0.00    +0.188 HD
ENDROOT
BRANCH   1  25
ATOM     20  C   UNL     1       1.152  -0.751  -0.613  0.00  0.00    +0.011 A 
ATOM     21  C   UNL     1       2.355  -0.100  -0.704  0.00  0.00    +0.047 A 
ATOM     22  C   UNL     1       2.487   1.193  -0.207  0.00  0.00    +0.132 A 
ATOM     23  C   UNL     1       1.402   1.832   0.383  0.00  0.00    +0.047 A 
ATOM     24  C   UNL     1       0.195   1.191   0.480  0.00  0.00    +0.011 A 
ATOM     25  C   UNL     1       0.054  -0.112  -0.018  0.00  0.00    -0.024 A 
BRANCH  22  26
ATOM     26  O   UNL     1       3.681   1.833  -0.299  0.00  0.00    -0.422 OA
BRANCH  26  27
ATOM     27  C   UNL     1       4.120   2.179  -1.526  0.00  0.00    +0.344 C 
ATOM     28  O   UNL     1       3.410   2.007  -2.496  0.00  0.00    -0.245 OA
BRANCH  27  29
ATOM     29  C   UNL     1       5.463   2.768  -1.689  0.00  0.00    +0.060 A 
ATOM     30  C   UNL     1       6.284   2.962  -0.575  0.00  0.00    +0.018 A 
ATOM     31  C   UNL     1       7.538   3.512  -0.734  0.00  0.00    +0.039 A 
ATOM     32  C   UNL     1       7.985   3.873  -1.996  0.00  0.00    +0.123 A 
ATOM     33  C   UNL     1       7.174   3.683  -3.105  0.00  0.00    +0.039 A 
ATOM     34  C   UNL     1       5.921   3.128  -2.959  0.00  0.00    +0.018 A 
ATOM     35  F   UNL     1       9.214   4.413  -2.146  0.00  0.00    -0.205 F 
ENDBRANCH  27  29
ENDBRANCH  26  27
ENDBRANCH  22  26
ENDBRANCH   1  25
TORSDOF 4
