REMARK  Name = ZINC38719863
REMARK  4 active torsions:
REMARK  status: ('A' for Active; 'I' for Inactive)
REMARK    1  A    between atoms: C_1  and  C_2
REMARK    2  A    between atoms: C_6  and  C_8
REMARK    3  A    between atoms: C_9  and  C_14
REMARK    4  A    between atoms: N_25  and  C_26
REMARK                            x       y       z     vdW  Elec       q    Type
REMARK                         _______ _______ _______ _____ _____    ______ ____
ROOT
ATOM      1  C   UNL     1      -2.135  -4.170   2.264  0.00  0.00    +0.201 C 
ATOM      2  N   UNL     1      -2.963  -2.962   2.353  0.00  0.00    -0.321 N 
ATOM      3  C   UNL     1      -2.863  -2.164   3.487  0.00  0.00    +0.041 A 
ATOM      4  C   UNL     1      -3.104  -0.801   3.442  0.00  0.00    +0.024 A 
ATOM      5  C   UNL     1      -3.002  -0.050   4.598  0.00  0.00    +0.002 A 
ATOM      6  C   UNL     1      -2.661  -0.650   5.800  0.00  0.00    +0.001 A 
ATOM      7  C   UNL     1      -2.414  -2.006   5.861  0.00  0.00    +0.015 A 
ATOM      8  C   UNL     1      -2.509  -2.774   4.702  0.00  0.00    +0.058 A 
ATOM      9  C   UNL     1      -2.230  -4.221   4.711  0.00  0.00    +0.254 C 
ATOM     10  O   UNL     1      -2.084  -4.811   5.764  0.00  0.00    -0.270 OA
ATOM     11  N   UNL     1      -2.141  -4.881   3.543  0.00  0.00    -0.244 N 
ATOM     12  H   UNL     1      -3.570  -2.725   1.634  0.00  0.00    +0.148 HD
ENDROOT
BRANCH   1  14
ATOM     13  C   UNL     1      -0.231  -3.554   0.648  0.00  0.00    +0.106 A 
ATOM     14  C   UNL     1      -0.722  -3.782   1.915  0.00  0.00    +0.039 A 
ATOM     15  C   UNL     1       0.324  -3.587   2.816  0.00  0.00    +0.142 A 
ATOM     16  N   UNL     1       1.399  -3.258   2.146  0.00  0.00    -0.181 NA
ATOM     17  N   UNL     1       1.089  -3.233   0.781  0.00  0.00    -0.274 N 
ATOM     18  H   UNL     1       1.702  -3.023   0.059  0.00  0.00    +0.189 HD
BRANCH  13  23
ATOM     19  C   UNL     1      -3.876  -4.535  -2.458  0.00  0.00    +0.052 C 
ATOM     20  C   UNL     1      -2.815  -3.550  -1.962  0.00  0.00    +0.174 C 
ATOM     21  C   UNL     1      -1.545  -3.616  -2.844  0.00  0.00    +0.075 C 
ATOM     22  C   UNL     1      -0.442  -3.441  -1.814  0.00  0.00    +0.024 C 
ATOM     23  C   UNL     1      -0.987  -3.646  -0.615  0.00  0.00    +0.142 C 
ATOM     24  O   UNL     1      -2.308  -3.947  -0.674  0.00  0.00    -0.487 OA
ENDBRANCH  13  23
ENDBRANCH   1  14
BRANCH  11  25
ATOM     25  C   UNL     1      -2.049  -6.276   3.554  0.00  0.00    +0.039 A 
ATOM     26  C   UNL     1      -0.817  -6.892   3.735  0.00  0.00    +0.023 A 
ATOM     27  C   UNL     1      -0.730  -8.270   3.746  0.00  0.00    +0.002 A 
ATOM     28  C   UNL     1      -1.868  -9.037   3.577  0.00  0.00    +0.000 A 
ATOM     29  C   UNL     1      -3.096  -8.428   3.396  0.00  0.00    +0.002 A 
ATOM     30  C   UNL     1      -3.191  -7.050   3.390  0.00  0.00    +0.023 A 
ENDBRANCH  11  25
TORSDOF 3
