REMARK  Name = ZINC40316446
REMARK  15 active torsions:
REMARK  status: ('A' for Active; 'I' for Inactive)
REMARK    1  A    between atoms: C_1  and  O_2
REMARK    2  A    between atoms: O_2  and  C_3
REMARK    3  A    between atoms: C_5  and  C_13
REMARK    4  A    between atoms: C_7  and  O_11
REMARK    5  A    between atoms: C_8  and  O_9
REMARK    6  A    between atoms: O_9  and  C_10
REMARK    7  A    between atoms: O_11  and  C_12
REMARK    8  A    between atoms: C_13  and  N_14
REMARK    9  A    between atoms: N_14  and  C_15
REMARK   10  A    between atoms: N_14  and  C_28
REMARK   11  A    between atoms: C_15  and  C_16
REMARK   12  A    between atoms: C_16  and  C_18
REMARK   13  A    between atoms: C_16  and  O_27
REMARK   14  A    between atoms: C_18  and  O_19
REMARK   15  A    between atoms: O_19  and  C_20
REMARK                            x       y       z     vdW  Elec       q    Type
REMARK                         _______ _______ _______ _____ _____    ______ ____
ROOT
ATOM      1  N   UNL     1       1.474   0.645   5.227  0.00  0.00    +0.387 N 
ATOM      2  H   UNL     1       0.547   0.635   5.626  0.00  0.00    -0.081 HD
ENDROOT
BRANCH   1   3
ATOM      3  C   UNL     1       2.109  -0.663   5.434  0.00  0.00    -0.045 C 
ATOM      4  C   UNL     1       1.449  -1.712   4.523  0.00  0.00    +0.009 C 
ATOM      5  C   UNL     1       1.881  -3.134   4.955  0.00  0.00    +0.164 C 
ATOM      6  S   UNL     1       2.216  -2.925   6.752  0.00  0.00    -0.033 S 
ATOM      7  O   UNL     1       3.589  -3.189   7.000  0.00  0.00    -0.174 OA
ATOM      8  O   UNL     1       1.224  -3.625   7.491  0.00  0.00    -0.174 OA
ATOM      9  C   UNL     1       1.915  -1.114   6.910  0.00  0.00    +0.151 C 
ENDBRANCH   1   3
BRANCH   1  10
ATOM     10  C   UNL     1       1.384   0.923   3.787  0.00  0.00    -0.042 C 
BRANCH  10  13
ATOM     11  C   UNL     1      -1.862  -0.902   3.140  0.00  0.00    +0.165 A 
ATOM     12  C   UNL     1      -0.912  -0.069   3.712  0.00  0.00    +0.051 A 
ATOM     13  C   UNL     1       0.355   0.016   3.164  0.00  0.00    -0.057 A 
ATOM     14  C   UNL     1       0.679  -0.729   2.045  0.00  0.00    +0.051 A 
ATOM     15  C   UNL     1      -0.265  -1.564   1.468  0.00  0.00    +0.165 A 
ATOM     16  C   UNL     1      -1.537  -1.657   2.019  0.00  0.00    +0.204 A 
BRANCH  11  18
ATOM     17  C   UNL     1      -3.370  -0.182   4.832  0.00  0.00    +0.277 C 
ATOM     18  O   UNL     1      -3.107  -0.986   3.680  0.00  0.00    -0.491 OA
ENDBRANCH  11  18
BRANCH  16  19
ATOM     19  O   UNL     1      -2.465  -2.480   1.459  0.00  0.00    -0.488 OA
ATOM     20  C   UNL     1      -3.297  -1.922   0.440  0.00  0.00    +0.277 C 
ENDBRANCH  16  19
BRANCH  15  21
ATOM     21  O   UNL     1       0.055  -2.296   0.367  0.00  0.00    -0.491 OA
ATOM     22  C   UNL     1       1.383  -2.155  -0.142  0.00  0.00    +0.277 C 
ENDBRANCH  15  21
ENDBRANCH  10  13
ENDBRANCH   1  10
BRANCH   1  23
ATOM     23  C   UNL     1       2.277   1.688   5.878  0.00  0.00    -0.043 C 
BRANCH  23  24
ATOM     24  C   UNL     1       1.637   2.064   7.215  0.00  0.00    +0.135 C 
BRANCH  24  25
ATOM     25  O   UNL     1       1.728   0.958   8.115  0.00  0.00    -0.390 OA
ATOM     26  H   UNL     1       2.632   0.740   8.380  0.00  0.00    +0.210 HD
ENDBRANCH  24  25
BRANCH  24  27
ATOM     27  C   UNL     1       2.371   3.268   7.811  0.00  0.00    +0.258 C 
BRANCH  27  28
ATOM     28  O   UNL     1       1.702   3.692   9.001  0.00  0.00    -0.487 OA
BRANCH  28  29
ATOM     29  C   UNL     1       2.230   4.758   9.659  0.00  0.00    +0.156 A 
ATOM     30  C   UNL     1       3.364   5.386   9.166  0.00  0.00    +0.048 A 
ATOM     31  C   UNL     1       3.898   6.470   9.836  0.00  0.00    +0.004 A 
ATOM     32  C   UNL     1       3.305   6.929  10.998  0.00  0.00    +0.003 A 
ATOM     33  C   UNL     1       2.175   6.305  11.493  0.00  0.00    +0.042 A 
ATOM     34  C   UNL     1       1.631   5.224  10.822  0.00  0.00    +0.165 A 
ATOM     35  F   UNL     1       0.523   4.618  11.302  0.00  0.00    -0.202 F 
ENDBRANCH  28  29
ENDBRANCH  27  28
ENDBRANCH  24  27
ENDBRANCH  23  24
ENDBRANCH   1  23
TORSDOF 12
