REMARK  Name = ZINC22324667
REMARK  15 active torsions:
REMARK  status: ('A' for Active; 'I' for Inactive)
REMARK    1  A    between atoms: C_1  and  C_2
REMARK    2  A    between atoms: C_2  and  C_3
REMARK    3  A    between atoms: N_9  and  C_10
REMARK    4  A    between atoms: C_10  and  C_11
REMARK    5  A    between atoms: C_11  and  C_12
REMARK    6  A    between atoms: C_12  and  N_13
REMARK    7  A    between atoms: C_14  and  C_16
REMARK    8  A    between atoms: C_16  and  N_17
REMARK    9  A    between atoms: N_17  and  C_18
REMARK   10  A    between atoms: N_17  and  S_27
REMARK   11  A    between atoms: C_20  and  C_26
REMARK   12  A    between atoms: C_23  and  O_24
REMARK   13  A    between atoms: O_24  and  C_25
REMARK   14  A    between atoms: S_27  and  C_30
REMARK   15  A    between atoms: C_33  and  C_36
REMARK                            x       y       z     vdW  Elec       q    Type
REMARK                         _______ _______ _______ _____ _____    ______ ____
ROOT
ATOM      1  N   UNL     1      -1.771   0.922   5.148  0.00  0.00    -0.191 N 
ENDROOT
BRANCH   1   2
ATOM      2  C   UNL     1      -1.007   1.877   4.468  0.00  0.00    +0.094 A 
ATOM      3  C   UNL     1      -0.974   3.189   4.916  0.00  0.00    +0.031 A 
ATOM      4  C   UNL     1      -0.218   4.130   4.243  0.00  0.00    -0.048 A 
ATOM      5  C   UNL     1       0.507   3.767   3.123  0.00  0.00    +0.007 A 
ATOM      6  C   UNL     1       0.483   2.459   2.673  0.00  0.00    +0.048 A 
ATOM      7  C   UNL     1      -0.277   1.512   3.339  0.00  0.00    +0.143 A 
ATOM      8  C   UNL     1      -0.182   5.555   4.731  0.00  0.00    +0.044 C 
BRANCH   7   9
ATOM      9  O   UNL     1      -0.306   0.226   2.895  0.00  0.00    -0.493 OA
ATOM     10  C   UNL     1       0.467  -0.076   1.731  0.00  0.00    +0.277 C 
ENDBRANCH   7   9
ENDBRANCH   1   2
BRANCH   1  11
ATOM     11  S   UNL     1      -1.064  -0.040   6.295  0.00  0.00    +0.075 S 
ATOM     12  O   UNL     1      -1.863  -1.212   6.391  0.00  0.00    -0.150 OA
ATOM     13  O   UNL     1       0.322  -0.086   5.989  0.00  0.00    -0.150 OA
BRANCH  11  14
ATOM     14  C   UNL     1      -1.212   0.796   7.839  0.00  0.00    +0.109 A 
ATOM     15  C   UNL     1      -0.216   1.661   8.255  0.00  0.00    +0.029 A 
ATOM     16  C   UNL     1      -0.334   2.320   9.464  0.00  0.00    +0.005 A 
ATOM     17  C   UNL     1      -1.442   2.107  10.262  0.00  0.00    -0.050 A 
ATOM     18  C   UNL     1      -2.435   1.239   9.849  0.00  0.00    +0.005 A 
ATOM     19  C   UNL     1      -2.320   0.583   8.638  0.00  0.00    +0.029 A 
ATOM     20  C   UNL     1      -1.568   2.822  11.583  0.00  0.00    +0.044 C 
ENDBRANCH  11  14
ENDBRANCH   1  11
BRANCH   1  21
ATOM     21  C   UNL     1      -3.197   0.774   4.845  0.00  0.00    +0.227 C 
BRANCH  21  23
ATOM     22  N   UNL     1      -4.601  -0.428   3.201  0.00  0.00    -0.314 N 
ATOM     23  C   UNL     1      -3.367  -0.144   3.662  0.00  0.00    +0.232 C 
ATOM     24  O   UNL     1      -2.393  -0.627   3.125  0.00  0.00    -0.274 OA
ATOM     25  H   UNL     1      -5.484   0.010   3.688  0.00  0.00    +0.149 HD
BRANCH  22  26
ATOM     26  C   UNL     1      -4.766  -1.321   2.051  0.00  0.00    +0.102 C 
BRANCH  26  27
ATOM     27  C   UNL     1      -6.255  -1.476   1.735  0.00  0.00    +0.000 C 
BRANCH  27  28
ATOM     28  C   UNL     1      -6.427  -2.408   0.534  0.00  0.00    -0.077 C 
BRANCH  28  34
ATOM     29  C   UNL     1      -8.056  -3.364  -0.980  0.00  0.00    -0.069 C 
ATOM     30  C   UNL     1      -9.551  -3.619  -1.183  0.00  0.00    -0.015 C 
ATOM     31  C   UNL     1     -10.280  -2.279  -1.315  0.00  0.00    -0.003 C 
ATOM     32  C   UNL     1     -10.016  -1.438  -0.063  0.00  0.00    -0.019 C 
ATOM     33  C   UNL     1      -8.507  -1.246   0.108  0.00  0.00    -0.078 C 
ATOM     34  N   UNL     1      -7.856  -2.556   0.230  0.00  0.00    +0.382 N 
ATOM     35  H   UNL     1      -8.329  -3.088   1.070  0.00  0.00    -0.081 HD
BRANCH  29  37
ATOM     36  C   UNL     1      -7.424  -5.487  -2.135  0.00  0.00    +0.002 C 
ATOM     37  C   UNL     1      -7.327  -4.700  -0.827  0.00  0.00    -0.019 C 
ENDBRANCH  29  37
ENDBRANCH  28  34
ENDBRANCH  27  28
ENDBRANCH  26  27
ENDBRANCH  22  26
ENDBRANCH  21  23
ENDBRANCH   1  21
TORSDOF 11
