REMARK  Name = ZINC57702784
REMARK  7 active torsions:
REMARK  status: ('A' for Active; 'I' for Inactive)
REMARK    1  A    between atoms: C_1  and  C_2
REMARK    2  A    between atoms: N_4  and  C_5
REMARK    3  A    between atoms: C_5  and  C_7
REMARK    4  A    between atoms: C_5  and  C_23
REMARK    5  A    between atoms: C_7  and  C_8
REMARK    6  A    between atoms: N_10  and  C_11
REMARK    7  A    between atoms: C_11  and  C_12
REMARK                            x       y       z     vdW  Elec       q    Type
REMARK                         _______ _______ _______ _____ _____    ______ ____
ROOT
ATOM      1  C   UNL     1       2.405  -2.149  -0.940  0.00  0.00    +0.215 C 
ATOM      2  O   UNL     1       2.368  -1.723  -2.074  0.00  0.00    -0.276 OA
ATOM      3  N   UNL     1       3.592  -2.354  -0.335  0.00  0.00    -0.312 N 
ATOM      4  H   UNL     1       3.622  -2.695   0.573  0.00  0.00    +0.149 HD
ENDROOT
BRANCH   1   5
ATOM      5  C   UNL     1       1.124  -2.451  -0.206  0.00  0.00    +0.122 C 
BRANCH   5   6
ATOM      6  C   UNL     1      -0.069  -2.134  -1.111  0.00  0.00    +0.112 C 
BRANCH   6   7
ATOM      7  C   UNL     1      -1.344  -2.550  -0.424  0.00  0.00    -0.027 A 
ATOM      8  C   UNL     1      -1.854  -1.786   0.609  0.00  0.00    +0.007 A 
ATOM      9  C   UNL     1      -3.024  -2.167   1.239  0.00  0.00    +0.020 A 
ATOM     10  C   UNL     1      -3.685  -3.313   0.835  0.00  0.00    +0.041 A 
ATOM     11  C   UNL     1      -3.174  -4.077  -0.200  0.00  0.00    +0.020 A 
ATOM     12  C   UNL     1      -2.007  -3.692  -0.833  0.00  0.00    +0.007 A 
ATOM     13 CL   UNL     1      -5.154  -3.793   1.625  0.00  0.00    -0.084 Cl
ENDBRANCH   6   7
BRANCH   6  17
ATOM     14  C   UNL     1      -0.860   1.251  -2.710  0.00  0.00    +0.109 C 
ATOM     15  C   UNL     1      -0.725  -0.233  -2.487  0.00  0.00    +0.210 C 
ATOM     16  O   UNL     1      -1.173  -1.012  -3.301  0.00  0.00    -0.276 OA
ATOM     17  N   UNL     1      -0.107  -0.695  -1.382  0.00  0.00    -0.308 N 
ATOM     18  H   UNL     1       0.313  -0.074  -0.766  0.00  0.00    +0.149 HD
ENDBRANCH   6  17
ENDBRANCH   5   6
ENDBRANCH   1   5
BRANCH   3  19
ATOM     19  C   UNL     1       4.838  -2.060  -1.048  0.00  0.00    +0.152 C 
BRANCH  19  20
ATOM     20  C   UNL     1       6.030  -2.377  -0.144  0.00  0.00    +0.228 C 
ATOM     21  C   UNL     1       7.338  -2.058  -0.880  0.00  0.00    +0.275 C 
ATOM     22  O   UNL     1       8.430  -2.353  -0.003  0.00  0.00    -0.485 OA
ATOM     23  C   UNL     1       8.327  -1.897   1.276  0.00  0.00    +0.162 A 
ATOM     24  C   UNL     1       9.465  -1.821   2.065  0.00  0.00    +0.049 A 
ATOM     25  C   UNL     1       9.376  -1.364   3.366  0.00  0.00    +0.004 A 
ATOM     26  C   UNL     1       8.153  -0.981   3.884  0.00  0.00    +0.004 A 
ATOM     27  C   UNL     1       7.015  -1.053   3.103  0.00  0.00    +0.049 A 
ATOM     28  C   UNL     1       7.098  -1.510   1.796  0.00  0.00    +0.163 A 
ATOM     29  O   UNL     1       5.970  -1.568   1.036  0.00  0.00    -0.480 OA
ENDBRANCH  19  20
ENDBRANCH   3  19
TORSDOF 6
