REMARK  Name = ZINC45353050
REMARK  6 active torsions:
REMARK  status: ('A' for Active; 'I' for Inactive)
REMARK    1  A    between atoms: C_1  and  C_2
REMARK    2  A    between atoms: C_2  and  C_3
REMARK    3  A    between atoms: C_2  and  C_4
REMARK    4  A    between atoms: C_9  and  C_14
REMARK    5  A    between atoms: N_19  and  S_22
REMARK    6  A    between atoms: S_22  and  N_25
REMARK                            x       y       z     vdW  Elec       q    Type
REMARK                         _______ _______ _______ _____ _____    ______ ____
ROOT
ATOM      1  C   UNL     1      -6.215  -3.558  -2.012  0.00  0.00    +0.263 C 
ATOM      2  O   UNL     1      -7.273  -3.725  -1.435  0.00  0.00    -0.268 OA
ATOM      3  N   UNL     1      -6.018  -4.103  -3.229  0.00  0.00    -0.294 N 
ATOM      4  C   UNL     1      -4.704  -4.018  -3.882  0.00  0.00    +0.125 C 
ATOM      5  C   UNL     1      -4.240  -5.436  -4.238  0.00  0.00    +0.129 C 
ATOM      6  N   UNL     1      -5.335  -6.127  -4.934  0.00  0.00    -0.163 NA
ATOM      7  C   UNL     1      -6.648  -6.212  -4.280  0.00  0.00    +0.129 C 
ATOM      8  C   UNL     1      -7.110  -4.799  -3.923  0.00  0.00    +0.125 C 
ENDROOT
BRANCH   1  14
ATOM      9  C   UNL     1      -1.728  -0.009  -0.106  0.00  0.00    -0.043 A 
ATOM     10  C   UNL     1      -2.014  -0.576   1.130  0.00  0.00    +0.004 A 
ATOM     11  C   UNL     1      -3.009  -1.500   1.256  0.00  0.00    +0.010 A 
ATOM     12  C   UNL     1      -3.751  -1.884   0.132  0.00  0.00    +0.000 A 
ATOM     13  C   UNL     1      -4.819  -2.793  -0.065  0.00  0.00    +0.040 A 
ATOM     14  C   UNL     1      -5.152  -2.761  -1.382  0.00  0.00    +0.103 A 
ATOM     15  N   UNL     1      -4.331  -1.861  -2.035  0.00  0.00    -0.351 N 
ATOM     16  H   UNL     1      -4.364  -1.652  -2.982  0.00  0.00    +0.166 HD
ATOM     17  C   UNL     1      -3.463  -1.311  -1.122  0.00  0.00    +0.047 A 
ATOM     18  C   UNL     1      -2.446  -0.365  -1.225  0.00  0.00    +0.030 A 
BRANCH   9  20
ATOM     19  C   UNL     1      -0.937   2.206   0.680  0.00  0.00    +0.012 C 
ATOM     20  C   UNL     1      -0.624   1.011  -0.222  0.00  0.00    +0.013 C 
ATOM     21  C   UNL     1       0.701   0.379   0.210  0.00  0.00    +0.012 C 
ENDBRANCH   9  20
ENDBRANCH   1  14
BRANCH   6  22
ATOM     22  S   UNL     1      -5.092  -6.797  -6.429  0.00  0.00    +0.100 S 
ATOM     23  O   UNL     1      -6.367  -6.869  -7.053  0.00  0.00    -0.141 OA
ATOM     24  O   UNL     1      -3.997  -6.105  -7.012  0.00  0.00    -0.141 OA
BRANCH  22  25
ATOM     25  N   UNL     1      -4.593  -8.358  -6.191  0.00  0.00    -0.166 NA
ATOM     26  C   UNL     1      -3.198  -8.798  -6.041  0.00  0.00    +0.110 C 
ATOM     27  C   UNL     1      -3.217 -10.331  -5.867  0.00  0.00    +0.018 C 
ATOM     28  C   UNL     1      -4.578 -10.735  -6.495  0.00  0.00    +0.018 C 
ATOM     29  C   UNL     1      -5.474  -9.536  -6.087  0.00  0.00    +0.110 C 
ENDBRANCH  22  25
ENDBRANCH   6  22
TORSDOF 4
