REMARK  Name = ZINC36717667
REMARK  12 active torsions:
REMARK  status: ('A' for Active; 'I' for Inactive)
REMARK    1  A    between atoms: C_1  and  C_2
REMARK    2  A    between atoms: C_2  and  N_3
REMARK    3  A    between atoms: N_3  and  C_4
REMARK    4  A    between atoms: C_5  and  N_20
REMARK    5  A    between atoms: N_6  and  C_13
REMARK    6  A    between atoms: C_13  and  C_14
REMARK    7  A    between atoms: C_21  and  C_23
REMARK    8  A    between atoms: C_23  and  N_24
REMARK    9  A    between atoms: N_24  and  C_25
REMARK   10  A    between atoms: N_24  and  C_26
REMARK   11  A    between atoms: C_26  and  C_28
REMARK   12  A    between atoms: C_26  and  C_29
REMARK                            x       y       z     vdW  Elec       q    Type
REMARK                         _______ _______ _______ _____ _____    ______ ____
ROOT
ATOM      1  N   UNL     1       0.689  -0.502   1.129  0.00  0.00    -0.266 N 
ATOM      2  C   UNL     1       1.983  -0.822   0.915  0.00  0.00    +0.203 C 
ATOM      3  O   UNL     1       2.634  -1.339   1.799  0.00  0.00    -0.277 OA
ENDROOT
BRANCH   1   4
ATOM      4  C   UNL     1       0.125  -0.665   2.412  0.00  0.00    +0.140 A 
ATOM      5  C   UNL     1      -0.874  -1.593   2.627  0.00  0.00    +0.128 A 
ATOM      6  N   UNL     1      -1.404  -1.728   3.889  0.00  0.00    -0.276 N 
ATOM      7  C   UNL     1      -0.955  -0.965   4.901  0.00  0.00    +0.331 A 
ATOM      8  O   UNL     1      -1.438  -1.099   6.010  0.00  0.00    -0.246 OA
ATOM      9  N   UNL     1       0.017  -0.056   4.711  0.00  0.00    -0.273 N 
ATOM     10  H   UNL     1       0.324   0.483   5.457  0.00  0.00    +0.173 HD
ATOM     11  C   UNL     1       0.575   0.113   3.495  0.00  0.00    +0.277 A 
ATOM     12  O   UNL     1       1.459   0.936   3.334  0.00  0.00    -0.266 OA
BRANCH   5  13
ATOM     13  N   UNL     1      -1.333  -2.373   1.592  0.00  0.00    -0.343 N 
ATOM     14  H   UNL     1      -1.003  -2.227   0.692  0.00  0.00    +0.144 HD
ATOM     15  H   UNL     1      -1.987  -3.068   1.763  0.00  0.00    +0.144 HD
ENDBRANCH   5  13
BRANCH   6  16
ATOM     16  C   UNL     1      -2.465  -2.709   4.131  0.00  0.00    +0.163 C 
BRANCH  16  17
ATOM     17  C   UNL     1      -1.849  -4.029   4.521  0.00  0.00    -0.028 A 
ATOM     18  C   UNL     1      -1.525  -4.955   3.547  0.00  0.00    +0.005 A 
ATOM     19  C   UNL     1      -0.961  -6.165   3.905  0.00  0.00    +0.000 A 
ATOM     20  C   UNL     1      -0.719  -6.449   5.236  0.00  0.00    +0.000 A 
ATOM     21  C   UNL     1      -1.041  -5.522   6.210  0.00  0.00    +0.000 A 
ATOM     22  C   UNL     1      -1.602  -4.310   5.852  0.00  0.00    +0.005 A 
ENDBRANCH  16  17
ENDBRANCH   6  16
ENDBRANCH   1   4
BRANCH   1  24
ATOM     23  C   UNL     1      -0.119   1.543   0.059  0.00  0.00    +0.025 C 
ATOM     24  C   UNL     1      -0.129   0.013   0.029  0.00  0.00    +0.110 C 
ENDBRANCH   1  24
BRANCH   2  25
ATOM     25  C   UNL     1       2.619  -0.536  -0.420  0.00  0.00    +0.020 C 
BRANCH  25  26
ATOM     26  N   UNL     1       4.021  -0.973  -0.399  0.00  0.00    +0.390 N 
ATOM     27  C   UNL     1       4.076  -2.433  -0.246  0.00  0.00    -0.095 C 
ATOM     28  H   UNL     1       4.498  -0.536   0.376  0.00  0.00    -0.081 HD
BRANCH  26  29
ATOM     29  C   UNL     1       4.674  -0.587  -1.656  0.00  0.00    -0.004 C 
ATOM     30  C   UNL     1       4.617   0.934  -1.815  0.00  0.00    -0.005 C 
BRANCH  29  31
ATOM     31  C   UNL     1       6.113  -1.035  -1.634  0.00  0.00    +0.093 A 
ATOM     32  C   UNL     1       6.771  -1.553  -2.680  0.00  0.00    +0.051 A 
ATOM     33  C   UNL     1       8.130  -1.842  -2.206  0.00  0.00    +0.020 A 
ATOM     34  C   UNL     1       9.274  -2.378  -2.794  0.00  0.00    +0.011 A 
ATOM     35  C   UNL     1      10.415  -2.520  -2.053  0.00  0.00    +0.001 A 
ATOM     36  C   UNL     1      10.439  -2.134  -0.721  0.00  0.00    +0.004 A 
ATOM     37  C   UNL     1       9.317  -1.602  -0.122  0.00  0.00    +0.047 A 
ATOM     38  C   UNL     1       8.148  -1.449  -0.857  0.00  0.00    +0.135 A 
ATOM     39  O   UNL     1       6.923  -0.969  -0.563  0.00  0.00    -0.461 OA
ENDBRANCH  29  31
ENDBRANCH  26  29
ENDBRANCH  25  26
ENDBRANCH   2  25
TORSDOF 9
