REMARK  Name = ZINC21322981
REMARK  9 active torsions:
REMARK  status: ('A' for Active; 'I' for Inactive)
REMARK    1  A    between atoms: C_1  and  C_2
REMARK    2  A    between atoms: C_2  and  C_21
REMARK    3  A    between atoms: N_3  and  N_4
REMARK    4  A    between atoms: C_8  and  S_11
REMARK    5  A    between atoms: N_9  and  N_10
REMARK    6  A    between atoms: S_11  and  C_12
REMARK    7  A    between atoms: C_12  and  C_13
REMARK    8  A    between atoms: C_16  and  O_19
REMARK    9  A    between atoms: O_19  and  C_20
REMARK                            x       y       z     vdW  Elec       q    Type
REMARK                         _______ _______ _______ _____ _____    ______ ____
ROOT
ATOM      1  N   UNL     1       1.701  -1.706  -0.023  0.00  0.00    -0.204 N 
ATOM      2  C   UNL     1       1.254  -0.392  -0.012  0.00  0.00    +0.254 A 
ATOM      3  N   UNL     1       0.002  -0.004   0.002  0.00  0.00    -0.109 NA
ATOM      4  N   UNL     1      -0.017   1.397   0.010  0.00  0.00    -0.119 NA
ATOM      5  C   UNL     1       1.225   1.819   0.000  0.00  0.00    +0.210 A 
ATOM      6  N   UNL     1       2.043   0.725  -0.014  0.00  0.00    -0.211 N 
ATOM      7  H   UNL     1       2.780  -1.919  -0.034  0.00  0.00    +0.178 HD
ENDROOT
BRANCH   1  10
ATOM      8  C   UNL     1       2.674  -4.282  -0.045  0.00  0.00    +0.068 C 
ATOM      9  C   UNL     1       1.196  -3.989  -0.030  0.00  0.00    +0.063 C 
ATOM     10  N   UNL     1       0.778  -2.760  -0.020  0.00  0.00    -0.184 NA
BRANCH   9  11
ATOM     11  C   UNL     1       0.225  -5.098  -0.027  0.00  0.00    -0.002 A 
ATOM     12  C   UNL     1       0.671  -6.422  -0.043  0.00  0.00    +0.011 A 
ATOM     13  C   UNL     1      -0.243  -7.454  -0.034  0.00  0.00    +0.016 A 
ATOM     14  C   UNL     1      -1.600  -7.182  -0.021  0.00  0.00    +0.018 A 
ATOM     15  C   UNL     1      -2.050  -5.872  -0.010  0.00  0.00    +0.016 A 
ATOM     16  C   UNL     1      -1.147  -4.830  -0.013  0.00  0.00    +0.011 A 
ATOM     17 BR   UNL     1      -2.846  -8.604  -0.016  0.00  0.00    -0.050 Br
ENDBRANCH   9  11
ENDBRANCH   1  10
BRANCH   6  18
ATOM     18  N   UNL     1       3.409   0.744  -0.027  0.00  0.00    -0.294 N 
ATOM     19  H   UNL     1       3.945   1.704  -0.027  0.00  0.00    +0.163 HD
ATOM     20  H   UNL     1       3.971  -0.201  -0.038  0.00  0.00    +0.163 HD
ENDBRANCH   6  18
BRANCH   5  21
ATOM     21  S   UNL     1       1.747   3.502   0.003  0.00  0.00    -0.080 S 
BRANCH  21  22
ATOM     22  C   UNL     1       0.196   4.442   0.023  0.00  0.00    +0.112 C 
BRANCH  22  23
ATOM     23  C   UNL     1       0.502   5.918   0.027  0.00  0.00    -0.037 A 
ATOM     24  C   UNL     1       0.649   6.589   1.227  0.00  0.00    +0.008 A 
ATOM     25  C   UNL     1       0.936   7.940   1.234  0.00  0.00    +0.046 A 
ATOM     26  C   UNL     1       1.066   8.626   0.035  0.00  0.00    +0.120 A 
ATOM     27  C   UNL     1       0.913   7.952  -1.168  0.00  0.00    +0.046 A 
ATOM     28  C   UNL     1       0.631   6.599  -1.169  0.00  0.00    +0.008 A 
BRANCH  26  29
ATOM     29  O   UNL     1       1.343   9.957   0.039  0.00  0.00    -0.495 OA
ATOM     30  C   UNL     1       1.488  10.585   1.314  0.00  0.00    +0.277 C 
ENDBRANCH  26  29
ENDBRANCH  22  23
ENDBRANCH  21  22
ENDBRANCH   5  21
TORSDOF 7
