REMARK  Name = ZINC14275219
REMARK  6 active torsions:
REMARK  status: ('A' for Active; 'I' for Inactive)
REMARK    1  A    between atoms: C_3  and  C_9
REMARK    2  A    between atoms: C_12  and  C_14
REMARK    3  A    between atoms: N_16  and  C_17
REMARK    4  A    between atoms: C_17  and  N_19
REMARK    5  A    between atoms: N_19  and  C_20
REMARK    6  A    between atoms: C_23  and  O_27
REMARK                            x       y       z     vdW  Elec       q    Type
REMARK                         _______ _______ _______ _____ _____    ______ ____
ROOT
ATOM      1  C   UNL     1      -3.508   1.297  -0.608  0.00  0.00    +0.285 C 
ATOM      2  O   UNL     1      -3.557   2.429  -1.054  0.00  0.00    -0.266 OA
ATOM      3  N   UNL     1      -2.324   0.769  -0.238  0.00  0.00    -0.261 N 
ATOM      4  H   UNL     1      -2.285  -0.133   0.117  0.00  0.00    +0.157 HD
ENDROOT
BRANCH   1   8
ATOM      5  C   UNL     1      -6.102  -1.149  -0.020  0.00  0.00    +0.137 A 
ATOM      6  C   UNL     1      -6.867  -0.134  -0.520  0.00  0.00    +0.051 A 
ATOM      7  C   UNL     1      -6.005   0.928  -0.807  0.00  0.00    +0.055 A 
ATOM      8  C   UNL     1      -4.734   0.510  -0.474  0.00  0.00    +0.190 A 
ATOM      9  O   UNL     1      -4.819  -0.750   0.004  0.00  0.00    -0.450 OA
BRANCH   5  12
ATOM     10  C   UNL     1      -8.143  -3.780   1.714  0.00  0.00    +0.021 A 
ATOM     11  C   UNL     1      -7.677  -2.546   1.309  0.00  0.00    +0.014 A 
ATOM     12  C   UNL     1      -6.601  -2.466   0.423  0.00  0.00    +0.036 A 
ATOM     13  C   UNL     1      -5.996  -3.638  -0.040  0.00  0.00    +0.053 A 
ATOM     14  C   UNL     1      -6.468  -4.866   0.378  0.00  0.00    +0.040 A 
ATOM     15  C   UNL     1      -7.539  -4.938   1.253  0.00  0.00    +0.042 A 
ATOM     16 CL   UNL     1      -8.127  -6.486   1.774  0.00  0.00    -0.083 Cl
ATOM     17 CL   UNL     1      -4.653  -3.550  -1.137  0.00  0.00    -0.083 Cl
ENDBRANCH   5  12
ENDBRANCH   1   8
BRANCH   3  18
ATOM     18  C   UNL     1      -1.195   1.494  -0.362  0.00  0.00    +0.141 C 
ATOM     19  S   UNL     1      -1.263   3.086  -0.989  0.00  0.00    -0.018 S 
BRANCH  18  20
ATOM     20  N   UNL     1      -0.011   0.966   0.007  0.00  0.00    -0.296 N 
ATOM     21  H   UNL     1       0.037   0.044   0.304  0.00  0.00    +0.154 HD
BRANCH  20  22
ATOM     22  C   UNL     1       1.151   1.747  -0.043  0.00  0.00    +0.036 A 
ATOM     23  C   UNL     1       1.413   2.531  -1.159  0.00  0.00    +0.047 A 
ATOM     24  C   UNL     1       2.556   3.305  -1.206  0.00  0.00    +0.085 A 
ATOM     25  C   UNL     1       3.448   3.291  -0.143  0.00  0.00    +0.153 A 
ATOM     26  C   UNL     1       3.190   2.503   0.970  0.00  0.00    +0.085 A 
ATOM     27  C   UNL     1       2.043   1.733   1.020  0.00  0.00    +0.047 A 
ATOM     28 CL   UNL     1       4.306   2.487   2.300  0.00  0.00    -0.080 Cl
ATOM     29 CL   UNL     1       2.880   4.292  -2.597  0.00  0.00    -0.080 Cl
BRANCH  25  30
ATOM     30  O   UNL     1       4.576   4.050  -0.192  0.00  0.00    -0.504 OA
ATOM     31  H   UNL     1       5.338   3.598  -0.580  0.00  0.00    +0.292 HD
ENDBRANCH  25  30
ENDBRANCH  20  22
ENDBRANCH  18  20
ENDBRANCH   3  18
TORSDOF 6
