REMARK  Name = ZINC20342997
REMARK  5 active torsions:
REMARK  status: ('A' for Active; 'I' for Inactive)
REMARK    1  A    between atoms: C_1  and  C_2
REMARK    2  A    between atoms: C_3  and  C_12
REMARK    3  A    between atoms: N_14  and  N_15
REMARK    4  A    between atoms: C_16  and  C_17
REMARK    5  A    between atoms: C_26  and  O_27
REMARK                            x       y       z     vdW  Elec       q    Type
REMARK                         _______ _______ _______ _____ _____    ______ ____
ROOT
ATOM      1  C   UNL     1      -0.004  -0.381  -2.476  0.00  0.00    +0.282 C 
ATOM      2  O   UNL     1      -0.117   0.803  -2.738  0.00  0.00    -0.267 OA
ATOM      3  N   UNL     1       0.105  -1.284  -3.471  0.00  0.00    -0.202 N 
ATOM      4  H   UNL     1       0.118  -2.232  -3.266  0.00  0.00    +0.178 HD
ENDROOT
BRANCH   1   7
ATOM      5  C   UNL     1      -2.529  -0.800  -0.692  0.00  0.00    +0.068 C 
ATOM      6  C   UNL     1      -1.087  -1.007  -0.304  0.00  0.00    +0.069 A 
ATOM      7  C   UNL     1       0.012  -0.810  -1.125  0.00  0.00    +0.133 A 
ATOM      8  N   UNL     1       1.127  -1.115  -0.366  0.00  0.00    -0.294 N 
ATOM      9  C   UNL     1       2.457  -1.104  -0.646  0.00  0.00    +0.108 A 
ATOM     10  C   UNL     1       3.363  -1.456   0.296  0.00  0.00    +0.035 A 
ATOM     11  C   UNL     1       2.935  -1.837   1.576  0.00  0.00    +0.020 A 
ATOM     12  C   UNL     1       1.603  -1.850   1.864  0.00  0.00    +0.048 A 
ATOM     13  C   UNL     1       0.678  -1.482   0.871  0.00  0.00    +0.138 A 
ATOM     14  N   UNL     1      -0.652  -1.402   0.882  0.00  0.00    -0.232 NA
ATOM     15 BR   UNL     1       5.209  -1.434  -0.115  0.00  0.00    -0.049 Br
ENDBRANCH   1   7
BRANCH   3  16
ATOM     16  N   UNL     1       0.198  -0.853  -4.801  0.00  0.00    -0.187 NA
ATOM     17  C   UNL     1       0.303  -1.723  -5.760  0.00  0.00    +0.142 C 
BRANCH  17  18
ATOM     18  C   UNL     1       0.401  -1.271  -7.155  0.00  0.00    +0.044 A 
ATOM     19  C   UNL     1       0.514  -2.236  -8.247  0.00  0.00    -0.006 A 
ATOM     20  C   UNL     1       0.532  -3.615  -8.004  0.00  0.00    +0.009 A 
ATOM     21  C   UNL     1       0.638  -4.482  -9.051  0.00  0.00    +0.001 A 
ATOM     22  C   UNL     1       0.729  -4.016 -10.360  0.00  0.00    +0.001 A 
ATOM     23  C   UNL     1       0.715  -2.681 -10.631  0.00  0.00    +0.008 A 
ATOM     24  C   UNL     1       0.606  -1.758  -9.577  0.00  0.00    -0.017 A 
ATOM     25  C   UNL     1       0.586  -0.373  -9.819  0.00  0.00    +0.012 A 
ATOM     26  C   UNL     1       0.480   0.510  -8.792  0.00  0.00    +0.046 A 
ATOM     27  C   UNL     1       0.382   0.088  -7.467  0.00  0.00    +0.126 A 
BRANCH  27  28
ATOM     28  O   UNL     1       0.273   1.007  -6.472  0.00  0.00    -0.506 OA
ATOM     29  H   UNL     1       1.121   1.301  -6.114  0.00  0.00    +0.292 HD
ENDBRANCH  27  28
ENDBRANCH  17  18
ENDBRANCH   3  16
TORSDOF 4
