REMARK  Name = ZINC16161023
REMARK  4 active torsions:
REMARK  status: ('A' for Active; 'I' for Inactive)
REMARK    1  A    between atoms: C_1  and  C_2
REMARK    2  A    between atoms: N_4  and  C_17
REMARK    3  A    between atoms: N_8  and  C_9
REMARK    4  A    between atoms: C_12  and  C_15
REMARK                            x       y       z     vdW  Elec       q    Type
REMARK                         _______ _______ _______ _____ _____    ______ ____
ROOT
ATOM      1  C   UNL     1       2.001  -1.752  -0.027  0.00  0.00    +0.070 C 
ATOM      2  C   UNL     1       1.430  -0.357  -0.013  0.00  0.00    +0.087 C 
ATOM      3  N   UNL     1       2.108   0.748  -0.014  0.00  0.00    -0.175 NA
ATOM      4  N   UNL     1       1.275   1.866  -0.000  0.00  0.00    -0.155 N 
ATOM      5  C   UNL     1      -0.018   1.482   0.010  0.00  0.00    +0.291 C 
ATOM      6  O   UNL     1      -0.997   2.203   0.019  0.00  0.00    -0.266 OA
ATOM      7  C   UNL     1       0.002  -0.004   0.002  0.00  0.00    +0.151 C 
ATOM      8  N   UNL     1      -1.028  -0.822   0.007  0.00  0.00    -0.241 NA
ENDROOT
BRANCH   8   9
ATOM      9  C   UNL     1      -2.284  -0.326   0.023  0.00  0.00    +0.065 A 
ATOM     10  C   UNL     1      -2.615   0.723   0.895  0.00  0.00    +0.029 A 
ATOM     11  C   UNL     1      -3.884   1.226   0.905  0.00  0.00    +0.021 A 
ATOM     12  C   UNL     1      -4.856   0.690   0.054  0.00  0.00    +0.052 A 
ATOM     13  C   UNL     1      -4.530  -0.358  -0.813  0.00  0.00    +0.021 A 
ATOM     14  C   UNL     1      -3.262  -0.862  -0.830  0.00  0.00    +0.029 A 
BRANCH  12  15
ATOM     15  C   UNL     1      -6.188   1.217   0.070  0.00  0.00    +0.099 C 
ATOM     16  N   UNL     1      -7.244   1.634   0.082  0.00  0.00    -0.191 NA
ENDBRANCH  12  15
ENDBRANCH   8   9
BRANCH   4  17
ATOM     17  C   UNL     1       1.717   3.195   0.003  0.00  0.00    +0.060 A 
ATOM     18  C   UNL     1       0.796   4.234   0.011  0.00  0.00    +0.025 A 
ATOM     19  C   UNL     1       1.235   5.544   0.020  0.00  0.00    +0.002 A 
ATOM     20  C   UNL     1       2.590   5.820   0.009  0.00  0.00    +0.000 A 
ATOM     21  C   UNL     1       3.510   4.788  -0.006  0.00  0.00    +0.002 A 
ATOM     22  C   UNL     1       3.077   3.476  -0.009  0.00  0.00    +0.025 A 
ENDBRANCH   4  17
TORSDOF 3
