REMARK  Name = ZINC35271194
REMARK  12 active torsions:
REMARK  status: ('A' for Active; 'I' for Inactive)
REMARK    1  A    between atoms: C_1  and  C_2
REMARK    2  A    between atoms: C_5  and  C_33
REMARK    3  A    between atoms: C_10  and  C_12
REMARK    4  A    between atoms: C_12  and  C_14
REMARK    5  A    between atoms: C_12  and  N_15
REMARK    6  A    between atoms: C_18  and  C_21
REMARK    7  A    between atoms: C_22  and  O_31
REMARK    8  A    between atoms: C_24  and  O_29
REMARK    9  A    between atoms: C_26  and  O_27
REMARK   10  A    between atoms: O_27  and  C_28
REMARK   11  A    between atoms: O_29  and  C_30
REMARK   12  A    between atoms: O_31  and  C_32
REMARK                            x       y       z     vdW  Elec       q    Type
REMARK                         _______ _______ _______ _____ _____    ______ ____
ROOT
ATOM      1  N   UNL     1       4.115  -3.168   1.392  0.00  0.00    +0.390 N 
ATOM      2  C   UNL     1       5.463  -2.577   1.365  0.00  0.00    -0.073 C 
ATOM      3  C   UNL     1       6.484  -3.678   1.664  0.00  0.00    +0.017 C 
ATOM      4  C   UNL     1       6.217  -4.866   0.783  0.00  0.00    -0.041 C 
ATOM      5  C   UNL     1       5.079  -5.025   0.140  0.00  0.00    -0.041 C 
ATOM      6  C   UNL     1       3.951  -4.037   0.221  0.00  0.00    -0.050 C 
ATOM      7  H   UNL     1       4.000  -3.711   2.235  0.00  0.00    -0.080 HD
ENDROOT
BRANCH   4   8
ATOM      8  C   UNL     1       7.268  -5.892   0.633  0.00  0.00    +0.061 A 
ATOM      9  C   UNL     1       7.313  -6.985   1.506  0.00  0.00    +0.134 A 
ATOM     10  C   UNL     1       8.301  -7.944   1.360  0.00  0.00    +0.092 A 
ATOM     11  C   UNL     1       9.245  -7.823   0.350  0.00  0.00    +0.127 A 
ATOM     12  C   UNL     1       9.206  -6.742  -0.519  0.00  0.00    +0.092 A 
ATOM     13  C   UNL     1       8.220  -5.779  -0.387  0.00  0.00    +0.134 A 
BRANCH  13  14
ATOM     14  O   UNL     1       8.180  -4.724  -1.242  0.00  0.00    -0.494 OA
ATOM     15  C   UNL     1       9.183  -4.674  -2.258  0.00  0.00    +0.277 C 
ENDBRANCH  13  14
BRANCH  11  16
ATOM     16  O   UNL     1      10.212  -8.767   0.212  0.00  0.00    -0.495 OA
ATOM     17  C   UNL     1      11.153  -8.582  -0.848  0.00  0.00    +0.277 C 
ENDBRANCH  11  16
BRANCH   9  18
ATOM     18  O   UNL     1       6.390  -7.105   2.496  0.00  0.00    -0.494 OA
ATOM     19  C   UNL     1       6.498  -8.246   3.349  0.00  0.00    +0.277 C 
ENDBRANCH   9  18
ENDBRANCH   4   8
BRANCH   1  20
ATOM     20  C   UNL     1       3.109  -2.098   1.356  0.00  0.00    +0.017 C 
ATOM     21  C   UNL     1       3.282  -1.194   2.578  0.00  0.00    -0.004 C 
BRANCH  20  29
ATOM     22  C   UNL     1       0.377   0.908  -1.515  0.00  0.00    +0.009 C 
ATOM     23  C   UNL     1       0.332  -0.548  -1.048  0.00  0.00    +0.004 C 
ATOM     24  C   UNL     1      -1.112  -1.054  -1.093  0.00  0.00    +0.009 C 
ATOM     25  C   UNL     1      -1.154  -2.521  -0.656  0.00  0.00    +0.004 C 
ATOM     26  C   UNL     1      -0.646  -2.635   0.784  0.00  0.00    +0.111 C 
ATOM     27  N   UNL     1       0.685  -2.019   0.867  0.00  0.00    -0.302 N 
ATOM     28  C   UNL     1       0.857  -0.641   0.388  0.00  0.00    +0.111 C 
ATOM     29  C   UNL     1       1.730  -2.705   1.372  0.00  0.00    +0.202 C 
ATOM     30  O   UNL     1       1.559  -3.812   1.839  0.00  0.00    -0.277 OA
ATOM     31  C   UNL     1      -0.264  -3.354  -1.580  0.00  0.00    +0.009 C 
ENDBRANCH  20  29
ENDBRANCH   1  20
TORSDOF 6
