REMARK  Name = ZINC21601578
REMARK  15 active torsions:
REMARK  status: ('A' for Active; 'I' for Inactive)
REMARK    1  A    between atoms: C_1  and  C_2
REMARK    2  A    between atoms: C_2  and  O_3
REMARK    3  A    between atoms: O_3  and  C_4
REMARK    4  A    between atoms: C_7  and  S_10
REMARK    5  A    between atoms: S_10  and  N_13
REMARK    6  A    between atoms: N_13  and  C_14
REMARK    7  A    between atoms: C_17  and  C_20
REMARK    8  A    between atoms: C_20  and  O_22
REMARK    9  A    between atoms: O_22  and  C_23
REMARK   10  A    between atoms: C_23  and  C_25
REMARK   11  A    between atoms: C_23  and  C_26
REMARK   12  A    between atoms: N_31  and  C_32
REMARK   13  A    between atoms: C_32  and  C_33
REMARK   14  A    between atoms: C_32  and  C_34
REMARK   15  A    between atoms: C_32  and  C_35
REMARK                            x       y       z     vdW  Elec       q    Type
REMARK                         _______ _______ _______ _____ _____    ______ ____
ROOT
ATOM      1  C   UNL     1       1.126   2.394  -0.174  0.00  0.00    +0.048 A 
ATOM      2  C   UNL     1       2.306   1.999   0.451  0.00  0.00    +0.025 A 
ATOM      3  C   UNL     1       3.455   2.727   0.272  0.00  0.00    +0.017 A 
ATOM      4  C   UNL     1       3.437   3.873  -0.529  0.00  0.00    +0.059 A 
ATOM      5  C   UNL     1       2.249   4.270  -1.151  0.00  0.00    +0.017 A 
ATOM      6  C   UNL     1       1.105   3.534  -0.973  0.00  0.00    +0.025 A 
ENDROOT
BRANCH   1   7
ATOM      7  N   UNL     1      -0.035   1.651   0.005  0.00  0.00    -0.216 N 
ATOM      8  H   UNL     1      -0.986   2.160   0.223  0.00  0.00    +0.174 HD
BRANCH   7   9
ATOM      9  S   UNL     1       0.012  -0.000  -0.110  0.00  0.00    +0.072 S 
ATOM     10  O   UNL     1       1.067  -0.436   0.736  0.00  0.00    -0.150 OA
ATOM     11  O   UNL     1      -1.325  -0.456   0.042  0.00  0.00    -0.150 OA
BRANCH   9  15
ATOM     12  C   UNL     1       1.250  -1.012  -4.347  0.00  0.00    +0.121 A 
ATOM     13  C   UNL     1       2.201  -0.961  -3.339  0.00  0.00    +0.047 A 
ATOM     14  C   UNL     1       1.821  -0.652  -2.047  0.00  0.00    +0.032 A 
ATOM     15  C   UNL     1       0.494  -0.394  -1.759  0.00  0.00    +0.109 A 
ATOM     16  C   UNL     1      -0.457  -0.450  -2.761  0.00  0.00    +0.032 A 
ATOM     17  C   UNL     1      -0.081  -0.752  -4.055  0.00  0.00    +0.047 A 
BRANCH  12  18
ATOM     18  O   UNL     1       1.621  -1.315  -5.619  0.00  0.00    -0.492 OA
BRANCH  18  20
ATOM     19  C   UNL     1       1.194  -1.705  -7.965  0.00  0.00    +0.048 C 
ATOM     20  C   UNL     1       0.589  -1.349  -6.606  0.00  0.00    +0.225 C 
ENDBRANCH  18  20
ENDBRANCH  12  18
ENDBRANCH   9  15
ENDBRANCH   7   9
ENDBRANCH   1   7
BRANCH   4  21
ATOM     21  C   UNL     1       4.668   4.661  -0.718  0.00  0.00    +0.340 C 
ATOM     22  O   UNL     1       4.651   5.657  -1.415  0.00  0.00    -0.245 OA
BRANCH  21  23
ATOM     23  O   UNL     1       5.812   4.277  -0.119  0.00  0.00    -0.449 OA
BRANCH  23  24
ATOM     24  C   UNL     1       6.986   5.101  -0.349  0.00  0.00    +0.259 C 
ATOM     25  C   UNL     1       7.062   6.191   0.722  0.00  0.00    +0.062 C 
BRANCH  24  26
ATOM     26  C   UNL     1       8.223   4.243  -0.282  0.00  0.00    +0.261 C 
ATOM     27  O   UNL     1       8.125   3.055  -0.062  0.00  0.00    -0.271 OA
ATOM     28  N   UNL     1       9.438   4.797  -0.468  0.00  0.00    -0.237 N 
ATOM     29  C   UNL     1      10.544   4.030  -0.408  0.00  0.00    +0.306 C 
ATOM     30  O   UNL     1      10.446   2.839  -0.187  0.00  0.00    -0.252 OA
ATOM     31  N   UNL     1      11.759   4.583  -0.593  0.00  0.00    -0.294 N 
ATOM     32  H   UNL     1       9.526   5.875  -0.667  0.00  0.00    +0.159 HD
ATOM     33  H   UNL     1      11.847   5.662  -0.793  0.00  0.00    +0.151 HD
BRANCH  31  34
ATOM     34  C   UNL     1      12.961   3.749  -0.528  0.00  0.00    +0.028 C 
ATOM     35  C   UNL     1      12.885   2.660  -1.599  0.00  0.00    +0.031 C 
ATOM     36  C   UNL     1      14.198   4.617  -0.771  0.00  0.00    +0.031 C 
ATOM     37  C   UNL     1      13.058   3.100   0.854  0.00  0.00    +0.031 C 
ENDBRANCH  31  34
ENDBRANCH  24  26
ENDBRANCH  23  24
ENDBRANCH  21  23
ENDBRANCH   4  21
TORSDOF 10
