REMARK  Name = ZINC13438317
REMARK  13 active torsions:
REMARK  status: ('A' for Active; 'I' for Inactive)
REMARK    1  A    between atoms: C_1  and  N_2
REMARK    2  A    between atoms: N_2  and  C_3
REMARK    3  A    between atoms: N_2  and  C_4
REMARK    4  A    between atoms: C_7  and  C_10
REMARK    5  A    between atoms: C_17  and  O_18
REMARK    6  A    between atoms: O_18  and  C_19
REMARK    7  A    between atoms: N_22  and  C_23
REMARK    8  A    between atoms: C_23  and  C_24
REMARK    9  A    between atoms: C_24  and  N_72
REMARK   10  A    between atoms: C_29  and  O_36
REMARK   11  A    between atoms: C_30  and  O_34
REMARK   12  A    between atoms: O_34  and  C_35
REMARK   13  A    between atoms: O_36  and  C_37
REMARK                            x       y       z     vdW  Elec       q    Type
REMARK                         _______ _______ _______ _____ _____    ______ ____
ROOT
ATOM      1  C   UNL     1      -6.906   5.949   0.418  0.00  0.00    +0.144 A 
ATOM      2  N   UNL     1      -7.978   6.660   0.173  0.00  0.00    -0.225 NA
ATOM      3  C   UNL     1      -8.325   7.707   0.948  0.00  0.00    +0.120 A 
ATOM      4  C   UNL     1      -7.513   8.046   2.054  0.00  0.00    +0.068 A 
ATOM      5  C   UNL     1      -7.855   9.126   2.866  0.00  0.00    +0.015 A 
ATOM      6  C   UNL     1      -8.988   9.858   2.586  0.00  0.00    +0.004 A 
ATOM      7  C   UNL     1      -9.792   9.531   1.502  0.00  0.00    +0.048 A 
ATOM      8  C   UNL     1      -9.473   8.466   0.682  0.00  0.00    +0.146 A 
ATOM      9  C   UNL     1      -6.317   7.231   2.313  0.00  0.00    +0.262 A 
ATOM     10  O   UNL     1      -5.580   7.471   3.252  0.00  0.00    -0.267 OA
ATOM     11  N   UNL     1      -6.063   6.206   1.466  0.00  0.00    -0.294 N 
ENDROOT
BRANCH   1  15
ATOM     12  C   UNL     1      -6.005   2.692  -2.155  0.00  0.00    +0.029 A 
ATOM     13  C   UNL     1      -6.118   2.483  -0.784  0.00  0.00    +0.024 A 
ATOM     14  C   UNL     1      -6.410   3.537   0.053  0.00  0.00    +0.013 A 
ATOM     15  C   UNL     1      -6.593   4.817  -0.476  0.00  0.00    +0.018 A 
ATOM     16  C   UNL     1      -6.485   5.023  -1.854  0.00  0.00    +0.013 A 
ATOM     17  C   UNL     1      -6.188   3.966  -2.685  0.00  0.00    +0.024 A 
BRANCH  12  19
ATOM     18  C   UNL     1      -5.632   0.265  -2.460  0.00  0.00    +0.129 C 
ATOM     19  N   UNL     1      -5.710   1.625  -2.999  0.00  0.00    -0.336 N 
ATOM     20  C   UNL     1      -5.476   1.862  -4.426  0.00  0.00    +0.129 C 
ENDBRANCH  12  19
ENDBRANCH   1  15
BRANCH   8  21
ATOM     21  O   UNL     1     -10.268   8.157  -0.376  0.00  0.00    -0.493 OA
ATOM     22  C   UNL     1     -11.420   8.976  -0.583  0.00  0.00    +0.277 C 
ENDBRANCH   8  21
BRANCH  11  23
ATOM     23  C   UNL     1      -4.883   5.364   1.675  0.00  0.00    +0.108 C 
BRANCH  23  24
ATOM     24  C   UNL     1      -3.736   5.867   0.796  0.00  0.00    -0.056 C 
BRANCH  24  34
ATOM     25  C   UNL     1      -1.370   5.598   0.345  0.00  0.00    -0.074 C 
ATOM     26  C   UNL     1      -0.122   4.901   0.888  0.00  0.00    +0.017 C 
ATOM     27  C   UNL     1      -0.296   3.405   0.817  0.00  0.00    -0.044 A 
ATOM     28  C   UNL     1       0.831   2.604   0.926  0.00  0.00    +0.053 A 
ATOM     29  C   UNL     1       0.718   1.226   0.876  0.00  0.00    +0.162 A 
ATOM     30  C   UNL     1      -0.535   0.643   0.715  0.00  0.00    +0.162 A 
ATOM     31  C   UNL     1      -1.655   1.446   0.600  0.00  0.00    +0.051 A 
ATOM     32  C   UNL     1      -1.538   2.828   0.654  0.00  0.00    -0.057 A 
ATOM     33  C   UNL     1      -2.788   3.658   0.523  0.00  0.00    -0.043 C 
ATOM     34  N   UNL     1      -2.544   5.019   1.028  0.00  0.00    +0.384 N 
ATOM     35  H   UNL     1      -2.357   4.975   2.037  0.00  0.00    -0.081 HD
BRANCH  30  36
ATOM     36  O   UNL     1      -0.658  -0.711   0.666  0.00  0.00    -0.491 OA
ATOM     37  C   UNL     1      -1.976  -1.237   0.499  0.00  0.00    +0.277 C 
ENDBRANCH  30  36
BRANCH  29  38
ATOM     38  O   UNL     1       1.826   0.445   0.984  0.00  0.00    -0.491 OA
ATOM     39  C   UNL     1       3.078   1.115   1.147  0.00  0.00    +0.277 C 
ENDBRANCH  29  38
ENDBRANCH  24  34
ENDBRANCH  23  24
ENDBRANCH  11  23
TORSDOF 8
