REMARK  Name = ZINC40355875
REMARK  6 active torsions:
REMARK  status: ('A' for Active; 'I' for Inactive)
REMARK    1  A    between atoms: C_1  and  C_2
REMARK    2  A    between atoms: C_2  and  O_3
REMARK    3  A    between atoms: O_3  and  C_4
REMARK    4  A    between atoms: C_4  and  C_6
REMARK    5  A    between atoms: C_13  and  C_15
REMARK    6  A    between atoms: C_21  and  C_23
REMARK                            x       y       z     vdW  Elec       q    Type
REMARK                         _______ _______ _______ _____ _____    ______ ____
ROOT
ATOM      1  C   UNL     1       4.976  -2.515   5.678  0.00  0.00    +0.135 A 
ATOM      2  C   UNL     1       5.567  -1.788   6.673  0.00  0.00    +0.081 A 
ATOM      3  S   UNL     1       6.111  -2.983   7.726  0.00  0.00    -0.060 S 
ATOM      4  C   UNL     1       5.539  -4.407   6.816  0.00  0.00    +0.165 A 
ATOM      5  N   UNL     1       4.966  -3.848   5.770  0.00  0.00    -0.220 NA
ATOM      6  N   UNL     1       5.661  -5.754   7.132  0.00  0.00    -0.261 N 
ATOM      7  C   UNL     1       6.285  -6.126   8.267  0.00  0.00    +0.250 C 
ATOM      8  O   UNL     1       6.741  -5.283   9.014  0.00  0.00    -0.270 OA
ATOM      9  H   UNL     1       5.297  -6.426   6.535  0.00  0.00    +0.157 HD
ENDROOT
BRANCH   1  16
ATOM     10  C   UNL     1       1.267  -1.878   2.818  0.00  0.00    +0.115 C 
ATOM     11  C   UNL     1       0.840  -3.334   3.017  0.00  0.00    +0.018 C 
ATOM     12  C   UNL     1       1.492  -3.890   4.284  0.00  0.00    +0.020 C 
ATOM     13  C   UNL     1       3.016  -3.850   4.130  0.00  0.00    +0.108 C 
ATOM     14  N   UNL     1       3.421  -2.478   3.794  0.00  0.00    -0.295 N 
ATOM     15  C   UNL     1       2.788  -1.815   2.647  0.00  0.00    +0.122 C 
ATOM     16  C   UNL     1       4.356  -1.840   4.526  0.00  0.00    +0.266 C 
ATOM     17  O   UNL     1       4.687  -0.707   4.235  0.00  0.00    -0.268 OA
BRANCH  10  18
ATOM     18  C   UNL     1       0.599  -1.322   1.587  0.00  0.00    +0.312 C 
ATOM     19  O   UNL     1      -0.144  -2.018   0.936  0.00  0.00    -0.250 OA
BRANCH  18  20
ATOM     20  O   UNL     1       0.829  -0.053   1.214  0.00  0.00    -0.465 OA
BRANCH  20  22
ATOM     21  C   UNL     1       0.544   1.866  -0.227  0.00  0.00    +0.048 C 
ATOM     22  C   UNL     1       0.162   0.408   0.037  0.00  0.00    +0.229 C 
ENDBRANCH  20  22
ENDBRANCH  18  20
ENDBRANCH  10  18
ENDBRANCH   1  16
BRANCH   7  23
ATOM     23  C   UNL     1       6.415  -7.559   8.602  0.00  0.00    +0.042 A 
ATOM     24  C   UNL     1       5.897  -8.530   7.743  0.00  0.00    +0.051 A 
ATOM     25  C   UNL     1       6.022  -9.869   8.062  0.00  0.00    +0.127 A 
ATOM     26  C   UNL     1       6.658 -10.248   9.232  0.00  0.00    +0.076 A 
ATOM     27  C   UNL     1       7.174  -9.290  10.089  0.00  0.00    +0.127 A 
ATOM     28  C   UNL     1       7.061  -7.948   9.777  0.00  0.00    +0.051 A 
ATOM     29  F   UNL     1       7.794  -9.667  11.229  0.00  0.00    -0.205 F 
ATOM     30  F   UNL     1       5.521 -10.809   7.231  0.00  0.00    -0.205 F 
ENDBRANCH   7  23
TORSDOF 5
