REMARK  Name = ZINC07472660
REMARK  5 active torsions:
REMARK  status: ('A' for Active; 'I' for Inactive)
REMARK    1  A    between atoms: C_1  and  C_2
REMARK    2  A    between atoms: C_12  and  C_14
REMARK    3  A    between atoms: C_14  and  N_15
REMARK    4  A    between atoms: C_18  and  C_22
REMARK    5  A    between atoms: C_18  and  C_23
REMARK                            x       y       z     vdW  Elec       q    Type
REMARK                         _______ _______ _______ _____ _____    ______ ____
ROOT
ATOM      1  C   UNL     1      -0.091   5.363   0.032  0.00  0.00    +0.046 C 
ATOM      2  C   UNL     1      -0.044   3.857   0.023  0.00  0.00    -0.024 A 
ATOM      3  C   UNL     1      -1.214   3.143   0.031  0.00  0.00    +0.005 A 
ATOM      4  C   UNL     1      -1.217   1.756   0.017  0.00  0.00    +0.001 A 
ATOM      5  C   UNL     1      -0.013   1.076   0.008  0.00  0.00    +0.017 A 
ATOM      6  C   UNL     1       1.164   1.782   0.001  0.00  0.00    +0.041 A 
ATOM      7  C   UNL     1       1.205   3.196   0.008  0.00  0.00    +0.083 A 
ATOM      8  N   UNL     1       2.439   3.745  -0.001  0.00  0.00    -0.224 NA
ATOM      9  C   UNL     1       3.534   3.020  -0.015  0.00  0.00    +0.165 A 
ATOM     10  S   UNL     1       2.888   1.354  -0.018  0.00  0.00    -0.052 S 
ATOM     11  N   UNL     1       4.854   3.441  -0.025  0.00  0.00    -0.263 N 
ATOM     12  C   UNL     1       5.850   2.533  -0.039  0.00  0.00    +0.237 C 
ATOM     13  O   UNL     1       5.591   1.348  -0.043  0.00  0.00    -0.274 OA
ATOM     14  H   UNL     1       5.061   4.388  -0.022  0.00  0.00    +0.157 HD
ENDROOT
BRANCH  12  15
ATOM     15  C   UNL     1       7.286   2.990  -0.050  0.00  0.00    +0.214 C 
BRANCH  15  16
ATOM     16  N   UNL     1       8.170   1.822  -0.065  0.00  0.00    -0.215 N 
ATOM     17  C   UNL     1       8.617   1.224  -1.187  0.00  0.00    +0.247 C 
ATOM     18  O   UNL     1       8.370   1.539  -2.332  0.00  0.00    -0.273 OA
ATOM     19  C   UNL     1       9.489   0.076  -0.720  0.00  0.00    +0.113 C 
ATOM     20  N   UNL     1       9.428   0.170   0.749  0.00  0.00    -0.285 N 
ATOM     21  C   UNL     1       8.639   1.221   1.035  0.00  0.00    +0.310 C 
ATOM     22  O   UNL     1       8.378   1.582   2.166  0.00  0.00    -0.252 OA
ATOM     23  C   UNL     1       8.924  -1.261  -1.202  0.00  0.00    +0.042 C 
ATOM     24  H   UNL     1       9.873  -0.411   1.386  0.00  0.00    +0.151 HD
BRANCH  19  25
ATOM     25  C   UNL     1      10.927   0.259  -1.211  0.00  0.00    +0.021 C 
ATOM     26  C   UNL     1      11.404  -0.643  -2.351  0.00  0.00    +0.006 C 
ATOM     27  C   UNL     1      11.919  -0.871  -0.929  0.00  0.00    +0.006 C 
ENDBRANCH  19  25
ENDBRANCH  15  16
ENDBRANCH  12  15
TORSDOF 3
