REMARK  Name = ZINC20389331
REMARK  5 active torsions:
REMARK  status: ('A' for Active; 'I' for Inactive)
REMARK    1  A    between atoms: C_4  and  C_7
REMARK    2  A    between atoms: C_7  and  C_9
REMARK    3  A    between atoms: C_7  and  N_16
REMARK    4  A    between atoms: C_23  and  N_29
REMARK    5  A    between atoms: C_24  and  N_28
REMARK                            x       y       z     vdW  Elec       q    Type
REMARK                         _______ _______ _______ _____ _____    ______ ____
ROOT
ATOM      1  N   UNL     1       5.547  -2.602  -0.785  0.00  0.00    -0.289 NA
ATOM      2  C   UNL     1       4.826  -3.176   0.359  0.00  0.00    +0.104 C 
ATOM      3  C   UNL     1       3.582  -2.333   0.651  0.00  0.00    +0.122 C 
ATOM      4  N   UNL     1       3.986  -0.948   0.928  0.00  0.00    -0.311 N 
ATOM      5  C   UNL     1       4.707  -0.373  -0.216  0.00  0.00    +0.122 C 
ATOM      6  C   UNL     1       5.951  -1.216  -0.508  0.00  0.00    +0.104 C 
ATOM      7  C   UNL     1       2.891  -0.169   1.267  0.00  0.00    +0.157 A 
ATOM      8  C   UNL     1       2.791   0.394   2.536  0.00  0.00    +0.205 A 
ATOM      9  C   UNL     1       1.671   1.167   2.827  0.00  0.00    +0.152 A 
ATOM     10  N   UNL     1       0.742   1.339   1.888  0.00  0.00    -0.219 NA
ATOM     11  C   UNL     1       0.873   0.788   0.698  0.00  0.00    +0.225 A 
ATOM     12  N   UNL     1       1.918   0.050   0.384  0.00  0.00    -0.218 NA
ENDROOT
BRANCH   9  13
ATOM     13  N   UNL     1       1.525   1.751   4.076  0.00  0.00    -0.341 N 
ATOM     14  H   UNL     1       0.636   2.361   4.297  0.00  0.00    +0.144 HD
ATOM     15  H   UNL     1       2.297   1.605   4.845  0.00  0.00    +0.144 HD
ENDBRANCH   9  13
BRANCH   8  16
ATOM     16  N   UNL     1       3.848   0.177   3.549  0.00  0.00    +0.063 N 
ATOM     17  O   UNL     1       4.748   0.989   3.673  0.00  0.00    -0.126 OA
ATOM     18  O   UNL     1       3.818  -0.812   4.258  0.00  0.00    -0.126 OA
ENDBRANCH   8  16
BRANCH   1  19
ATOM     19  C   UNL     1       6.708  -3.427  -1.145  0.00  0.00    +0.117 C 
BRANCH  19  20
ATOM     20  C   UNL     1       7.452  -2.778  -2.284  0.00  0.00    -0.026 A 
ATOM     21  C   UNL     1       6.755  -2.279  -3.369  0.00  0.00    +0.007 A 
ATOM     22  C   UNL     1       7.437  -1.679  -4.411  0.00  0.00    +0.020 A 
ATOM     23  C   UNL     1       8.817  -1.589  -4.373  0.00  0.00    +0.041 A 
ATOM     24  C   UNL     1       9.513  -2.093  -3.290  0.00  0.00    +0.020 A 
ATOM     25  C   UNL     1       8.831  -2.688  -2.246  0.00  0.00    +0.007 A 
ATOM     26 CL   UNL     1       9.674  -0.842  -5.686  0.00  0.00    -0.084 Cl
ENDBRANCH  19  20
BRANCH  19  30
ATOM     27  C   UNL     1       5.381  -7.309  -2.336  0.00  0.00    +0.000 A 
ATOM     28  C   UNL     1       6.485  -7.177  -1.514  0.00  0.00    +0.000 A 
ATOM     29  C   UNL     1       6.914  -5.921  -1.128  0.00  0.00    +0.005 A 
ATOM     30  C   UNL     1       6.240  -4.796  -1.565  0.00  0.00    -0.026 A 
ATOM     31  C   UNL     1       5.133  -4.928  -2.383  0.00  0.00    +0.005 A 
ATOM     32  C   UNL     1       4.707  -6.184  -2.773  0.00  0.00    +0.000 A 
ENDBRANCH  19  30
ENDBRANCH   1  19
TORSDOF 5
