REMARK  Name = ZINC65903019
REMARK  6 active torsions:
REMARK  status: ('A' for Active; 'I' for Inactive)
REMARK    1  A    between atoms: C_1  and  C_2
REMARK    2  A    between atoms: C_2  and  C_3
REMARK    3  A    between atoms: C_2  and  C_4
REMARK    4  A    between atoms: C_2  and  O_5
REMARK    5  A    between atoms: O_5  and  C_6
REMARK    6  A    between atoms: C_12  and  C_14
REMARK                            x       y       z     vdW  Elec       q    Type
REMARK                         _______ _______ _______ _____ _____    ______ ____
ROOT
ATOM      1  C   UNL     1       1.875   0.254  -1.345  0.00  0.00    +0.403 C 
ATOM      2  O   UNL     1       2.364   1.088  -0.609  0.00  0.00    -0.226 OA
ATOM      3  N   UNL     1       2.610  -0.283  -2.338  0.00  0.00    -0.267 N 
ATOM      4  C   UNL     1       2.031  -1.289  -3.240  0.00  0.00    +0.111 C 
ATOM      5  C   UNL     1       2.231  -0.827  -4.687  0.00  0.00    +0.020 C 
ATOM      6  C   UNL     1       3.716  -0.548  -4.928  0.00  0.00    +0.016 C 
ATOM      7  C   UNL     1       4.184   0.571  -3.995  0.00  0.00    +0.093 C 
ATOM      8  C   UNL     1       4.005   0.130  -2.544  0.00  0.00    +0.123 C 
ENDROOT
BRANCH   7   9
ATOM      9  C   UNL     1       5.639   0.868  -4.257  0.00  0.00    +0.220 C 
ATOM     10  O   UNL     1       6.361   0.006  -4.711  0.00  0.00    -0.275 OA
ATOM     11  N   UNL     1       6.137   2.090  -3.985  0.00  0.00    -0.299 N 
ATOM     12  C   UNL     1       5.274   3.070  -3.326  0.00  0.00    +0.117 C 
ATOM     13  C   UNL     1       5.044   4.262  -4.263  0.00  0.00    +0.114 C 
ATOM     14  C   UNL     1       6.251   5.170  -4.192  0.00  0.00    +0.215 C 
ATOM     15  O   UNL     1       6.162   6.247  -3.640  0.00  0.00    -0.276 OA
ATOM     16  N   UNL     1       7.413   4.796  -4.734  0.00  0.00    -0.314 N 
ATOM     17  C   UNL     1       7.539   3.499  -5.414  0.00  0.00    +0.123 C 
ATOM     18  C   UNL     1       7.519   2.384  -4.355  0.00  0.00    +0.126 C 
ATOM     19  H   UNL     1       8.181   5.386  -4.679  0.00  0.00    +0.149 HD
ENDBRANCH   7   9
BRANCH   1  20
ATOM     20  O   UNL     1       0.598  -0.135  -1.167  0.00  0.00    -0.445 OA
BRANCH  20  22
ATOM     21  C   UNL     1      -0.180   1.989  -0.315  0.00  0.00    +0.055 C 
ATOM     22  C   UNL     1      -0.123   0.476  -0.095  0.00  0.00    +0.107 C 
ATOM     23  C   UNL     1       0.584   0.180   1.229  0.00  0.00    +0.055 C 
ATOM     24  C   UNL     1      -1.545  -0.087  -0.051  0.00  0.00    +0.055 C 
ENDBRANCH  20  22
ENDBRANCH   1  20
TORSDOF 3
