REMARK  Name = ZINC31194039
REMARK  10 active torsions:
REMARK  status: ('A' for Active; 'I' for Inactive)
REMARK    1  A    between atoms: C_1  and  C_2
REMARK    2  A    between atoms: C_2  and  N_3
REMARK    3  A    between atoms: N_3  and  C_4
REMARK    4  A    between atoms: N_3  and  C_6
REMARK    5  A    between atoms: C_4  and  C_5
REMARK    6  A    between atoms: C_6  and  C_8
REMARK    7  A    between atoms: C_6  and  C_25
REMARK    8  A    between atoms: C_8  and  N_9
REMARK    9  A    between atoms: N_12  and  C_13
REMARK   10  A    between atoms: C_13  and  C_14
REMARK                            x       y       z     vdW  Elec       q    Type
REMARK                         _______ _______ _______ _____ _____    ______ ____
ROOT
ATOM      1  N   UNL     1      -2.274  -4.141  -1.528  0.00  0.00    -0.301 N 
ATOM      2  C   UNL     1      -1.756  -3.031  -0.966  0.00  0.00    +0.300 C 
ATOM      3  O   UNL     1      -0.694  -3.087  -0.377  0.00  0.00    -0.253 OA
ATOM      4  N   UNL     1      -2.414  -1.859  -1.058  0.00  0.00    -0.296 N 
ATOM      5  H   UNL     1      -3.235  -4.090  -2.061  0.00  0.00    +0.150 HD
ATOM      6  H   UNL     1      -3.375  -1.808  -1.592  0.00  0.00    +0.150 HD
ENDROOT
BRANCH   1   7
ATOM      7  C   UNL     1      -1.559  -5.416  -1.428  0.00  0.00    +0.095 C 
BRANCH   7   8
ATOM      8  C   UNL     1      -2.413  -6.529  -2.037  0.00  0.00    -0.020 C 
BRANCH   8   9
ATOM      9  C   UNL     1      -1.632  -7.818  -2.036  0.00  0.00    -0.052 A 
ATOM     10  C   UNL     1      -2.157  -8.956  -1.452  0.00  0.00    +0.009 A 
ATOM     11  C   UNL     1      -1.428 -10.099  -1.468  0.00  0.00    +0.045 A 
ATOM     12  S   UNL     1       0.048  -9.584  -2.329  0.00  0.00    -0.105 S 
ATOM     13  C   UNL     1      -0.407  -7.881  -2.614  0.00  0.00    +0.047 A 
ENDBRANCH   8   9
BRANCH   8  14
ATOM     14  N   UNL     1      -2.769  -6.173  -3.417  0.00  0.00    +0.385 N 
ATOM     15  H   UNL     1      -3.256  -5.188  -3.397  0.00  0.00    -0.081 HD
BRANCH  14  17
ATOM     16  C   UNL     1      -1.918  -5.322  -5.550  0.00  0.00    -0.017 C 
ATOM     17  C   UNL     1      -1.570  -6.068  -4.260  0.00  0.00    -0.081 C 
ENDBRANCH  14  17
BRANCH  14  18
ATOM     18  C   UNL     1      -3.724  -7.138  -3.979  0.00  0.00    -0.081 C 
ATOM     19  C   UNL     1      -5.112  -6.886  -3.386  0.00  0.00    -0.017 C 
ENDBRANCH  14  18
ENDBRANCH   8  14
ENDBRANCH   7   8
ENDBRANCH   1   7
BRANCH   4  20
ATOM     20  C   UNL     1      -1.850  -0.652  -0.448  0.00  0.00    +0.153 C 
BRANCH  20  21
ATOM     21  C   UNL     1      -2.788   0.531  -0.697  0.00  0.00    +0.228 C 
ATOM     22  C   UNL     1      -2.159   1.817  -0.143  0.00  0.00    +0.275 C 
ATOM     23  O   UNL     1      -3.067   2.898  -0.381  0.00  0.00    -0.485 OA
ATOM     24  C   UNL     1      -4.373   2.679  -0.070  0.00  0.00    +0.162 A 
ATOM     25  C   UNL     1      -5.231   3.760   0.069  0.00  0.00    +0.049 A 
ATOM     26  C   UNL     1      -6.561   3.554   0.379  0.00  0.00    +0.004 A 
ATOM     27  C   UNL     1      -7.042   2.269   0.553  0.00  0.00    +0.004 A 
ATOM     28  C   UNL     1      -6.191   1.187   0.424  0.00  0.00    +0.049 A 
ATOM     29  C   UNL     1      -4.856   1.388   0.108  0.00  0.00    +0.163 A 
ATOM     30  O   UNL     1      -4.031   0.312  -0.020  0.00  0.00    -0.480 OA
ENDBRANCH  20  21
ENDBRANCH   4  20
TORSDOF 8
