REMARK  Name = ZINC15906748
REMARK  11 active torsions:
REMARK  status: ('A' for Active; 'I' for Inactive)
REMARK    1  A    between atoms: C_1  and  C_2
REMARK    2  A    between atoms: C_4  and  C_38
REMARK    3  A    between atoms: C_9  and  N_37
REMARK    4  A    between atoms: C_10  and  C_14
REMARK    5  A    between atoms: C_11  and  C_13
REMARK    6  A    between atoms: C_14  and  C_15
REMARK    7  A    between atoms: C_14  and  C_22
REMARK    8  A    between atoms: C_23  and  C_36
REMARK    9  A    between atoms: C_26  and  N_27
REMARK   10  A    between atoms: C_30  and  C_35
REMARK   11  A    between atoms: C_32  and  C_34
REMARK                            x       y       z     vdW  Elec       q    Type
REMARK                         _______ _______ _______ _____ _____    ______ ____
ROOT
ATOM      1  C   UNL     1      -0.375   3.928   0.397  0.00  0.00    +0.089 C 
ENDROOT
BRANCH   1  11
ATOM      2  C   UNL     1      -2.091  11.159  -0.421  0.00  0.00    +0.066 C 
ATOM      3  C   UNL     1      -2.238  10.082  -1.465  0.00  0.00    +0.044 A 
ATOM      4  C   UNL     1      -2.733  10.388  -2.723  0.00  0.00    +0.046 A 
ATOM      5  C   UNL     1      -2.851   9.367  -3.653  0.00  0.00    +0.044 A 
ATOM      6  N   UNL     1      -2.491   8.140  -3.314  0.00  0.00    -0.216 NA
ATOM      7  C   UNL     1      -2.022   7.883  -2.104  0.00  0.00    +0.253 A 
ATOM      8  N   UNL     1      -1.901   8.833  -1.190  0.00  0.00    -0.216 NA
ATOM      9  N   UNL     1      -1.652   6.579  -1.781  0.00  0.00    -0.184 N 
ATOM     10  C   UNL     1      -1.160   6.156  -0.583  0.00  0.00    +0.127 A 
ATOM     11  C   UNL     1      -0.925   4.820  -0.687  0.00  0.00    +0.027 A 
ATOM     12  C   UNL     1      -1.291   4.419  -1.976  0.00  0.00    +0.066 A 
ATOM     13  N   UNL     1      -1.724   5.466  -2.629  0.00  0.00    -0.167 NA
ATOM     14  C   UNL     1      -1.201   3.017  -2.521  0.00  0.00    +0.068 C 
ATOM     15  C   UNL     1      -3.383   9.652  -5.034  0.00  0.00    +0.066 C 
BRANCH  10  16
ATOM     16  N   UNL     1      -0.936   6.946   0.540  0.00  0.00    -0.343 N 
ATOM     17  H   UNL     1      -0.579   6.549   1.350  0.00  0.00    +0.144 HD
ATOM     18  H   UNL     1      -1.137   7.895   0.513  0.00  0.00    +0.144 HD
ENDBRANCH  10  16
ENDBRANCH   1  11
BRANCH   1  19
ATOM     19  C   UNL     1      -0.885   2.524   0.199  0.00  0.00    +0.027 A 
ATOM     20  C   UNL     1      -2.223   2.148   0.043  0.00  0.00    +0.066 A 
ATOM     21  N   UNL     1      -2.275   0.849  -0.098  0.00  0.00    -0.167 NA
ATOM     22  N   UNL     1      -0.970   0.344  -0.043  0.00  0.00    -0.184 N 
ATOM     23  C   UNL     1      -0.124   1.397   0.138  0.00  0.00    +0.127 A 
ATOM     24  C   UNL     1      -0.602  -0.996  -0.154  0.00  0.00    +0.253 A 
ATOM     25  N   UNL     1       0.679  -1.321  -0.087  0.00  0.00    -0.216 NA
ATOM     26  C   UNL     1       1.062  -2.584  -0.183  0.00  0.00    +0.044 A 
ATOM     27  C   UNL     1       0.104  -3.569  -0.366  0.00  0.00    +0.046 A 
ATOM     28  C   UNL     1      -1.228  -3.192  -0.437  0.00  0.00    +0.044 A 
ATOM     29  N   UNL     1      -1.542  -1.911  -0.328  0.00  0.00    -0.216 NA
ATOM     30  C   UNL     1      -2.304  -4.227  -0.635  0.00  0.00    +0.066 C 
ATOM     31  C   UNL     1       2.523  -2.946  -0.100  0.00  0.00    +0.066 C 
ATOM     32  C   UNL     1      -3.405   3.082   0.044  0.00  0.00    +0.068 C 
BRANCH  23  33
ATOM     33  N   UNL     1       1.261   1.331   0.246  0.00  0.00    -0.343 N 
ATOM     34  H   UNL     1       1.711   0.473   0.193  0.00  0.00    +0.144 HD
ATOM     35  H   UNL     1       1.777   2.143   0.370  0.00  0.00    +0.144 HD
ENDBRANCH  23  33
ENDBRANCH   1  19
BRANCH   1  36
ATOM     36  C   UNL     1      -0.821   4.440   1.742  0.00  0.00    -0.035 A 
ATOM     37  C   UNL     1      -2.081   4.989   1.890  0.00  0.00    +0.006 A 
ATOM     38  C   UNL     1      -2.492   5.452   3.125  0.00  0.00    +0.020 A 
ATOM     39  C   UNL     1      -1.638   5.378   4.211  0.00  0.00    +0.041 A 
ATOM     40  C   UNL     1      -0.375   4.833   4.062  0.00  0.00    +0.020 A 
ATOM     41  C   UNL     1       0.033   4.365   2.827  0.00  0.00    +0.006 A 
ATOM     42 CL   UNL     1      -2.152   5.966   5.762  0.00  0.00    -0.084 Cl
ENDBRANCH   1  36
TORSDOF 5
