REMARK  Name = ZINC33033617
REMARK  14 active torsions:
REMARK  status: ('A' for Active; 'I' for Inactive)
REMARK    1  A    between atoms: C_1  and  C_2
REMARK    2  A    between atoms: C_2  and  C_3
REMARK    3  A    between atoms: C_3  and  C_4
REMARK    4  A    between atoms: C_4  and  N_5
REMARK    5  A    between atoms: N_5  and  C_6
REMARK    6  A    between atoms: C_6  and  C_7
REMARK    7  A    between atoms: C_8  and  C_10
REMARK    8  A    between atoms: C_13  and  N_29
REMARK    9  A    between atoms: C_14  and  N_16
REMARK   10  A    between atoms: N_16  and  S_17
REMARK   11  A    between atoms: S_17  and  C_20
REMARK   12  A    between atoms: C_23  and  C_26
REMARK   13  A    between atoms: C_26  and  C_27
REMARK   14  A    between atoms: C_27  and  C_28
REMARK                            x       y       z     vdW  Elec       q    Type
REMARK                         _______ _______ _______ _____ _____    ______ ____
ROOT
ATOM      1  C   UNL     1      -2.880   1.409  -0.316  0.00  0.00    +0.039 A 
ATOM      2  C   UNL     1      -3.086   0.097   0.118  0.00  0.00    +0.015 A 
ATOM      3  C   UNL     1      -4.301  -0.518  -0.094  0.00  0.00    +0.026 A 
ATOM      4  C   UNL     1      -5.321   0.161  -0.749  0.00  0.00    +0.052 A 
ATOM      5  C   UNL     1      -5.121   1.472  -1.190  0.00  0.00    +0.070 A 
ATOM      6  C   UNL     1      -3.906   2.094  -0.975  0.00  0.00    +0.039 A 
ENDROOT
BRANCH   4   7
ATOM      7  N   UNL     1      -6.546  -0.466  -0.966  0.00  0.00    -0.332 N 
ATOM      8  C   UNL     1      -6.465  -1.901  -0.660  0.00  0.00    +0.086 C 
ATOM      9  C   UNL     1      -7.804  -2.566  -0.986  0.00  0.00    -0.063 C 
ATOM     10  N   UNL     1      -8.870  -1.924  -0.205  0.00  0.00    +0.381 N 
ATOM     11  C   UNL     1      -8.952  -0.489  -0.511  0.00  0.00    -0.063 C 
ATOM     12  C   UNL     1      -7.613   0.176  -0.185  0.00  0.00    +0.086 C 
ATOM     13  H   UNL     1      -9.836  -2.393  -0.447  0.00  0.00    -0.086 HD
ATOM     14  H   UNL     1      -8.663  -2.046   0.869  0.00  0.00    -0.086 HD
ENDBRANCH   4   7
BRANCH   1  16
ATOM     15  N   UNL     1      -0.470   1.327   0.092  0.00  0.00    -0.298 N 
ATOM     16  C   UNL     1      -1.581   2.069  -0.083  0.00  0.00    +0.247 C 
ATOM     17  O   UNL     1      -1.513   3.283  -0.050  0.00  0.00    -0.270 OA
BRANCH  15  18
ATOM     18  C   UNL     1      -0.538  -0.132  -0.023  0.00  0.00    +0.104 C 
ATOM     19  C   UNL     1      -0.450  -0.758   1.371  0.00  0.00    +0.024 C 
ENDBRANCH  15  18
BRANCH  15  20
ATOM     20  C   UNL     1       0.806   1.979   0.392  0.00  0.00    +0.108 C 
BRANCH  20  21
ATOM     21  C   UNL     1       1.532   2.304  -0.914  0.00  0.00    +0.019 C 
BRANCH  21  23
ATOM     22  C   UNL     1       3.592   3.311  -1.908  0.00  0.00    +0.004 C 
ATOM     23  C   UNL     1       2.866   2.986  -0.601  0.00  0.00    -0.002 C 
ENDBRANCH  21  23
ENDBRANCH  20  21
ENDBRANCH  15  20
ENDBRANCH   1  16
BRANCH   5  24
ATOM     24  N   UNL     1      -6.150   2.155  -1.849  0.00  0.00    -0.214 N 
ATOM     25  H   UNL     1      -6.925   2.677  -1.268  0.00  0.00    +0.174 HD
BRANCH  24  26
ATOM     26  S   UNL     1      -6.202   2.176  -3.504  0.00  0.00    +0.072 S 
ATOM     27  O   UNL     1      -7.370   2.901  -3.865  0.00  0.00    -0.150 OA
ATOM     28  O   UNL     1      -4.905   2.553  -3.947  0.00  0.00    -0.150 OA
BRANCH  26  29
ATOM     29  C   UNL     1      -6.455   0.517  -4.039  0.00  0.00    +0.109 A 
ATOM     30  C   UNL     1      -5.369  -0.300  -4.294  0.00  0.00    +0.029 A 
ATOM     31  C   UNL     1      -5.568  -1.604  -4.709  0.00  0.00    +0.005 A 
ATOM     32  C   UNL     1      -6.851  -2.087  -4.879  0.00  0.00    -0.047 A 
ATOM     33  C   UNL     1      -7.937  -1.269  -4.629  0.00  0.00    +0.005 A 
ATOM     34  C   UNL     1      -7.739   0.033  -4.210  0.00  0.00    +0.029 A 
BRANCH  32  35
ATOM     35  C   UNL     1      -7.068  -3.507  -5.335  0.00  0.00    +0.035 C 
BRANCH  35  36
ATOM     36  C   UNL     1      -7.125  -3.548  -6.864  0.00  0.00    +0.001 C 
ATOM     37  C   UNL     1      -7.345  -4.990  -7.327  0.00  0.00    +0.004 C 
ENDBRANCH  35  36
ENDBRANCH  32  35
ENDBRANCH  26  29
ENDBRANCH  24  26
ENDBRANCH   5  24
TORSDOF 11
