REMARK  Name = ZINC22002038
REMARK  8 active torsions:
REMARK  status: ('A' for Active; 'I' for Inactive)
REMARK    1  A    between atoms: C_1  and  C_2
REMARK    2  A    between atoms: C_2  and  C_4
REMARK    3  A    between atoms: C_2  and  S_16
REMARK    4  A    between atoms: S_16  and  C_17
REMARK    5  A    between atoms: C_20  and  C_23
REMARK    6  A    between atoms: N_21  and  N_22
REMARK    7  A    between atoms: C_23  and  O_24
REMARK    8  A    between atoms: O_24  and  C_25
REMARK                            x       y       z     vdW  Elec       q    Type
REMARK                         _______ _______ _______ _____ _____    ______ ____
ROOT
ATOM      1  C   UNL     1       5.270   2.336   5.255  0.00  0.00    +0.209 A 
ATOM      2  N   UNL     1       4.806   1.215   5.756  0.00  0.00    -0.121 NA
ATOM      3  N   UNL     1       5.455   0.912   6.824  0.00  0.00    -0.128 NA
ATOM      4  C   UNL     1       6.358   1.818   7.070  0.00  0.00    +0.189 A 
ATOM      5  N   UNL     1       6.273   2.757   6.080  0.00  0.00    -0.225 N 
ENDROOT
BRANCH   5   6
ATOM      6  N   UNL     1       7.034   3.884   5.945  0.00  0.00    -0.295 N 
ATOM      7  H   UNL     1       7.816   4.111   6.684  0.00  0.00    +0.163 HD
ATOM      8  H   UNL     1       6.864   4.564   5.097  0.00  0.00    +0.163 HD
ENDBRANCH   5   6
BRANCH   1   9
ATOM      9  S   UNL     1       4.701   3.147   3.798  0.00  0.00    -0.072 S 
BRANCH   9  11
ATOM     10  C   UNL     1       2.284   1.995   4.340  0.00  0.00    +0.029 C 
ATOM     11  C   UNL     1       3.397   2.001   3.289  0.00  0.00    +0.137 C 
BRANCH  11  12
ATOM     12  C   UNL     1       2.832   2.439   1.962  0.00  0.00    +0.233 C 
ATOM     13  O   UNL     1       3.003   3.576   1.576  0.00  0.00    -0.274 OA
ATOM     14  N   UNL     1       2.138   1.567   1.204  0.00  0.00    -0.270 N 
ATOM     15  C   UNL     1       2.034   0.154   1.596  0.00  0.00    +0.114 C 
ATOM     16  C   UNL     1       2.272  -0.698   0.342  0.00  0.00    +0.024 C 
ATOM     17  C   UNL     1       1.164  -0.409  -0.670  0.00  0.00    +0.038 C 
ATOM     18  C   UNL     1       1.026   1.074  -0.893  0.00  0.00    -0.026 A 
ATOM     19  C   UNL     1       1.502   1.993   0.030  0.00  0.00    +0.039 A 
ATOM     20  C   UNL     1       1.355   3.355  -0.204  0.00  0.00    +0.024 A 
ATOM     21  C   UNL     1       0.735   3.794  -1.357  0.00  0.00    +0.002 A 
ATOM     22  C   UNL     1       0.262   2.878  -2.278  0.00  0.00    +0.000 A 
ATOM     23  C   UNL     1       0.407   1.523  -2.047  0.00  0.00    +0.005 A 
ENDBRANCH  11  12
ENDBRANCH   9  11
ENDBRANCH   1   9
BRANCH   4  24
ATOM     24  C   UNL     1       7.319   1.828   8.231  0.00  0.00    +0.306 C 
BRANCH  24  25
ATOM     25  O   UNL     1       6.729   2.523   9.332  0.00  0.00    -0.484 OA
BRANCH  25  26
ATOM     26  C   UNL     1       7.470   2.624  10.467  0.00  0.00    +0.121 A 
ATOM     27  C   UNL     1       8.736   2.060  10.521  0.00  0.00    +0.048 A 
ATOM     28  C   UNL     1       9.491   2.169  11.674  0.00  0.00    +0.042 A 
ATOM     29  C   UNL     1       8.979   2.829  12.777  0.00  0.00    +0.124 A 
ATOM     30  C   UNL     1       7.713   3.387  12.726  0.00  0.00    +0.042 A 
ATOM     31  C   UNL     1       6.958   3.286  11.573  0.00  0.00    +0.048 A 
ATOM     32  F   UNL     1       9.716   2.930  13.905  0.00  0.00    -0.205 F 
ENDBRANCH  25  26
ENDBRANCH  24  25
ENDBRANCH   4  24
TORSDOF 7
