REMARK  Name = ZINC40777741
REMARK  6 active torsions:
REMARK  status: ('A' for Active; 'I' for Inactive)
REMARK    1  A    between atoms: C_4  and  N_7
REMARK    2  A    between atoms: N_7  and  C_8
REMARK    3  A    between atoms: N_7  and  N_14
REMARK    4  A    between atoms: C_16  and  N_29
REMARK    5  A    between atoms: C_17  and  N_21
REMARK    6  A    between atoms: N_21  and  C_22
REMARK                            x       y       z     vdW  Elec       q    Type
REMARK                         _______ _______ _______ _____ _____    ______ ____
ROOT
ATOM      1  N   UNL     1       4.602   0.461  -0.304  0.00  0.00    -0.242 N 
ATOM      2  C   UNL     1       5.322   1.293   0.545  0.00  0.00    +0.161 A 
ATOM      3  C   UNL     1       6.502   1.901   0.110  0.00  0.00    +0.105 A 
ATOM      4  C   UNL     1       7.185   2.727   1.002  0.00  0.00    +0.126 A 
ATOM      5  N   UNL     1       6.691   2.904   2.226  0.00  0.00    -0.333 N 
ATOM      6  C   UNL     1       5.574   2.311   2.597  0.00  0.00    +0.200 A 
ATOM      7  N   UNL     1       4.895   1.528   1.783  0.00  0.00    -0.219 NA
ATOM      8  H   UNL     1       4.920   0.295  -1.205  0.00  0.00    +0.172 HD
ATOM      9  H   UNL     1       7.160   3.476   2.853  0.00  0.00    +0.168 HD
ENDROOT
BRANCH   3  10
ATOM     10  N   UNL     1       6.987   1.686  -1.190  0.00  0.00    -0.353 N 
ATOM     11  H   UNL     1       6.501   1.109  -1.800  0.00  0.00    +0.143 HD
ATOM     12  H   UNL     1       7.808   2.115  -1.479  0.00  0.00    +0.143 HD
ENDBRANCH   3  10
BRANCH   4  13
ATOM     13  N   UNL     1       8.365   3.356   0.621  0.00  0.00    -0.298 N 
ATOM     14  H   UNL     1       8.674   3.291  -0.296  0.00  0.00    +0.154 HD
BRANCH  13  15
ATOM     15  C   UNL     1       9.105   4.083   1.558  0.00  0.00    +0.051 A 
ATOM     16  C   UNL     1       9.112   5.471   1.515  0.00  0.00    +0.025 A 
ATOM     17  C   UNL     1       9.844   6.186   2.443  0.00  0.00    +0.002 A 
ATOM     18  C   UNL     1      10.571   5.521   3.414  0.00  0.00    +0.002 A 
ATOM     19  C   UNL     1      10.567   4.139   3.460  0.00  0.00    +0.022 A 
ATOM     20  C   UNL     1       9.832   3.418   2.539  0.00  0.00    +0.062 A 
ATOM     21 CL   UNL     1       9.821   1.683   2.602  0.00  0.00    -0.082 Cl
ENDBRANCH  13  15
ENDBRANCH   4  13
BRANCH   1  22
ATOM     22  N   UNL     1       3.417  -0.139   0.142  0.00  0.00    -0.221 N 
BRANCH  22  26
ATOM     23  C   UNL     1      -0.059   2.128   0.489  0.00  0.00    +0.000 A 
ATOM     24  C   UNL     1       0.136   1.033   1.312  0.00  0.00    +0.002 A 
ATOM     25  C   UNL     1       1.288   0.280   1.199  0.00  0.00    +0.025 A 
ATOM     26  C   UNL     1       2.251   0.622   0.258  0.00  0.00    +0.053 A 
ATOM     27  C   UNL     1       2.051   1.721  -0.568  0.00  0.00    +0.025 A 
ATOM     28  C   UNL     1       0.897   2.471  -0.449  0.00  0.00    +0.002 A 
ENDBRANCH  22  26
BRANCH  22  29
ATOM     29  C   UNL     1       3.402  -1.496   0.470  0.00  0.00    +0.053 A 
ATOM     30  C   UNL     1       2.401  -2.322  -0.028  0.00  0.00    +0.025 A 
ATOM     31  C   UNL     1       2.389  -3.663   0.299  0.00  0.00    +0.002 A 
ATOM     32  C   UNL     1       3.371  -4.186   1.121  0.00  0.00    +0.000 A 
ATOM     33  C   UNL     1       4.368  -3.367   1.618  0.00  0.00    +0.002 A 
ATOM     34  C   UNL     1       4.390  -2.025   1.291  0.00  0.00    +0.025 A 
ENDBRANCH  22  29
ENDBRANCH   1  22
TORSDOF 6
