REMARK  Name = ZINC17750533
REMARK  8 active torsions:
REMARK  status: ('A' for Active; 'I' for Inactive)
REMARK    1  A    between atoms: C_1  and  C_2
REMARK    2  A    between atoms: C_4  and  O_30
REMARK    3  A    between atoms: C_6  and  O_29
REMARK    4  A    between atoms: C_8  and  O_28
REMARK    5  A    between atoms: C_10  and  N_13
REMARK    6  A    between atoms: N_13  and  C_14
REMARK    7  A    between atoms: C_17  and  N_20
REMARK    8  A    between atoms: N_21  and  C_22
REMARK                            x       y       z     vdW  Elec       q    Type
REMARK                         _______ _______ _______ _____ _____    ______ ____
ROOT
ATOM      1  N   UNL     1       0.975  -6.301   2.545  0.00  0.00    -0.317 N 
ATOM      2  H   UNL     1       0.696  -6.515   1.641  0.00  0.00    +0.149 HD
ENDROOT
BRANCH   1   8
ATOM      3  C   UNL     1       4.027  -4.055   0.703  0.00  0.00    +0.041 C 
ATOM      4  C   UNL     1       3.153  -5.254   1.076  0.00  0.00    +0.149 C 
ATOM      5  C   UNL     1       3.696  -6.513   0.394  0.00  0.00    +0.174 C 
ATOM      6  C   UNL     1       2.852  -7.718   0.820  0.00  0.00    +0.178 C 
ATOM      7  C   UNL     1       2.875  -7.829   2.348  0.00  0.00    +0.192 C 
ATOM      8  C   UNL     1       2.364  -6.519   2.954  0.00  0.00    +0.235 C 
ATOM      9  O   UNL     1       3.173  -5.435   2.493  0.00  0.00    -0.351 OA
BRANCH   7  10
ATOM     10  O   UNL     1       2.034  -8.908   2.761  0.00  0.00    -0.385 OA
ATOM     11  H   UNL     1       2.000  -9.036   3.719  0.00  0.00    +0.210 HD
ENDBRANCH   7  10
BRANCH   6  12
ATOM     12  O   UNL     1       1.507  -7.543   0.372  0.00  0.00    -0.386 OA
ATOM     13  H   UNL     1       0.916  -8.271   0.607  0.00  0.00    +0.210 HD
ENDBRANCH   6  12
BRANCH   5  14
ATOM     14  O   UNL     1       5.055  -6.718   0.783  0.00  0.00    -0.387 OA
ATOM     15  H   UNL     1       5.646  -5.990   0.548  0.00  0.00    +0.210 HD
ENDBRANCH   5  14
ENDBRANCH   1   8
BRANCH   1  16
ATOM     16  C   UNL     1       0.054  -5.785   3.454  0.00  0.00    +0.029 A 
ATOM     17  C   UNL     1       0.457  -5.473   4.749  0.00  0.00    +0.025 A 
ATOM     18  C   UNL     1      -0.450  -4.964   5.650  0.00  0.00    +0.031 A 
ATOM     19  C   UNL     1      -1.778  -4.759   5.263  0.00  0.00    +0.086 A 
ATOM     20  C   UNL     1      -2.180  -5.074   3.960  0.00  0.00    +0.031 A 
ATOM     21  C   UNL     1      -1.266  -5.578   3.063  0.00  0.00    +0.025 A 
BRANCH  19  22
ATOM     22  N   UNL     1      -2.680  -4.255   6.154  0.00  0.00    -0.149 NA
ATOM     23  N   UNL     1      -2.269  -3.663   7.223  0.00  0.00    -0.149 NA
BRANCH  23  24
ATOM     24  C   UNL     1      -1.091  -2.969   7.210  0.00  0.00    +0.086 A 
ATOM     25  C   UNL     1      -0.463  -2.631   8.412  0.00  0.00    +0.029 A 
ATOM     26  C   UNL     1       0.725  -1.929   8.391  0.00  0.00    +0.002 A 
ATOM     27  C   UNL     1       1.294  -1.561   7.184  0.00  0.00    +0.000 A 
ATOM     28  C   UNL     1       0.676  -1.891   5.991  0.00  0.00    +0.002 A 
ATOM     29  C   UNL     1      -0.508  -2.598   5.996  0.00  0.00    +0.029 A 
ENDBRANCH  23  24
ENDBRANCH  19  22
ENDBRANCH   1  16
TORSDOF 7
