REMARK  Name = ZINC02084008
REMARK  5 active torsions:
REMARK  status: ('A' for Active; 'I' for Inactive)
REMARK    1  A    between atoms: C_1  and  C_2
REMARK    2  A    between atoms: C_2  and  C_3
REMARK    3  A    between atoms: C_3  and  S_4
REMARK    4  A    between atoms: S_4  and  C_5
REMARK    5  A    between atoms: C_18  and  C_21
REMARK                            x       y       z     vdW  Elec       q    Type
REMARK                         _______ _______ _______ _____ _____    ______ ____
ROOT
ATOM      1  C   UNL     1       4.699  -0.115  -0.133  0.00  0.00    +0.212 A 
ATOM      2  N   UNL     1       3.770  -0.475   0.749  0.00  0.00    -0.184 NA
ATOM      3  C   UNL     1       2.644   0.213   0.820  0.00  0.00    +0.248 A 
ATOM      4  C   UNL     1       2.463   1.312  -0.052  0.00  0.00    +0.156 A 
ATOM      5  N   UNL     1       3.428   1.619  -0.905  0.00  0.00    -0.141 NA
ATOM      6  N   UNL     1       4.511   0.922  -0.939  0.00  0.00    -0.122 NA
ATOM      7  C   UNL     1       1.207   2.088   0.002  0.00  0.00    +0.028 A 
ATOM      8  C   UNL     1       1.210   3.477   0.035  0.00  0.00    +0.012 A 
ATOM      9  C   UNL     1       0.013   4.165   0.060  0.00  0.00    +0.001 A 
ATOM     10  C   UNL     1      -1.189   3.480   0.054  0.00  0.00    +0.002 A 
ATOM     11  C   UNL     1      -1.207   2.097   0.031  0.00  0.00    +0.024 A 
ATOM     12  C   UNL     1      -0.017   1.394   0.010  0.00  0.00    +0.039 A 
ATOM     13  N   UNL     1       0.002  -0.004   0.002  0.00  0.00    -0.305 N 
ATOM     14  C   UNL     1       0.486  -0.705   1.187  0.00  0.00    +0.298 C 
ATOM     15  O   UNL     1       1.672  -0.112   1.705  0.00  0.00    -0.449 OA
ATOM     16  H   UNL     1      -0.301  -0.498  -0.776  0.00  0.00    +0.150 HD
ENDROOT
BRANCH  14  17
ATOM     17  C   UNL     1      -0.582  -0.670   2.249  0.00  0.00    +0.065 A 
ATOM     18  C   UNL     1      -0.229  -0.677   3.588  0.00  0.00    +0.133 A 
ATOM     19  C   UNL     1      -1.212  -0.645   4.562  0.00  0.00    +0.039 A 
ATOM     20  C   UNL     1      -2.545  -0.607   4.199  0.00  0.00    +0.004 A 
ATOM     21  C   UNL     1      -2.897  -0.601   2.863  0.00  0.00    +0.020 A 
ATOM     22  C   UNL     1      -1.916  -0.626   1.887  0.00  0.00    +0.052 A 
ATOM     23 CL   UNL     1      -2.360  -0.611   0.209  0.00  0.00    -0.083 Cl
ATOM     24  F   UNL     1       1.074  -0.715   3.942  0.00  0.00    -0.205 F 
ENDBRANCH  14  17
BRANCH   1  25
ATOM     25  S   UNL     1       6.201  -1.030  -0.232  0.00  0.00    -0.084 S 
BRANCH  25  26
ATOM     26  C   UNL     1       7.040  -0.115  -1.550  0.00  0.00    +0.077 C 
BRANCH  26  28
ATOM     27  C   UNL     1       9.116   0.027  -2.932  0.00  0.00    +0.004 C 
ATOM     28  C   UNL     1       8.408  -0.746  -1.818  0.00  0.00    +0.008 C 
ENDBRANCH  26  28
ENDBRANCH  25  26
ENDBRANCH   1  25
TORSDOF 4
