REMARK  Name = ZINC40291457
REMARK  8 active torsions:
REMARK  status: ('A' for Active; 'I' for Inactive)
REMARK    1  A    between atoms: C_1  and  C_2
REMARK    2  A    between atoms: C_4  and  O_10
REMARK    3  A    between atoms: C_6  and  C_9
REMARK    4  A    between atoms: O_10  and  C_11
REMARK    5  A    between atoms: C_12  and  C_19
REMARK    6  A    between atoms: C_13  and  C_18
REMARK    7  A    between atoms: C_14  and  C_17
REMARK    8  A    between atoms: C_19  and  N_21
REMARK                            x       y       z     vdW  Elec       q    Type
REMARK                         _______ _______ _______ _____ _____    ______ ____
ROOT
ATOM      1  C   UNL     1       0.098  -4.107  -2.346  0.00  0.00    +0.250 A 
ATOM      2  C   UNL     1       0.201  -4.840  -3.541  0.00  0.00    +0.071 A 
ATOM      3  C   UNL     1       0.382  -6.226  -3.439  0.00  0.00    -0.013 A 
ATOM      4  C   UNL     1       0.448  -6.779  -2.171  0.00  0.00    +0.064 A 
ATOM      5  N   UNL     1       0.341  -6.008  -1.106  0.00  0.00    -0.151 NA
ATOM      6  N   UNL     1       0.181  -4.738  -1.185  0.00  0.00    -0.110 NA
ATOM      7  C   UNL     1       0.642  -8.264  -2.008  0.00  0.00    +0.068 C 
ATOM      8  C   UNL     1       0.500  -7.087  -4.670  0.00  0.00    +0.046 C 
ENDROOT
BRANCH   2   9
ATOM      9  C   UNL     1       0.119  -4.175  -4.855  0.00  0.00    +0.082 C 
ATOM     10  S   UNL     1       1.551  -3.695  -5.662  0.00  0.00    -0.035 S 
BRANCH   9  11
ATOM     11  N   UNL     1      -1.082  -3.944  -5.421  0.00  0.00    -0.352 N 
ATOM     12  H   UNL     1      -1.895  -4.148  -4.933  0.00  0.00    +0.143 HD
ATOM     13  H   UNL     1      -1.134  -3.574  -6.316  0.00  0.00    +0.143 HD
ENDBRANCH   9  11
ENDBRANCH   2   9
BRANCH   1  14
ATOM     14  O   UNL     1      -0.078  -2.764  -2.382  0.00  0.00    -0.436 OA
BRANCH  14  18
ATOM     15  C   UNL     1       2.442  -0.849   1.333  0.00  0.00    +0.045 C 
ATOM     16  C   UNL     1       1.137  -1.136   0.636  0.00  0.00    -0.028 A 
ATOM     17  C   UNL     1       1.132  -1.824  -0.561  0.00  0.00    +0.051 A 
ATOM     18  C   UNL     1      -0.070  -2.088  -1.203  0.00  0.00    +0.131 A 
ATOM     19  C   UNL     1      -1.264  -1.660  -0.640  0.00  0.00    +0.051 A 
ATOM     20  C   UNL     1      -1.253  -0.972   0.558  0.00  0.00    -0.028 A 
ATOM     21  C   UNL     1      -0.054  -0.715   1.199  0.00  0.00    +0.047 A 
ATOM     22 CL   UNL     1      -0.045   0.143   2.708  0.00  0.00    -0.083 Cl
ATOM     23  C   UNL     1      -2.550  -0.506   1.170  0.00  0.00    +0.045 C 
ENDBRANCH  14  18
ENDBRANCH   1  14
TORSDOF 4
