REMARK  Name = ZINC64704132
REMARK  15 active torsions:
REMARK  status: ('A' for Active; 'I' for Inactive)
REMARK    1  A    between atoms: C_1  and  C_2
REMARK    2  A    between atoms: C_5  and  C_8
REMARK    3  A    between atoms: C_9  and  N_33
REMARK    4  A    between atoms: N_16  and  C_17
REMARK    5  A    between atoms: N_16  and  C_18
REMARK    6  A    between atoms: C_18  and  C_19
REMARK    7  A    between atoms: N_21  and  C_22
REMARK    8  A    between atoms: C_22  and  C_23
REMARK    9  A    between atoms: C_23  and  C_24
REMARK   10  A    between atoms: C_24  and  N_25
REMARK   11  A    between atoms: C_30  and  C_32
REMARK   12  A    between atoms: N_33  and  C_34
REMARK   13  A    between atoms: C_34  and  C_35
REMARK   14  A    between atoms: C_34  and  C_36
REMARK   15  A    between atoms: C_34  and  C_37
REMARK                            x       y       z     vdW  Elec       q    Type
REMARK                         _______ _______ _______ _____ _____    ______ ____
ROOT
ATOM      1  C   UNL     1      -0.088  -4.665  -0.078  0.00  0.00    +0.114 A 
ATOM      2  C   UNL     1       0.699  -5.314   0.826  0.00  0.00    +0.150 A 
ATOM      3  N   UNL     1       0.810  -6.633   0.414  0.00  0.00    -0.190 N 
ATOM      4  C   UNL     1       0.070  -6.715  -0.739  0.00  0.00    +0.199 A 
ATOM      5  N   UNL     1      -0.461  -5.564  -1.026  0.00  0.00    -0.218 NA
ATOM      6  S   UNL     1       0.263  -8.422  -1.197  0.00  0.00    -0.013 S 
ATOM      7  C   UNL     1       1.308  -8.917   0.163  0.00  0.00    +0.184 A 
ATOM      8  N   UNL     1       1.430  -7.805   0.836  0.00  0.00    -0.140 NA
ATOM      9  N   UNL     1       1.850 -10.163   0.436  0.00  0.00    -0.302 N 
ATOM     10  C   UNL     1       2.690 -10.353   1.621  0.00  0.00    +0.132 C 
ENDROOT
BRANCH   1  15
ATOM     11  C   UNL     1      -1.589   0.890   0.101  0.00  0.00    +0.044 C 
ATOM     12  C   UNL     1      -1.197  -0.564   0.054  0.00  0.00    -0.050 A 
ATOM     13  C   UNL     1      -0.981  -1.180  -1.166  0.00  0.00    +0.004 A 
ATOM     14  C   UNL     1      -0.621  -2.511  -1.215  0.00  0.00    +0.010 A 
ATOM     15  C   UNL     1      -0.474  -3.236  -0.032  0.00  0.00    +0.004 A 
ATOM     16  C   UNL     1      -0.693  -2.609   1.195  0.00  0.00    +0.010 A 
ATOM     17  C   UNL     1      -1.048  -1.276   1.231  0.00  0.00    +0.004 A 
ENDBRANCH   1  15
BRANCH   2  18
ATOM     18  N   UNL     1       1.288  -4.751   1.961  0.00  0.00    -0.323 N 
ATOM     19  H   UNL     1       1.222  -3.796   2.119  0.00  0.00    +0.148 HD
BRANCH  18  20
ATOM     20  C   UNL     1       2.005  -5.603   2.913  0.00  0.00    +0.025 C 
ATOM     21  C   UNL     1       3.233  -6.210   2.230  0.00  0.00    +0.031 C 
ATOM     22  C   UNL     1       2.451  -4.765   4.113  0.00  0.00    +0.031 C 
ATOM     23  C   UNL     1       1.081  -6.725   3.390  0.00  0.00    +0.031 C 
ENDBRANCH  18  20
ENDBRANCH   2  18
BRANCH   9  24
ATOM     24  C   UNL     1       1.583 -11.290  -0.461  0.00  0.00    +0.202 C 
BRANCH  24  25
ATOM     25  C   UNL     1       2.643 -11.343  -1.531  0.00  0.00    +0.230 C 
ATOM     26  O   UNL     1       3.534 -10.520  -1.543  0.00  0.00    -0.274 OA
ATOM     27  N   UNL     1       2.601 -12.304  -2.474  0.00  0.00    -0.314 N 
ATOM     28  H   UNL     1       1.889 -12.963  -2.464  0.00  0.00    +0.149 HD
BRANCH  27  29
ATOM     29  C   UNL     1       3.631 -12.355  -3.514  0.00  0.00    +0.102 C 
BRANCH  29  30
ATOM     30  C   UNL     1       3.353 -13.533  -4.451  0.00  0.00    +0.000 C 
BRANCH  30  31
ATOM     31  C   UNL     1       4.429 -13.586  -5.537  0.00  0.00    -0.077 C 
BRANCH  31  32
ATOM     32  N   UNL     1       4.161 -14.716  -6.436  0.00  0.00    +0.381 N 
ATOM     33  C   UNL     1       2.895 -14.488  -7.143  0.00  0.00    -0.078 C 
ATOM     34  C   UNL     1       2.571 -15.700  -8.020  0.00  0.00    -0.019 C 
ATOM     35  C   UNL     1       3.696 -15.901  -9.039  0.00  0.00    -0.003 C 
ATOM     36  C   UNL     1       5.024 -16.064  -8.292  0.00  0.00    -0.016 C 
ATOM     37  C   UNL     1       5.257 -14.839  -7.405  0.00  0.00    -0.072 C 
ATOM     38  C   UNL     1       6.582 -14.997  -6.657  0.00  0.00    -0.013 C 
ATOM     39  H   UNL     1       4.094 -15.566  -5.896  0.00  0.00    -0.081 HD
ENDBRANCH  31  32
ENDBRANCH  30  31
ENDBRANCH  29  30
ENDBRANCH  27  29
ENDBRANCH  24  25
ENDBRANCH   9  24
TORSDOF 9
