REMARK  Name = ZINC08659785
REMARK  6 active torsions:
REMARK  status: ('A' for Active; 'I' for Inactive)
REMARK    1  A    between atoms: C_1  and  N_2
REMARK    2  A    between atoms: N_7  and  C_10
REMARK    3  A    between atoms: N_11  and  C_20
REMARK    4  A    between atoms: C_20  and  C_21
REMARK    5  A    between atoms: C_21  and  C_22
REMARK    6  A    between atoms: C_22  and  N_59
REMARK                            x       y       z     vdW  Elec       q    Type
REMARK                         _______ _______ _______ _____ _____    ______ ____
ROOT
ATOM      1  C   UNL     1      -3.696   3.614  -0.994  0.00  0.00    +0.155 C 
ATOM      2  N   UNL     1      -2.264   3.698  -0.691  0.00  0.00    -0.280 N 
ATOM      3  C   UNL     1      -1.459   2.581  -0.841  0.00  0.00    +0.170 A 
ATOM      4  C   UNL     1      -0.104   2.688  -0.547  0.00  0.00    +0.153 A 
ATOM      5  C   UNL     1       0.408   3.921  -0.108  0.00  0.00    +0.282 A 
ATOM      6  O   UNL     1       1.593   4.038   0.154  0.00  0.00    -0.265 OA
ATOM      7  N   UNL     1      -0.425   4.975   0.018  0.00  0.00    -0.262 N 
ATOM      8  C   UNL     1      -1.734   4.861  -0.268  0.00  0.00    +0.333 A 
ATOM      9  O   UNL     1      -2.455   5.831  -0.143  0.00  0.00    -0.246 OA
ATOM     10  C   UNL     1       0.104   6.263   0.475  0.00  0.00    +0.157 C 
ATOM     11  N   UNL     1       0.448   1.435  -0.783  0.00  0.00    -0.306 N 
ATOM     12  C   UNL     1      -0.567   0.633  -1.201  0.00  0.00    +0.201 A 
ATOM     13  N   UNL     1      -1.687   1.327  -1.235  0.00  0.00    -0.196 NA
ATOM     14  N   UNL     1      -0.444  -0.694  -1.540  0.00  0.00    -0.297 N 
ATOM     15  C   UNL     1      -0.838  -0.919  -2.939  0.00  0.00    +0.136 C 
ATOM     16  C   UNL     1      -0.628  -2.394  -3.291  0.00  0.00    +0.179 C 
ATOM     17  O   UNL     1      -1.374  -3.207  -2.381  0.00  0.00    -0.377 OA
ATOM     18  C   UNL     1      -1.016  -3.014  -1.010  0.00  0.00    +0.179 C 
ATOM     19  C   UNL     1      -1.229  -1.545  -0.634  0.00  0.00    +0.136 C 
ENDROOT
BRANCH  11  20
ATOM     20  C   UNL     1       1.851   1.052  -0.614  0.00  0.00    +0.127 C 
BRANCH  20  21
ATOM     21  C   UNL     1       2.615   1.329  -1.910  0.00  0.00    +0.042 C 
BRANCH  21  22
ATOM     22  C   UNL     1       4.059   0.842  -1.766  0.00  0.00    +0.115 C 
BRANCH  22  30
ATOM     23  C   UNL     1       5.791   1.927  -3.124  0.00  0.00    +0.154 C 
ATOM     24  N   UNL     1       6.402   2.098  -4.338  0.00  0.00    -0.318 N 
ATOM     25  C   UNL     1       5.946   1.359  -5.526  0.00  0.00    +0.134 C 
ATOM     26  C   UNL     1       5.735   2.368  -6.666  0.00  0.00    +0.178 C 
ATOM     27  O   UNL     1       6.919   3.153  -6.823  0.00  0.00    -0.377 OA
ATOM     28  C   UNL     1       7.252   3.945  -5.681  0.00  0.00    +0.178 C 
ATOM     29  C   UNL     1       7.537   3.021  -4.491  0.00  0.00    +0.134 C 
ATOM     30  N   UNL     1       4.773   1.076  -3.068  0.00  0.00    -0.379 N 
ATOM     31  H   UNL     1       4.474   0.577  -3.914  0.00  0.00    +0.160 HD
ENDBRANCH  22  30
ENDBRANCH  21  22
ENDBRANCH  20  21
ENDBRANCH  11  20
TORSDOF 4
