REMARK  Name = ZINC41108501
REMARK  7 active torsions:
REMARK  status: ('A' for Active; 'I' for Inactive)
REMARK    1  A    between atoms: C_1  and  C_2
REMARK    2  A    between atoms: C_7  and  N_8
REMARK    3  A    between atoms: C_9  and  C_33
REMARK    4  A    between atoms: C_11  and  C_14
REMARK    5  A    between atoms: C_12  and  C_13
REMARK    6  A    between atoms: C_24  and  C_26
REMARK    7  A    between atoms: C_26  and  C_27
REMARK                            x       y       z     vdW  Elec       q    Type
REMARK                         _______ _______ _______ _____ _____    ______ ____
ROOT
ATOM      1  C   UNL     1       1.577   1.616   5.217  0.00  0.00    +0.026 C 
ATOM      2  C   UNL     1       1.024   2.320   6.268  0.00  0.00    +0.081 C 
ATOM      3  C   UNL     1       1.869   3.042   7.258  0.00  0.00    +0.152 C 
ATOM      4  N   UNL     1       3.008   3.607   6.954  0.00  0.00    -0.283 NA
ATOM      5  N   UNL     1       1.319   3.059   8.558  0.00  0.00    -0.152 N 
ATOM      6  C   UNL     1      -0.044   2.891   8.673  0.00  0.00    +0.181 C 
ATOM      7  N   UNL     1      -0.899   2.620   7.719  0.00  0.00    -0.152 NA
ATOM      8  C   UNL     1      -0.442   2.401   6.467  0.00  0.00    +0.273 C 
ATOM      9  O   UNL     1      -1.212   2.269   5.529  0.00  0.00    -0.268 OA
ATOM     10  S   UNL     1      -0.300   3.115  10.414  0.00  0.00    -0.038 S 
ATOM     11  C   UNL     1       1.415   3.313  10.879  0.00  0.00    +0.104 C 
ATOM     12  N   UNL     1       2.023   3.240   9.729  0.00  0.00    -0.169 NA
ATOM     13  H   UNL     1       3.520   4.066   7.638  0.00  0.00    +0.188 HD
ENDROOT
BRANCH   1  17
ATOM     14  N   UNL     1      -0.090  -0.250   2.642  0.00  0.00    -0.317 N 
ATOM     15  C   UNL     1      -0.895  -0.566   3.701  0.00  0.00    +0.022 A 
ATOM     16  C   UNL     1      -0.436   0.047   4.804  0.00  0.00    +0.031 A 
ATOM     17  C   UNL     1       0.753   0.807   4.393  0.00  0.00    -0.003 A 
ATOM     18  C   UNL     1       0.906   0.568   3.038  0.00  0.00    +0.028 A 
ATOM     19  C   UNL     1       1.995   1.126   2.158  0.00  0.00    +0.064 C 
ATOM     20  C   UNL     1      -2.106  -1.462   3.640  0.00  0.00    +0.064 C 
BRANCH  14  27
ATOM     21  C   UNL     1      -1.698   1.298   0.877  0.00  0.00    +0.046 C 
ATOM     22  C   UNL     1      -1.048   0.011   0.439  0.00  0.00    -0.025 A 
ATOM     23  C   UNL     1      -1.221  -0.446  -0.853  0.00  0.00    +0.025 A 
ATOM     24  C   UNL     1      -0.624  -1.627  -1.256  0.00  0.00    +0.041 A 
ATOM     25  C   UNL     1       0.146  -2.355  -0.366  0.00  0.00    +0.022 A 
ATOM     26  C   UNL     1       0.321  -1.903   0.927  0.00  0.00    +0.028 A 
ATOM     27  C   UNL     1      -0.271  -0.714   1.332  0.00  0.00    +0.050 A 
ATOM     28 CL   UNL     1      -0.843  -2.199  -2.881  0.00  0.00    -0.084 Cl
ENDBRANCH  14  27
ENDBRANCH   1  17
BRANCH  11  29
ATOM     29  C   UNL     1       2.006   3.513  12.250  0.00  0.00    +0.099 C 
BRANCH  29  30
ATOM     30  C   UNL     1       3.504   3.630  12.139  0.00  0.00    -0.041 A 
ATOM     31  C   UNL     1       4.294   2.498  12.211  0.00  0.00    +0.004 A 
ATOM     32  C   UNL     1       5.668   2.605  12.110  0.00  0.00    +0.000 A 
ATOM     33  C   UNL     1       6.253   3.845  11.935  0.00  0.00    +0.000 A 
ATOM     34  C   UNL     1       5.464   4.978  11.862  0.00  0.00    +0.000 A 
ATOM     35  C   UNL     1       4.089   4.870  11.959  0.00  0.00    +0.004 A 
ENDBRANCH  29  30
ENDBRANCH  11  29
TORSDOF 4
