REMARK  Name = ZINC65182035
REMARK  11 active torsions:
REMARK  status: ('A' for Active; 'I' for Inactive)
REMARK    1  A    between atoms: C_1  and  C_2
REMARK    2  A    between atoms: C_7  and  C_12
REMARK    3  A    between atoms: C_15  and  C_18
REMARK    4  A    between atoms: C_18  and  C_19
REMARK    5  A    between atoms: C_19  and  N_20
REMARK    6  A    between atoms: N_20  and  C_21
REMARK    7  A    between atoms: C_22  and  C_24
REMARK    8  A    between atoms: C_27  and  O_32
REMARK    9  A    between atoms: C_29  and  O_30
REMARK   10  A    between atoms: O_30  and  C_31
REMARK   11  A    between atoms: O_32  and  C_33
REMARK                            x       y       z     vdW  Elec       q    Type
REMARK                         _______ _______ _______ _____ _____    ______ ____
ROOT
ATOM      1  C   UNL     1       1.818  -5.349   1.634  0.00  0.00    +0.318 C 
ATOM      2  N   UNL     1       2.047  -6.690   1.072  0.00  0.00    -0.291 N 
ATOM      3  C   UNL     1       1.697  -7.595   2.046  0.00  0.00    +0.139 C 
ATOM      4  N   UNL     1       1.291  -7.007   3.112  0.00  0.00    -0.072 NA
ATOM      5  O   UNL     1       1.329  -5.597   2.962  0.00  0.00    -0.367 OA
ATOM      6  H   UNL     1       2.381  -6.895   0.184  0.00  0.00    +0.151 HD
ENDROOT
BRANCH   1  13
ATOM      7  C   UNL     1       1.486   1.102  -1.218  0.00  0.00    +0.044 C 
ATOM      8  C   UNL     1       1.417  -0.396  -1.061  0.00  0.00    -0.050 A 
ATOM      9  C   UNL     1       1.746  -1.212  -2.152  0.00  0.00    +0.005 A 
ATOM     10  C   UNL     1       1.709  -2.560  -2.091  0.00  0.00    +0.026 A 
ATOM     11  C   UNL     1       1.324  -3.215  -0.889  0.00  0.00    +0.043 A 
ATOM     12  N   UNL     1       1.211  -4.485  -0.585  0.00  0.00    -0.373 N 
ATOM     13  C   UNL     1       0.773  -4.595   0.811  0.00  0.00    +0.165 C 
ATOM     14  C   UNL     1       0.635  -3.175   1.315  0.00  0.00    +0.012 C 
ATOM     15  C   UNL     1       0.971  -2.375   0.278  0.00  0.00    -0.004 A 
ATOM     16  C   UNL     1       1.044  -0.916   0.130  0.00  0.00    +0.013 A 
ATOM     17  H   UNL     1       1.387  -5.228  -1.183  0.00  0.00    +0.160 HD
ENDBRANCH   1  13
BRANCH   3  18
ATOM     18  C   UNL     1       1.779  -9.091   1.881  0.00  0.00    +0.094 C 
BRANCH  18  19
ATOM     19  C   UNL     1       1.309  -9.772   3.168  0.00  0.00    +0.115 C 
BRANCH  19  20
ATOM     20  N   UNL     1       1.388 -11.226   3.009  0.00  0.00    -0.300 N 
ATOM     21  C   UNL     1       2.617 -11.937   3.372  0.00  0.00    +0.132 C 
ATOM     22  C   UNL     1       0.331 -11.910   2.528  0.00  0.00    +0.250 C 
ATOM     23  O   UNL     1      -0.653 -11.312   2.138  0.00  0.00    -0.270 OA
BRANCH  22  24
ATOM     24  C   UNL     1       0.368 -13.382   2.475  0.00  0.00    +0.079 A 
ATOM     25  C   UNL     1       0.870 -14.110   3.558  0.00  0.00    +0.020 A 
ATOM     26  C   UNL     1       0.903 -15.484   3.506  0.00  0.00    +0.046 A 
ATOM     27  C   UNL     1       0.438 -16.154   2.377  0.00  0.00    +0.124 A 
ATOM     28  C   UNL     1      -0.062 -15.441   1.298  0.00  0.00    +0.092 A 
ATOM     29  C   UNL     1      -0.105 -14.058   1.341  0.00  0.00    +0.136 A 
BRANCH  29  30
ATOM     30  O   UNL     1      -0.599 -13.359   0.288  0.00  0.00    -0.494 OA
ATOM     31  C   UNL     1      -1.063 -14.115  -0.832  0.00  0.00    +0.277 C 
ENDBRANCH  29  30
BRANCH  27  32
ATOM     32  O   UNL     1       0.474 -17.510   2.334  0.00  0.00    -0.495 OA
ATOM     33  C   UNL     1       1.001 -18.182   3.479  0.00  0.00    +0.277 C 
ENDBRANCH  27  32
ENDBRANCH  22  24
ENDBRANCH  19  20
ENDBRANCH  18  19
ENDBRANCH   3  18
TORSDOF 7
