REMARK  Name = ZINC41585916
REMARK  4 active torsions:
REMARK  status: ('A' for Active; 'I' for Inactive)
REMARK    1  A    between atoms: N_10  and  C_13
REMARK    2  A    between atoms: C_13  and  C_14
REMARK    3  A    between atoms: C_15  and  O_34
REMARK    4  A    between atoms: C_22  and  C_23
REMARK                            x       y       z     vdW  Elec       q    Type
REMARK                         _______ _______ _______ _____ _____    ______ ____
ROOT
ATOM      1  C   UNL     1       0.350  -6.640   1.529  0.00  0.00    +0.051 A 
ATOM      2  C   UNL     1      -0.852  -6.481   2.200  0.00  0.00    +0.125 A 
ATOM      3  C   UNL     1      -1.879  -7.407   2.043  0.00  0.00    +0.046 A 
ATOM      4  C   UNL     1      -1.711  -8.486   1.221  0.00  0.00    +0.019 A 
ATOM      5  C   UNL     1      -0.506  -8.659   0.539  0.00  0.00    +0.068 A 
ATOM      6  C   UNL     1       0.535  -7.728   0.686  0.00  0.00    +0.147 A 
ATOM      7  O   UNL     1       1.589  -8.102  -0.072  0.00  0.00    -0.451 OA
ATOM      8  C   UNL     1       1.341  -9.247  -0.750  0.00  0.00    +0.176 C 
ATOM      9  C   UNL     1       2.196  -9.880  -1.594  0.00  0.00    +0.058 C 
ATOM     10  C   UNL     1      -0.016  -9.686  -0.398  0.00  0.00    +0.231 C 
ATOM     11  O   UNL     1      -0.609 -10.673  -0.800  0.00  0.00    -0.283 OA
ENDROOT
BRANCH   9  12
ATOM     12  C   UNL     1       3.580  -9.410  -1.727  0.00  0.00    -0.018 A 
ATOM     13  C   UNL     1       4.064  -8.404  -0.881  0.00  0.00    +0.012 A 
ATOM     14  C   UNL     1       5.363  -7.965  -1.008  0.00  0.00    +0.050 A 
ATOM     15  C   UNL     1       6.197  -8.516  -1.973  0.00  0.00    +0.166 A 
ATOM     16  C   UNL     1       5.722  -9.519  -2.819  0.00  0.00    +0.167 A 
ATOM     17  C   UNL     1       4.422  -9.969  -2.696  0.00  0.00    +0.057 A 
ATOM     18  O   UNL     1       6.727  -9.886  -3.667  0.00  0.00    -0.453 OA
ATOM     19  C   UNL     1       7.691  -8.818  -3.605  0.00  0.00    +0.466 C 
ATOM     20  O   UNL     1       7.498  -8.259  -2.292  0.00  0.00    -0.453 OA
ENDBRANCH   9  12
BRANCH   2  21
ATOM     21  O   UNL     1      -1.029  -5.413   3.019  0.00  0.00    -0.506 OA
ATOM     22  H   UNL     1      -1.397  -4.635   2.578  0.00  0.00    +0.292 HD
ENDBRANCH   2  21
BRANCH   1  23
ATOM     23  C   UNL     1       1.453  -5.629   1.709  0.00  0.00    +0.127 C 
BRANCH  23  33
ATOM     24  C   UNL     1       2.128   1.500  -0.527  0.00  0.00    +0.005 A 
ATOM     25  C   UNL     1       0.872   2.092  -0.554  0.00  0.00    +0.018 A 
ATOM     26  C   UNL     1      -0.253   1.293  -0.524  0.00  0.00    +0.084 A 
ATOM     27  N   UNL     1      -0.148  -0.021  -0.471  0.00  0.00    -0.350 N 
ATOM     28  C   UNL     1       1.031  -0.623  -0.443  0.00  0.00    +0.099 A 
ATOM     29  C   UNL     1       2.207   0.121  -0.471  0.00  0.00    +0.042 A 
ATOM     30  N   UNL     1       1.095  -2.011  -0.386  0.00  0.00    -0.314 N 
ATOM     31  C   UNL     1       2.385  -2.711  -0.478  0.00  0.00    +0.122 C 
ATOM     32  C   UNL     1       2.491  -3.692   0.694  0.00  0.00    +0.103 C 
ATOM     33  N   UNL     1       1.310  -4.565   0.707  0.00  0.00    -0.295 NA
ATOM     34  C   UNL     1       0.080  -3.793   0.931  0.00  0.00    +0.103 C 
ATOM     35  C   UNL     1      -0.125  -2.817  -0.226  0.00  0.00    +0.122 C 
ATOM     36  H   UNL     1      -0.954  -0.560  -0.451  0.00  0.00    +0.166 HD
ENDBRANCH  23  33
ENDBRANCH   1  23
TORSDOF 4
