REMARK  Name = ZINC09692797
REMARK  7 active torsions:
REMARK  status: ('A' for Active; 'I' for Inactive)
REMARK    1  A    between atoms: C_1  and  C_2
REMARK    2  A    between atoms: C_2  and  C_4
REMARK    3  A    between atoms: C_2  and  C_24
REMARK    4  A    between atoms: N_8  and  C_16
REMARK    5  A    between atoms: C_16  and  C_17
REMARK    6  A    between atoms: N_26  and  C_27
REMARK    7  A    between atoms: C_27  and  C_28
REMARK                            x       y       z     vdW  Elec       q    Type
REMARK                         _______ _______ _______ _____ _____    ______ ____
ROOT
ATOM      1  C   UNL     1      -3.277   0.306   3.694  0.00  0.00    +0.149 C 
ATOM      2  C   UNL     1      -2.754   0.276   2.283  0.00  0.00    +0.234 C 
ATOM      3  O   UNL     1      -1.959  -0.590   1.986  0.00  0.00    -0.274 OA
ATOM      4  N   UNL     1      -3.112   1.150   1.346  0.00  0.00    -0.265 N 
ATOM      5  C   UNL     1      -4.004   2.207   1.503  0.00  0.00    +0.050 A 
ATOM      6  C   UNL     1      -3.956   3.279   0.619  0.00  0.00    +0.024 A 
ATOM      7  C   UNL     1      -4.837   4.334   0.757  0.00  0.00    +0.002 A 
ATOM      8  C   UNL     1      -5.774   4.337   1.774  0.00  0.00    +0.001 A 
ATOM      9  C   UNL     1      -5.831   3.279   2.662  0.00  0.00    +0.016 A 
ATOM     10  C   UNL     1      -4.950   2.219   2.529  0.00  0.00    +0.030 A 
ATOM     11  S   UNL     1      -5.007   0.866   3.661  0.00  0.00    -0.110 S 
ENDROOT
BRANCH   1  13
ATOM     12  C   UNL     1      -2.611   2.694   4.004  0.00  0.00    +0.019 C 
ATOM     13  C   UNL     1      -2.442   1.270   4.538  0.00  0.00    +0.094 C 
BRANCH  13  14
ATOM     14  C   UNL     1      -2.905   1.213   5.971  0.00  0.00    +0.218 C 
ATOM     15  O   UNL     1      -3.813   0.474   6.286  0.00  0.00    -0.275 OA
ATOM     16  N   UNL     1      -2.309   1.984   6.903  0.00  0.00    -0.311 N 
ATOM     17  H   UNL     1      -1.583   2.575   6.652  0.00  0.00    +0.149 HD
BRANCH  16  18
ATOM     18  C   UNL     1      -2.760   1.928   8.296  0.00  0.00    +0.141 C 
BRANCH  18  19
ATOM     19  C   UNL     1      -1.937   2.878   9.128  0.00  0.00    -0.012 A 
ATOM     20  C   UNL     1      -0.896   2.397   9.900  0.00  0.00    +0.006 A 
ATOM     21  C   UNL     1      -0.138   3.269  10.659  0.00  0.00    +0.000 A 
ATOM     22  C   UNL     1      -0.428   4.621  10.656  0.00  0.00    +0.001 A 
ATOM     23  C   UNL     1      -1.472   5.102   9.889  0.00  0.00    +0.020 A 
ATOM     24  C   UNL     1      -2.227   4.231   9.124  0.00  0.00    +0.046 A 
ATOM     25 CL   UNL     1      -3.539   4.834   8.161  0.00  0.00    -0.083 Cl
ENDBRANCH  18  19
ENDBRANCH  16  18
ENDBRANCH  13  14
ENDBRANCH   1  13
BRANCH   4  26
ATOM     26  C   UNL     1      -2.514   0.979   0.020  0.00  0.00    +0.150 C 
BRANCH  26  27
ATOM     27  C   UNL     1      -3.479   0.247  -0.876  0.00  0.00    -0.011 A 
ATOM     28  C   UNL     1      -4.356   0.957  -1.675  0.00  0.00    +0.006 A 
ATOM     29  C   UNL     1      -5.238   0.286  -2.500  0.00  0.00    +0.000 A 
ATOM     30  C   UNL     1      -5.247  -1.097  -2.524  0.00  0.00    +0.001 A 
ATOM     31  C   UNL     1      -4.375  -1.808  -1.723  0.00  0.00    +0.020 A 
ATOM     32  C   UNL     1      -3.492  -1.136  -0.896  0.00  0.00    +0.046 A 
ATOM     33 CL   UNL     1      -2.395  -2.029   0.112  0.00  0.00    -0.083 Cl
ENDBRANCH  26  27
ENDBRANCH   4  26
TORSDOF 6
