REMARK  Name = ZINC36763002
REMARK  5 active torsions:
REMARK  status: ('A' for Active; 'I' for Inactive)
REMARK    1  A    between atoms: C_1  and  C_2
REMARK    2  A    between atoms: C_2  and  C_3
REMARK    3  A    between atoms: C_5  and  C_8
REMARK    4  A    between atoms: C_8  and  C_10
REMARK    5  A    between atoms: C_8  and  N_22
REMARK                            x       y       z     vdW  Elec       q    Type
REMARK                         _______ _______ _______ _____ _____    ______ ____
ROOT
ATOM      1  C   UNL     1      -4.453  -1.641  -1.598  0.00  0.00    +0.029 C 
ENDROOT
BRANCH   1   2
ATOM      2  C   UNL     1      -4.562  -3.144  -1.625  0.00  0.00    -0.050 A 
ATOM      3  C   UNL     1      -3.997  -3.858  -2.668  0.00  0.00    +0.052 A 
ATOM      4  C   UNL     1      -4.099  -5.238  -2.689  0.00  0.00    +0.163 A 
ATOM      5  C   UNL     1      -4.765  -5.903  -1.669  0.00  0.00    +0.176 A 
ATOM      6  C   UNL     1      -5.329  -5.186  -0.627  0.00  0.00    +0.063 A 
ATOM      7  C   UNL     1      -5.221  -3.806  -0.606  0.00  0.00    +0.021 A 
ATOM      8 BR   UNL     1      -6.238  -6.089   0.764  0.00  0.00    -0.046 Br
ATOM      9  O   UNL     1      -4.859  -7.264  -1.699  0.00  0.00    -0.487 OA
ATOM     10  C   UNL     1      -5.679  -7.811  -2.734  0.00  0.00    +0.232 C 
ATOM     11  C   UNL     1      -4.895  -7.947  -4.029  0.00  0.00    +0.082 C 
ATOM     12  C   UNL     1      -4.467  -6.601  -4.591  0.00  0.00    +0.232 C 
ATOM     13  O   UNL     1      -3.545  -5.954  -3.711  0.00  0.00    -0.488 OA
ENDBRANCH   1   2
BRANCH   1  16
ATOM     14  C   UNL     1      -1.412  -0.526   0.013  0.00  0.00    +0.227 A 
ATOM     15  N   UNL     1      -2.137  -0.789  -1.039  0.00  0.00    -0.198 NA
ATOM     16  C   UNL     1      -3.342  -1.235  -0.665  0.00  0.00    +0.162 A 
ATOM     17  N   UNL     1      -3.398  -1.261   0.635  0.00  0.00    -0.063 NA
ATOM     18  O   UNL     1      -2.137  -0.803   1.103  0.00  0.00    -0.338 OA
BRANCH  14  20
ATOM     19  C   UNL     1      -0.019   1.526   0.010  0.00  0.00    +0.014 C 
ATOM     20  C   UNL     1       0.002  -0.004   0.002  0.00  0.00    +0.095 C 
ENDBRANCH  14  20
ENDBRANCH   1  16
BRANCH   1  21
ATOM     21  N   UNL     1      -5.721  -1.067  -1.128  0.00  0.00    +0.387 N 
ATOM     22  H   UNL     1      -5.648  -0.061  -1.110  0.00  0.00    -0.089 HD
ATOM     23  H   UNL     1      -6.466  -1.339  -1.753  0.00  0.00    -0.089 HD
ATOM     24  H   UNL     1      -5.921  -1.407  -0.199  0.00  0.00    -0.089 HD
ENDBRANCH   1  21
TORSDOF 4
