REMARK  Name = ZINC04281737
REMARK  7 active torsions:
REMARK  status: ('A' for Active; 'I' for Inactive)
REMARK    1  A    between atoms: C_1  and  C_2
REMARK    2  A    between atoms: C_2  and  O_3
REMARK    3  A    between atoms: O_3  and  C_4
REMARK    4  A    between atoms: C_7  and  C_9
REMARK    5  A    between atoms: C_13  and  N_14
REMARK    6  A    between atoms: C_15  and  C_17
REMARK    7  A    between atoms: C_18  and  C_19
REMARK                            x       y       z     vdW  Elec       q    Type
REMARK                         _______ _______ _______ _____ _____    ______ ____
ROOT
ATOM      1  C   UNL     1       4.784  -7.143  -0.086  0.00  0.00    +0.066 A 
ATOM      2  C   UNL     1       4.519  -8.562  -0.086  0.00  0.00    +0.022 A 
ATOM      3  C   UNL     1       3.231  -8.947  -0.075  0.00  0.00    +0.048 A 
ATOM      4  S   UNL     1       2.342  -7.404  -0.059  0.00  0.00    -0.081 S 
ATOM      5  C   UNL     1       3.676  -6.301  -0.065  0.00  0.00    +0.084 A 
ENDROOT
BRANCH   1   9
ATOM      6  C   UNL     1       8.456  -6.976  -0.140  0.00  0.00    +0.407 C 
ATOM      7  O   UNL     1       8.644  -5.776  -0.137  0.00  0.00    -0.226 OA
ATOM      8  N   UNL     1       7.199  -7.462  -0.124  0.00  0.00    -0.217 N 
ATOM      9  C   UNL     1       6.150  -6.615  -0.104  0.00  0.00    +0.255 C 
ATOM     10  O   UNL     1       6.338  -5.413  -0.101  0.00  0.00    -0.270 OA
ATOM     11  H   UNL     1       7.049  -8.420  -0.126  0.00  0.00    +0.161 HD
BRANCH   6  12
ATOM     12  O   UNL     1       9.504  -7.822  -0.160  0.00  0.00    -0.450 OA
BRANCH  12  14
ATOM     13  C   UNL     1      11.884  -8.337  -0.198  0.00  0.00    +0.048 C 
ATOM     14  C   UNL     1      10.829  -7.228  -0.177  0.00  0.00    +0.230 C 
ENDBRANCH  12  14
ENDBRANCH   6  12
ENDBRANCH   1   9
BRANCH   5  15
ATOM     15  N   UNL     1       3.648  -4.917  -0.058  0.00  0.00    -0.276 N 
ATOM     16  C   UNL     1       2.468  -4.267  -0.043  0.00  0.00    +0.241 C 
ATOM     17  O   UNL     1       1.426  -4.897  -0.036  0.00  0.00    -0.270 OA
ATOM     18  H   UNL     1       4.478  -4.415  -0.064  0.00  0.00    +0.156 HD
BRANCH  16  19
ATOM     19  C   UNL     1       2.438  -2.804  -0.036  0.00  0.00    +0.068 C 
ATOM     20  C   UNL     1       1.256  -2.154  -0.021  0.00  0.00    +0.014 C 
BRANCH  20  21
ATOM     21  C   UNL     1       1.226  -0.683  -0.013  0.00  0.00    -0.007 A 
ATOM     22  C   UNL     1       2.421   0.045  -0.021  0.00  0.00    +0.009 A 
ATOM     23  C   UNL     1       2.384   1.423  -0.013  0.00  0.00    +0.001 A 
ATOM     24  C   UNL     1       1.170   2.088   0.002  0.00  0.00    +0.001 A 
ATOM     25  C   UNL     1      -0.017   1.377   0.010  0.00  0.00    +0.020 A 
ATOM     26  C   UNL     1       0.002  -0.004   0.002  0.00  0.00    +0.048 A 
ATOM     27 CL   UNL     1      -1.488  -0.895   0.011  0.00  0.00    -0.083 Cl
ENDBRANCH  20  21
ENDBRANCH  16  19
ENDBRANCH   5  15
TORSDOF 6
