REMARK  Name = ZINC09823166
REMARK  9 active torsions:
REMARK  status: ('A' for Active; 'I' for Inactive)
REMARK    1  A    between atoms: C_1  and  N_68
REMARK    2  A    between atoms: C_2  and  C_3
REMARK    3  A    between atoms: C_2  and  N_68
REMARK    4  A    between atoms: C_3  and  N_4
REMARK    5  A    between atoms: C_5  and  C_7
REMARK    6  A    between atoms: C_7  and  N_8
REMARK    7  A    between atoms: N_21  and  C_22
REMARK    8  A    between atoms: C_22  and  C_23
REMARK    9  A    between atoms: C_30  and  N_68
REMARK                            x       y       z     vdW  Elec       q    Type
REMARK                         _______ _______ _______ _____ _____    ______ ____
ROOT
ATOM      1  N   UNL     1       6.998   2.465   3.697  0.00  0.00    -0.219 N 
ATOM      2  C   UNL     1       7.203   3.552   4.468  0.00  0.00    +0.292 A 
ATOM      3  O   UNL     1       6.262   4.114   5.004  0.00  0.00    -0.264 OA
ATOM      4  C   UNL     1       8.521   4.033   4.652  0.00  0.00    +0.119 A 
ATOM      5  C   UNL     1       9.568   3.366   4.017  0.00  0.00    +0.033 A 
ATOM      6  C   UNL     1       9.293   2.236   3.218  0.00  0.00    +0.143 A 
ATOM      7  N   UNL     1       8.067   1.816   3.072  0.00  0.00    -0.175 NA
ATOM      8  C   UNL     1      10.800   4.080   4.379  0.00  0.00    +0.009 A 
ATOM      9  C   UNL     1      12.147   3.899   4.064  0.00  0.00    +0.010 A 
ATOM     10  C   UNL     1      13.085   4.755   4.569  0.00  0.00    +0.001 A 
ATOM     11  C   UNL     1      12.708   5.804   5.396  0.00  0.00    +0.002 A 
ATOM     12  C   UNL     1      11.384   6.000   5.721  0.00  0.00    +0.026 A 
ATOM     13  C   UNL     1      10.411   5.140   5.216  0.00  0.00    +0.051 A 
ATOM     14  N   UNL     1       9.041   5.091   5.365  0.00  0.00    -0.331 N 
ENDROOT
BRANCH   1  15
ATOM     15  C   UNL     1       5.636   1.960   3.508  0.00  0.00    +0.243 C 
BRANCH  15  17
ATOM     16  N   UNL     1       3.757   2.317   1.939  0.00  0.00    -0.316 N 
ATOM     17  C   UNL     1       5.016   2.627   2.308  0.00  0.00    +0.235 C 
ATOM     18  O   UNL     1       5.649   3.445   1.673  0.00  0.00    -0.274 OA
ATOM     19  H   UNL     1       3.251   1.663   2.446  0.00  0.00    +0.149 HD
BRANCH  16  20
ATOM     20  C   UNL     1       3.154   2.965   0.772  0.00  0.00    +0.086 C 
BRANCH  20  21
ATOM     21  C   UNL     1       1.732   2.438   0.574  0.00  0.00    -0.060 C 
BRANCH  21  23
ATOM     22  C   UNL     1       1.819   2.699  -1.831  0.00  0.00    -0.096 C 
ATOM     23  N   UNL     1       1.130   3.117  -0.593  0.00  0.00    +0.381 N 
ATOM     24  H   UNL     1       1.235   4.132  -0.479  0.00  0.00    -0.082 HD
BRANCH  23  25
ATOM     25  C   UNL     1      -0.309   2.790  -0.681  0.00  0.00    -0.069 C 
ATOM     26  C   UNL     1      -1.011   3.298   0.581  0.00  0.00    -0.015 C 
ATOM     27  C   UNL     1      -2.506   2.987   0.492  0.00  0.00    -0.002 C 
ATOM     28  C   UNL     1      -3.100   3.681  -0.736  0.00  0.00    -0.000 C 
ATOM     29  C   UNL     1      -2.398   3.173  -1.997  0.00  0.00    -0.002 C 
ATOM     30  C   UNL     1      -0.903   3.483  -1.909  0.00  0.00    -0.015 C 
ENDBRANCH  23  25
ENDBRANCH  21  23
ENDBRANCH  20  21
ENDBRANCH  16  20
ENDBRANCH  15  17
ENDBRANCH   1  15
BRANCH  14  31
ATOM     31  C   UNL     1       8.252   6.029   6.167  0.00  0.00    +0.160 C 
BRANCH  31  32
ATOM     32  C   UNL     1       7.720   7.125   5.279  0.00  0.00    +0.007 A 
ATOM     33  C   UNL     1       6.414   7.077   4.829  0.00  0.00    +0.008 A 
ATOM     34  C   UNL     1       5.926   8.082   4.016  0.00  0.00    +0.000 A 
ATOM     35  C   UNL     1       6.743   9.136   3.651  0.00  0.00    +0.003 A 
ATOM     36  C   UNL     1       8.049   9.186   4.100  0.00  0.00    +0.039 A 
ATOM     37  C   UNL     1       8.538   8.182   4.919  0.00  0.00    +0.128 A 
ATOM     38  F   UNL     1       9.813   8.232   5.363  0.00  0.00    -0.205 F 
ENDBRANCH  31  32
ENDBRANCH  14  31
TORSDOF 8
