REMARK  Name = ZINC01009628
REMARK  7 active torsions:
REMARK  status: ('A' for Active; 'I' for Inactive)
REMARK    1  A    between atoms: C_1  and  C_2
REMARK    2  A    between atoms: C_2  and  O_3
REMARK    3  A    between atoms: O_3  and  C_4
REMARK    4  A    between atoms: C_4  and  C_6
REMARK    5  A    between atoms: C_8  and  C_20
REMARK    6  A    between atoms: C_14  and  C_15
REMARK    7  A    between atoms: C_14  and  O_19
REMARK                            x       y       z     vdW  Elec       q    Type
REMARK                         _______ _______ _______ _____ _____    ______ ____
ROOT
ATOM      1  C   UNL     1      -0.219   1.871   0.092  0.00  0.00    +0.181 C 
ATOM      2  C   UNL     1      -0.753   2.221  -1.301  0.00  0.00    +0.125 C 
ATOM      3  N   UNL     1      -0.554   3.651  -1.546  0.00  0.00    -0.292 N 
ATOM      4  C   UNL     1       0.459   4.322  -0.977  0.00  0.00    +0.302 C 
ATOM      5  O   UNL     1       0.585   5.506  -1.222  0.00  0.00    -0.253 OA
ATOM      6  N   UNL     1       1.336   3.739  -0.147  0.00  0.00    -0.264 N 
ATOM      7  C   UNL     1       1.246   2.314   0.179  0.00  0.00    +0.246 C 
ATOM      8  H   UNL     1      -1.166   4.122  -2.132  0.00  0.00    +0.151 HD
ATOM      9  H   UNL     1       2.046   4.271   0.245  0.00  0.00    +0.153 HD
ENDROOT
BRANCH   2  10
ATOM     10  C   UNL     1      -2.223   1.898  -1.373  0.00  0.00    -0.007 A 
ATOM     11  C   UNL     1      -3.158   2.848  -1.005  0.00  0.00    +0.007 A 
ATOM     12  C   UNL     1      -4.507   2.552  -1.071  0.00  0.00    +0.002 A 
ATOM     13  C   UNL     1      -4.922   1.307  -1.504  0.00  0.00    +0.021 A 
ATOM     14  C   UNL     1      -3.988   0.356  -1.872  0.00  0.00    +0.060 A 
ATOM     15  C   UNL     1      -2.637   0.654  -1.813  0.00  0.00    +0.064 A 
ATOM     16 CL   UNL     1      -1.463  -0.536  -2.282  0.00  0.00    -0.082 Cl
ATOM     17 CL   UNL     1      -4.509  -1.208  -2.416  0.00  0.00    -0.082 Cl
ENDBRANCH   2  10
BRANCH   7  18
ATOM     18  C   UNL     1       1.768   2.079   1.597  0.00  0.00    +0.436 C 
ATOM     19  F   UNL     1       1.795   0.705   1.862  0.00  0.00    -0.166 F 
ATOM     20  F   UNL     1       0.925   2.714   2.516  0.00  0.00    -0.166 F 
ATOM     21  F   UNL     1       3.060   2.601   1.711  0.00  0.00    -0.166 F 
ENDBRANCH   7  18
BRANCH   1  22
ATOM     22  C   UNL     1      -0.311   0.383   0.309  0.00  0.00    +0.317 C 
ATOM     23  O   UNL     1       0.549  -0.346  -0.126  0.00  0.00    -0.250 OA
BRANCH  22  24
ATOM     24  O   UNL     1      -1.348  -0.133   0.988  0.00  0.00    -0.465 OA
BRANCH  24  26
ATOM     25  C   UNL     1      -2.618  -1.974   1.951  0.00  0.00    +0.048 C 
ATOM     26  C   UNL     1      -1.371  -1.575   1.159  0.00  0.00    +0.229 C 
ENDBRANCH  24  26
ENDBRANCH  22  24
ENDBRANCH   1  22
BRANCH   7  27
ATOM     27  O   UNL     1       2.028   1.561  -0.750  0.00  0.00    -0.364 OA
ATOM     28  H   UNL     1       2.968   1.790  -0.749  0.00  0.00    +0.212 HD
ENDBRANCH   7  27
TORSDOF 6
