REMARK  Name = ZINC09453607
REMARK  5 active torsions:
REMARK  status: ('A' for Active; 'I' for Inactive)
REMARK    1  A    between atoms: C_1  and  S_2
REMARK    2  A    between atoms: S_2  and  C_3
REMARK    3  A    between atoms: C_9  and  C_23
REMARK    4  A    between atoms: C_11  and  C_12
REMARK    5  A    between atoms: C_12  and  C_13
REMARK                            x       y       z     vdW  Elec       q    Type
REMARK                         _______ _______ _______ _____ _____    ______ ____
ROOT
ATOM      1  C   UNL     1       1.165  -0.360  -1.282  0.00  0.00    +0.160 A 
ATOM      2  N   UNL     1       1.587   0.421  -2.266  0.00  0.00    -0.133 NA
ATOM      3  N   UNL     1       2.087  -0.050  -3.323  0.00  0.00    -0.125 NA
ATOM      4  C   UNL     1       2.221  -1.353  -3.516  0.00  0.00    +0.192 A 
ATOM      5  S   UNL     1       1.546  -1.966  -1.975  0.00  0.00    -0.024 S 
ATOM      6  N   UNL     1       2.741  -2.047  -4.602  0.00  0.00    -0.230 N 
ATOM      7  C   UNL     1       3.287  -1.450  -5.827  0.00  0.00    +0.154 C 
ATOM      8  C   UNL     1       3.724  -2.606  -6.698  0.00  0.00    +0.077 C 
ATOM      9  C   UNL     1       3.443  -3.739  -6.012  0.00  0.00    +0.250 C 
ATOM     10  O   UNL     1       3.683  -4.998  -6.448  0.00  0.00    -0.282 OA
ATOM     11  C   UNL     1       2.840  -3.384  -4.714  0.00  0.00    +0.293 C 
ATOM     12  O   UNL     1       2.482  -4.183  -3.870  0.00  0.00    -0.266 OA
ENDROOT
BRANCH   7  13
ATOM     13  C   UNL     1       2.225  -0.645  -6.529  0.00  0.00    +0.013 A 
ATOM     14  C   UNL     1       0.890  -0.962  -6.358  0.00  0.00    +0.008 A 
ATOM     15  C   UNL     1      -0.084  -0.223  -7.002  0.00  0.00    +0.001 A 
ATOM     16  C   UNL     1       0.274   0.835  -7.817  0.00  0.00    +0.003 A 
ATOM     17  C   UNL     1       1.607   1.154  -7.989  0.00  0.00    +0.039 A 
ATOM     18  C   UNL     1       2.584   0.417  -7.341  0.00  0.00    +0.129 A 
ATOM     19  F   UNL     1       3.888   0.732  -7.504  0.00  0.00    -0.205 F 
ENDBRANCH   7  13
BRANCH   1  21
ATOM     20  C   UNL     1       0.379   1.875   0.245  0.00  0.00    +0.092 C 
ATOM     21  S   UNL     1       0.442   0.063   0.269  0.00  0.00    -0.100 S 
ENDBRANCH   1  21
BRANCH   8  22
ATOM     22  C   UNL     1       4.334  -2.516  -8.029  0.00  0.00    +0.202 C 
ATOM     23  O   UNL     1       3.732  -2.930  -9.004  0.00  0.00    -0.286 OA
BRANCH  22  24
ATOM     24  C   UNL     1       5.668  -1.929  -8.185  0.00  0.00    +0.059 A 
ATOM     25  C   UNL     1       6.375  -1.661  -9.350  0.00  0.00    +0.019 A 
ATOM     26  C   UNL     1       7.617  -1.102  -9.177  0.00  0.00    +0.008 A 
ATOM     27  C   UNL     1       8.061  -0.855  -7.918  0.00  0.00    +0.046 A 
ATOM     28  S   UNL     1       6.802  -1.366  -6.930  0.00  0.00    -0.093 S 
ENDBRANCH  22  24
ENDBRANCH   8  22
TORSDOF 4
