REMARK  Name = ZINC52094500
REMARK  5 active torsions:
REMARK  status: ('A' for Active; 'I' for Inactive)
REMARK    1  A    between atoms: C_1  and  N_2
REMARK    2  A    between atoms: N_2  and  C_3
REMARK    3  A    between atoms: C_3  and  C_5
REMARK    4  A    between atoms: C_3  and  C_10
REMARK    5  A    between atoms: C_5  and  C_6
REMARK                            x       y       z     vdW  Elec       q    Type
REMARK                         _______ _______ _______ _____ _____    ______ ____
ROOT
ATOM      1  C   UNL     1      -2.286  -0.069  -1.175  0.00  0.00    -0.045 A 
ATOM      2  C   UNL     1      -1.510   0.470  -2.182  0.00  0.00    +0.031 A 
ATOM      3  C   UNL     1      -2.107   0.905  -3.355  0.00  0.00    +0.067 A 
ATOM      4  C   UNL     1      -3.490   0.796  -3.514  0.00  0.00    +0.068 A 
ATOM      5  C   UNL     1      -4.262   0.253  -2.498  0.00  0.00    +0.043 A 
ATOM      6  C   UNL     1      -3.657  -0.183  -1.334  0.00  0.00    +0.022 A 
ATOM      7 BR   UNL     1      -4.707  -0.931   0.049  0.00  0.00    -0.050 Br
ATOM      8  N   UNL     1      -3.792   1.306  -4.774  0.00  0.00    -0.306 N 
ATOM      9  H   UNL     1      -4.678   1.363  -5.167  0.00  0.00    +0.170 HD
ATOM     10  C   UNL     1      -2.646   1.708  -5.355  0.00  0.00    +0.325 A 
ATOM     11  O   UNL     1      -2.558   2.203  -6.463  0.00  0.00    -0.247 OA
ATOM     12  N   UNL     1      -1.612   1.479  -4.524  0.00  0.00    -0.306 N 
ATOM     13  H   UNL     1      -0.681   1.680  -4.708  0.00  0.00    +0.170 HD
ENDROOT
BRANCH   1  14
ATOM     14  C   UNL     1      -1.638  -0.542   0.101  0.00  0.00    -0.032 C 
BRANCH  14  16
ATOM     15  C   UNL     1      -0.656   1.610   0.504  0.00  0.00    -0.100 C 
ATOM     16  N   UNL     1      -0.376   0.182   0.305  0.00  0.00    +0.382 N 
ATOM     17  H   UNL     1       0.214   0.064  -0.504  0.00  0.00    -0.085 HD
ATOM     18  H   UNL     1       0.094  -0.185   1.120  0.00  0.00    -0.085 HD
ENDBRANCH  14  16
BRANCH  14  19
ATOM     19  C   UNL     1      -1.355  -2.042   0.004  0.00  0.00    +0.102 C 
BRANCH  19  20
ATOM     20  C   UNL     1      -0.842  -2.553   1.352  0.00  0.00    +0.389 C 
ATOM     21  F   UNL     1      -1.747  -2.200   2.359  0.00  0.00    -0.171 F 
ATOM     22  F   UNL     1      -0.715  -3.945   1.306  0.00  0.00    -0.171 F 
ATOM     23  F   UNL     1       0.405  -1.980   1.624  0.00  0.00    -0.171 F 
ENDBRANCH  19  20
ENDBRANCH  14  19
ENDBRANCH   1  14
TORSDOF 4
