REMARK  Name = ZINC45741441
REMARK  5 active torsions:
REMARK  status: ('A' for Active; 'I' for Inactive)
REMARK    1  A    between atoms: C_1  and  C_2
REMARK    2  A    between atoms: C_3  and  N_22
REMARK    3  A    between atoms: C_5  and  S_9
REMARK    4  A    between atoms: S_9  and  N_12
REMARK    5  A    between atoms: N_12  and  C_13
REMARK                            x       y       z     vdW  Elec       q    Type
REMARK                         _______ _______ _______ _____ _____    ______ ____
ROOT
ATOM      1  S   UNL     1       0.158  -4.753   0.058  0.00  0.00    +0.059 S 
ATOM      2  O   UNL     1      -0.166  -5.380   1.291  0.00  0.00    -0.153 OA
ATOM      3  O   UNL     1      -0.450  -5.128  -1.170  0.00  0.00    -0.153 OA
ENDROOT
BRANCH   1   8
ATOM      4  C   UNL     1      -0.923   1.139   0.786  0.00  0.00    +0.047 C 
ATOM      5  C   UNL     1      -0.653  -0.332   0.605  0.00  0.00    -0.002 A 
ATOM      6  C   UNL     1      -0.665  -0.886  -0.662  0.00  0.00    +0.132 A 
ATOM      7  C   UNL     1      -0.417  -2.236  -0.828  0.00  0.00    +0.061 A 
ATOM      8  C   UNL     1      -0.157  -3.032   0.271  0.00  0.00    +0.109 A 
ATOM      9  C   UNL     1      -0.144  -2.479   1.538  0.00  0.00    +0.049 A 
ATOM     10  C   UNL     1      -0.387  -1.127   1.705  0.00  0.00    +0.048 A 
ATOM     11 CL   UNL     1      -0.364  -0.430   3.295  0.00  0.00    -0.083 Cl
BRANCH   6  12
ATOM     12  N   UNL     1      -0.944  -0.034  -1.840  0.00  0.00    +0.057 N 
ATOM     13  O   UNL     1      -1.601  -0.467  -2.757  0.00  0.00    -0.126 OA
ATOM     14  O   UNL     1      -0.513   1.095  -1.884  0.00  0.00    -0.126 OA
ENDBRANCH   6  12
ENDBRANCH   1   8
BRANCH   1  15
ATOM     15  N   UNL     1       1.791  -4.930  -0.149  0.00  0.00    -0.178 NA
ATOM     16  H   UNL     1       2.141  -5.255  -0.993  0.00  0.00    +0.149 HD
BRANCH  15  17
ATOM     17  C   UNL     1       2.709  -4.594   0.944  0.00  0.00    +0.162 C 
ATOM     18  C   UNL     1       4.050  -4.136   0.366  0.00  0.00    +0.030 C 
ATOM     19  C   UNL     1       4.377  -4.898  -0.905  0.00  0.00    +0.004 C 
ATOM     20  C   UNL     1       4.642  -6.376  -0.682  0.00  0.00    +0.019 C 
ATOM     21  C   UNL     1       3.370  -7.096  -0.230  0.00  0.00    +0.104 C 
ATOM     22  N   UNL     1       3.261  -6.985   1.233  0.00  0.00    -0.314 N 
ATOM     23  C   UNL     1       2.944  -5.818   1.804  0.00  0.00    +0.232 C 
ATOM     24  O   UNL     1       2.851  -5.736   3.010  0.00  0.00    -0.274 OA
ATOM     25  H   UNL     1       3.417  -7.765   1.789  0.00  0.00    +0.149 HD
ENDBRANCH  15  17
ENDBRANCH   1  15
TORSDOF 4
