REMARK  Name = ZINC39666333
REMARK  7 active torsions:
REMARK  status: ('A' for Active; 'I' for Inactive)
REMARK    1  A    between atoms: C_1  and  C_2
REMARK    2  A    between atoms: C_2  and  C_4
REMARK    3  A    between atoms: C_2  and  O_22
REMARK    4  A    between atoms: C_4  and  N_5
REMARK    5  A    between atoms: C_6  and  C_8
REMARK    6  A    between atoms: C_19  and  C_21
REMARK    7  A    between atoms: O_22  and  C_23
REMARK                            x       y       z     vdW  Elec       q    Type
REMARK                         _______ _______ _______ _____ _____    ______ ____
ROOT
ATOM      1  N   UNL     1      -2.413  -2.083   1.290  0.00  0.00    -0.312 N 
ATOM      2  C   UNL     1      -2.147  -2.846   0.212  0.00  0.00    +0.218 C 
ATOM      3  O   UNL     1      -2.111  -2.345  -0.892  0.00  0.00    -0.275 OA
ATOM      4  H   UNL     1      -2.441  -2.485   2.173  0.00  0.00    +0.149 HD
ENDROOT
BRANCH   2   5
ATOM      5  C   UNL     1      -1.894  -4.323   0.377  0.00  0.00    +0.100 C 
ATOM      6  C   UNL     1      -0.990  -4.845  -0.762  0.00  0.00    +0.121 C 
ATOM      7  N   UNL     1      -1.520  -6.193  -1.073  0.00  0.00    -0.300 N 
ATOM      8  C   UNL     1      -2.992  -6.042  -0.979  0.00  0.00    +0.115 C 
ATOM      9  C   UNL     1      -3.207  -5.110   0.231  0.00  0.00    -0.004 C 
ATOM     10  C   UNL     1      -3.474  -5.932   1.488  0.00  0.00    -0.010 C 
ATOM     11  C   UNL     1      -4.812  -6.661   1.342  0.00  0.00    -0.082 C 
ATOM     12  N   UNL     1      -5.886  -5.681   1.137  0.00  0.00    +0.379 N 
ATOM     13  C   UNL     1      -5.671  -4.959  -0.122  0.00  0.00    -0.082 C 
ATOM     14  C   UNL     1      -4.368  -4.158  -0.038  0.00  0.00    -0.010 C 
ATOM     15  C   UNL     1      -0.822  -7.306  -1.374  0.00  0.00    +0.212 C 
ATOM     16  O   UNL     1      -1.405  -8.344  -1.607  0.00  0.00    -0.276 OA
ATOM     17  C   UNL     1       0.684  -7.262  -1.420  0.00  0.00    +0.109 C 
ATOM     18  H   UNL     1      -6.773  -6.159   1.102  0.00  0.00    -0.086 HD
ATOM     19  H   UNL     1      -5.890  -5.025   1.903  0.00  0.00    -0.086 HD
ENDBRANCH   2   5
BRANCH   1  20
ATOM     20  C   UNL     1      -2.658  -0.648   1.130  0.00  0.00    +0.148 C 
BRANCH  20  22
ATOM     21  C   UNL     1      -3.311   1.450   2.318  0.00  0.00    +0.053 C 
ATOM     22  C   UNL     1      -2.932  -0.021   2.498  0.00  0.00    +0.187 C 
BRANCH  22  23
ATOM     23  O   UNL     1      -1.760  -0.116   3.309  0.00  0.00    -0.486 OA
BRANCH  23  24
ATOM     24  C   UNL     1      -1.938  -0.092   4.656  0.00  0.00    +0.139 A 
ATOM     25  C   UNL     1      -3.199   0.134   5.187  0.00  0.00    +0.047 A 
ATOM     26  C   UNL     1      -3.378   0.156   6.556  0.00  0.00    +0.004 A 
ATOM     27  C   UNL     1      -2.300  -0.045   7.399  0.00  0.00    +0.002 A 
ATOM     28  C   UNL     1      -1.041  -0.271   6.874  0.00  0.00    +0.023 A 
ATOM     29  C   UNL     1      -0.858  -0.300   5.504  0.00  0.00    +0.083 A 
ATOM     30 CL   UNL     1       0.721  -0.590   4.845  0.00  0.00    -0.080 Cl
ENDBRANCH  23  24
ENDBRANCH  22  23
ENDBRANCH  20  22
ENDBRANCH   1  20
TORSDOF 5
