REMARK  Name = ZINC35730284
REMARK  14 active torsions:
REMARK  status: ('A' for Active; 'I' for Inactive)
REMARK    1  A    between atoms: C_1  and  C_2
REMARK    2  A    between atoms: C_9  and  C_11
REMARK    3  A    between atoms: C_11  and  C_12
REMARK    4  A    between atoms: C_12  and  C_13
REMARK    5  A    between atoms: C_18  and  C_20
REMARK    6  A    between atoms: C_20  and  C_22
REMARK    7  A    between atoms: C_20  and  N_33
REMARK    8  A    between atoms: C_22  and  C_23
REMARK    9  A    between atoms: C_34  and  C_36
REMARK   10  A    between atoms: C_36  and  C_37
REMARK   11  A    between atoms: C_37  and  C_38
REMARK   12  A    between atoms: C_38  and  C_39
REMARK   13  A    between atoms: C_39  and  C_40
REMARK   14  A    between atoms: C_40  and  N_41
REMARK                            x       y       z     vdW  Elec       q    Type
REMARK                         _______ _______ _______ _____ _____    ______ ____
ROOT
ATOM      1  C   UNL     1       0.568  -4.325  -1.915  0.00  0.00    +0.163 C 
ENDROOT
BRANCH   1  11
ATOM      2  C   UNL     1      -0.313   1.428   0.057  0.00  0.00    +0.029 C 
ATOM      3  C   UNL     1      -0.268  -0.100   0.008  0.00  0.00    +0.090 C 
ATOM      4  C   UNL     1       0.534  -0.554  -1.218  0.00  0.00    +0.130 C 
ATOM      5  N   UNL     1       0.787  -1.997  -1.106  0.00  0.00    -0.297 N 
ATOM      6  C   UNL     1       1.447  -2.510   0.102  0.00  0.00    +0.127 C 
ATOM      7  C   UNL     1       0.644  -2.056   1.329  0.00  0.00    +0.127 C 
ATOM      8  N   UNL     1       0.388  -0.613   1.219  0.00  0.00    -0.296 N 
ATOM      9  C   UNL     1       0.753   0.226   2.209  0.00  0.00    +0.216 C 
ATOM     10  O   UNL     1       0.454   1.399   2.151  0.00  0.00    -0.276 OA
ATOM     11  C   UNL     1       0.420  -2.836  -2.095  0.00  0.00    +0.236 C 
ATOM     12  O   UNL     1      -0.030  -2.393  -3.131  0.00  0.00    -0.274 OA
BRANCH   9  13
ATOM     13  C   UNL     1       1.534  -0.295   3.388  0.00  0.00    +0.096 C 
BRANCH  13  14
ATOM     14  C   UNL     1       1.818   0.853   4.359  0.00  0.00    +0.013 C 
BRANCH  14  15
ATOM     15  C   UNL     1       2.610   0.325   5.556  0.00  0.00    -0.011 C 
ATOM     16  C   UNL     1       1.729  -0.621   6.398  0.00  0.00    +0.003 C 
ATOM     17  C   UNL     1       2.140  -0.323   7.861  0.00  0.00    +0.000 C 
ATOM     18  C   UNL     1       2.358   1.210   7.849  0.00  0.00    +0.000 C 
ATOM     19  C   UNL     1       3.011   1.489   6.479  0.00  0.00    +0.003 C 
ENDBRANCH  14  15
ENDBRANCH  13  14
ENDBRANCH   9  13
ENDBRANCH   1  11
BRANCH   1  20
ATOM     20  N   UNL     1      -0.203  -5.021  -2.948  0.00  0.00    -0.304 N 
ATOM     21  C   UNL     1      -0.645  -6.275  -2.728  0.00  0.00    +0.214 C 
ATOM     22  O   UNL     1      -0.404  -6.827  -1.676  0.00  0.00    -0.276 OA
ATOM     23  H   UNL     1      -0.395  -4.580  -3.790  0.00  0.00    +0.149 HD
BRANCH  21  24
ATOM     24  C   UNL     1      -1.437  -6.992  -3.791  0.00  0.00    +0.096 C 
BRANCH  24  25
ATOM     25  C   UNL     1      -1.813  -8.388  -3.292  0.00  0.00    +0.009 C 
BRANCH  25  26
ATOM     26  C   UNL     1      -2.618  -9.116  -4.371  0.00  0.00    -0.001 C 
BRANCH  26  27
ATOM     27  C   UNL     1      -2.994 -10.512  -3.872  0.00  0.00    -0.020 C 
BRANCH  27  28
ATOM     28  C   UNL     1      -3.799 -11.240  -4.951  0.00  0.00    -0.086 C 
BRANCH  28  29
ATOM     29  N   UNL     1      -4.160 -12.581  -4.472  0.00  0.00    +0.378 N 
ATOM     30  H   UNL     1      -3.321 -13.103  -4.270  0.00  0.00    -0.090 HD
ATOM     31  H   UNL     1      -4.717 -12.500  -3.635  0.00  0.00    -0.090 HD
ATOM     32  H   UNL     1      -4.691 -13.060  -5.184  0.00  0.00    -0.090 HD
ENDBRANCH  28  29
ENDBRANCH  27  28
ENDBRANCH  26  27
ENDBRANCH  25  26
ENDBRANCH  24  25
ENDBRANCH  21  24
ENDBRANCH   1  20
BRANCH   1  33
ATOM     33  C   UNL     1       2.044  -4.708  -2.034  0.00  0.00    +0.069 C 
BRANCH  33  34
ATOM     34  C   UNL     1       2.199  -6.188  -1.796  0.00  0.00    -0.020 A 
ATOM     35  C   UNL     1       2.501  -6.782  -0.630  0.00  0.00    +0.087 A 
ATOM     36  N   UNL     1       2.557  -8.139  -0.799  0.00  0.00    -0.360 N 
ATOM     37  H   UNL     1       2.757  -8.780  -0.099  0.00  0.00    +0.165 HD
ATOM     38  C   UNL     1       2.285  -8.460  -2.110  0.00  0.00    +0.047 A 
ATOM     39  C   UNL     1       2.043  -7.252  -2.791  0.00  0.00    +0.003 A 
ATOM     40  C   UNL     1       1.732  -7.270  -4.151  0.00  0.00    +0.010 A 
ATOM     41  C   UNL     1       1.661  -8.462  -4.816  0.00  0.00    +0.001 A 
ATOM     42  C   UNL     1       1.895  -9.656  -4.148  0.00  0.00    +0.002 A 
ATOM     43  C   UNL     1       2.212  -9.661  -2.807  0.00  0.00    +0.026 A 
ENDBRANCH  33  34
ENDBRANCH   1  33
TORSDOF 13
