REMARK  Name = ZINC02291307
REMARK  2 active torsions:
REMARK  status: ('A' for Active; 'I' for Inactive)
REMARK    1  A    between atoms: C_4  and  C_7
REMARK    2  A    between atoms: C_9  and  C_20
REMARK                            x       y       z     vdW  Elec       q    Type
REMARK                         _______ _______ _______ _____ _____    ______ ____
ROOT
ATOM      1  C   UNL     1       3.697  -0.686  -0.038  0.00  0.00    +0.134 C 
ATOM      2  C   UNL     1       3.687  -2.010  -0.051  0.00  0.00    +0.033 C 
ATOM      3  C   UNL     1       4.960  -2.810  -0.068  0.00  0.00    +0.086 C 
ATOM      4  C   UNL     1       6.115  -1.934  -0.466  0.00  0.00    +0.090 A 
ATOM      5  C   UNL     1       7.297  -2.492  -0.867  0.00  0.00    +0.262 A 
ATOM      6  N   UNL     1       8.329  -1.671  -1.223  0.00  0.00    -0.273 N 
ATOM      7  C   UNL     1       8.175  -0.335  -1.177  0.00  0.00    +0.352 A 
ATOM      8  N   UNL     1       7.027   0.214  -0.788  0.00  0.00    -0.157 NA
ATOM      9  C   UNL     1       5.995  -0.542  -0.432  0.00  0.00    +0.234 A 
ATOM     10  O   UNL     1       4.840   0.034  -0.046  0.00  0.00    -0.437 OA
ATOM     11  O   UNL     1       9.105   0.387  -1.498  0.00  0.00    -0.245 OA
ATOM     12  O   UNL     1       7.442  -3.834  -0.909  0.00  0.00    -0.267 OA
ATOM     13  H   UNL     1       9.174  -2.051  -1.509  0.00  0.00    +0.173 HD
ENDROOT
BRANCH   3  14
ATOM     14  C   UNL     1       5.214  -3.374   1.307  0.00  0.00    -0.036 A 
ATOM     15  C   UNL     1       5.362  -2.523   2.386  0.00  0.00    +0.006 A 
ATOM     16  C   UNL     1       5.595  -3.039   3.647  0.00  0.00    +0.020 A 
ATOM     17  C   UNL     1       5.681  -4.408   3.828  0.00  0.00    +0.041 A 
ATOM     18  C   UNL     1       5.533  -5.259   2.748  0.00  0.00    +0.020 A 
ATOM     19  C   UNL     1       5.294  -4.742   1.488  0.00  0.00    +0.006 A 
ATOM     20 CL   UNL     1       5.974  -5.057   5.411  0.00  0.00    -0.084 Cl
ENDBRANCH   3  14
BRANCH   1  24
ATOM     21  C   UNL     1      -0.017   1.379   0.010  0.00  0.00    +0.000 A 
ATOM     22  C   UNL     1       1.169   2.093   0.002  0.00  0.00    +0.001 A 
ATOM     23  C   UNL     1       2.377   1.428  -0.013  0.00  0.00    +0.011 A 
ATOM     24  C   UNL     1       2.403   0.033  -0.021  0.00  0.00    +0.017 A 
ATOM     25  C   UNL     1       1.205  -0.680  -0.013  0.00  0.00    +0.011 A 
ATOM     26  C   UNL     1       0.002  -0.004   0.002  0.00  0.00    +0.001 A 
ENDBRANCH   1  24
TORSDOF 2
