REMARK  Name = ZINC36005188
REMARK  14 active torsions:
REMARK  status: ('A' for Active; 'I' for Inactive)
REMARK    1  A    between atoms: C_1  and  C_2
REMARK    2  A    between atoms: C_2  and  O_3
REMARK    3  A    between atoms: O_3  and  C_4
REMARK    4  A    between atoms: C_4  and  C_6
REMARK    5  A    between atoms: C_7  and  C_25
REMARK    6  A    between atoms: N_8  and  C_24
REMARK    7  A    between atoms: C_12  and  C_14
REMARK    8  A    between atoms: C_17  and  C_20
REMARK    9  A    between atoms: C_20  and  C_21
REMARK   10  A    between atoms: C_20  and  C_22
REMARK   11  A    between atoms: C_20  and  C_23
REMARK   12  A    between atoms: C_25  and  N_26
REMARK   13  A    between atoms: C_32  and  C_34
REMARK   14  A    between atoms: C_37  and  C_40
REMARK                            x       y       z     vdW  Elec       q    Type
REMARK                         _______ _______ _______ _____ _____    ______ ____
ROOT
ATOM      1  C   UNL     1      -1.939  -2.120  -0.013  0.00  0.00    +0.080 C 
ATOM      2  C   UNL     1      -2.279  -3.408  -0.230  0.00  0.00    +0.041 C 
ATOM      3  N   UNL     1      -3.585  -3.774  -0.394  0.00  0.00    -0.260 N 
ATOM      4  C   UNL     1      -4.608  -2.912  -0.354  0.00  0.00    +0.307 C 
ATOM      5  O   UNL     1      -5.738  -3.332  -0.511  0.00  0.00    -0.252 OA
ATOM      6  N   UNL     1      -4.427  -1.593  -0.145  0.00  0.00    -0.288 N 
ATOM      7  C   UNL     1      -3.054  -1.096   0.050  0.00  0.00    +0.144 C 
ATOM      8  C   UNL     1      -3.882  -5.189  -0.627  0.00  0.00    +0.139 C 
ATOM      9  H   UNL     1      -5.183  -0.985  -0.121  0.00  0.00    +0.151 HD
ENDROOT
BRANCH   7  10
ATOM     10  C   UNL     1      -2.987  -0.417   1.393  0.00  0.00    -0.022 A 
ATOM     11  C   UNL     1      -3.511  -1.041   2.510  0.00  0.00    +0.006 A 
ATOM     12  C   UNL     1      -3.449  -0.417   3.742  0.00  0.00    +0.004 A 
ATOM     13  C   UNL     1      -2.864   0.829   3.858  0.00  0.00    -0.042 A 
ATOM     14  C   UNL     1      -2.339   1.453   2.741  0.00  0.00    +0.004 A 
ATOM     15  C   UNL     1      -2.397   0.828   1.510  0.00  0.00    +0.006 A 
BRANCH  13  16
ATOM     16  C   UNL     1      -2.797   1.509   5.201  0.00  0.00    -0.013 C 
ATOM     17  C   UNL     1      -2.004   0.636   6.176  0.00  0.00    +0.015 C 
ATOM     18  C   UNL     1      -2.106   2.866   5.053  0.00  0.00    +0.015 C 
ATOM     19  C   UNL     1      -4.215   1.715   5.739  0.00  0.00    +0.015 C 
ENDBRANCH  13  16
ENDBRANCH   7  10
BRANCH   1  20
ATOM     20  C   UNL     1      -0.587  -1.740   0.158  0.00  0.00    +0.339 C 
ATOM     21  O   UNL     1      -0.163  -1.480   1.268  0.00  0.00    -0.245 OA
BRANCH  20  22
ATOM     22  O   UNL     1       0.233  -1.664  -0.912  0.00  0.00    -0.462 OA
BRANCH  22  24
ATOM     23  C   UNL     1       2.356  -1.245  -1.988  0.00  0.00    +0.048 C 
ATOM     24  C   UNL     1       1.585  -1.274  -0.666  0.00  0.00    +0.229 C 
ENDBRANCH  22  24
ENDBRANCH  20  22
ENDBRANCH   1  20
BRANCH   2  25
ATOM     25  C   UNL     1      -1.201  -4.459  -0.294  0.00  0.00    +0.136 C 
BRANCH  25  26
ATOM     26  N   UNL     1      -1.359  -5.391   0.831  0.00  0.00    -0.294 NA
ATOM     27  C   UNL     1      -1.121  -4.713   2.112  0.00  0.00    +0.104 C 
ATOM     28  C   UNL     1      -1.469  -5.665   3.262  0.00  0.00    +0.123 C 
ATOM     29  N   UNL     1      -0.723  -6.919   3.073  0.00  0.00    -0.295 N 
ATOM     30  C   UNL     1      -0.803  -7.585   1.765  0.00  0.00    +0.123 C 
ATOM     31  C   UNL     1      -0.481  -6.558   0.674  0.00  0.00    +0.104 C 
ATOM     32  C   UNL     1       0.013  -7.442   4.073  0.00  0.00    +0.247 C 
ATOM     33  O   UNL     1       0.701  -8.424   3.871  0.00  0.00    -0.270 OA
BRANCH  32  34
ATOM     34  C   UNL     1      -0.015  -6.823   5.415  0.00  0.00    +0.037 A 
ATOM     35  C   UNL     1      -1.181  -6.214   5.881  0.00  0.00    +0.013 A 
ATOM     36  C   UNL     1      -1.201  -5.638   7.135  0.00  0.00    +0.004 A 
ATOM     37  C   UNL     1      -0.068  -5.663   7.929  0.00  0.00    -0.050 A 
ATOM     38  C   UNL     1       1.091  -6.265   7.472  0.00  0.00    +0.004 A 
ATOM     39  C   UNL     1       1.123  -6.850   6.223  0.00  0.00    +0.013 A 
ATOM     40  C   UNL     1      -0.097  -5.032   9.297  0.00  0.00    +0.044 C 
ENDBRANCH  32  34
ENDBRANCH  25  26
ENDBRANCH   2  25
TORSDOF 8
