REMARK  Name = ZINC14181078
REMARK  8 active torsions:
REMARK  status: ('A' for Active; 'I' for Inactive)
REMARK    1  A    between atoms: C_1  and  N_2
REMARK    2  A    between atoms: N_2  and  C_3
REMARK    3  A    between atoms: C_6  and  C_11
REMARK    4  A    between atoms: C_11  and  C_27
REMARK    5  A    between atoms: C_12  and  C_13
REMARK    6  A    between atoms: C_16  and  O_19
REMARK    7  A    between atoms: O_19  and  C_20
REMARK    8  A    between atoms: C_20  and  C_21
REMARK                            x       y       z     vdW  Elec       q    Type
REMARK                         _______ _______ _______ _____ _____    ______ ____
ROOT
ATOM      1  C   UNL     1      -8.441   5.503   4.790  0.00  0.00    +0.097 C 
ATOM      2  C   UNL     1      -8.262   5.770   3.464  0.00  0.00    +0.030 C 
ENDROOT
BRANCH   1   8
ATOM      3  C   UNL     1     -10.160   4.977   9.441  0.00  0.00    +0.132 C 
ATOM      4  N   UNL     1     -11.244   5.579   8.661  0.00  0.00    -0.306 N 
ATOM      5  C   UNL     1     -12.521   5.895   9.306  0.00  0.00    +0.132 C 
ATOM      6  C   UNL     1     -11.063   5.849   7.320  0.00  0.00    +0.222 A 
ATOM      7  N   UNL     1      -9.904   5.562   6.735  0.00  0.00    -0.194 NA
ATOM      8  C   UNL     1      -9.729   5.821   5.441  0.00  0.00    +0.177 A 
ATOM      9  N   UNL     1     -10.714   6.373   4.735  0.00  0.00    -0.194 NA
ATOM     10  C   UNL     1     -11.874   6.655   5.320  0.00  0.00    +0.217 A 
ATOM     11  N   UNL     1     -12.047   6.395   6.613  0.00  0.00    -0.181 NA
ATOM     12  N   UNL     1     -12.897   7.221   4.587  0.00  0.00    -0.327 N 
ATOM     13  H   UNL     1     -13.742   7.430   5.015  0.00  0.00    +0.145 HD
ATOM     14  H   UNL     1     -12.771   7.411   3.645  0.00  0.00    +0.145 HD
ENDBRANCH   1   8
BRANCH   2  15
ATOM     15  C   UNL     1      -7.044   5.320   2.784  0.00  0.00    -0.023 A 
ATOM     16  C   UNL     1      -6.533   6.050   1.702  0.00  0.00    +0.011 A 
ATOM     17  C   UNL     1      -5.389   5.623   1.067  0.00  0.00    +0.046 A 
ATOM     18  C   UNL     1      -4.741   4.471   1.496  0.00  0.00    +0.121 A 
ATOM     19  C   UNL     1      -5.247   3.739   2.566  0.00  0.00    +0.046 A 
ATOM     20  C   UNL     1      -6.386   4.159   3.212  0.00  0.00    +0.011 A 
BRANCH  18  21
ATOM     21  O   UNL     1      -3.613   4.055   0.866  0.00  0.00    -0.489 OA
BRANCH  21  22
ATOM     22  C   UNL     1      -2.997   2.863   1.358  0.00  0.00    +0.260 C 
BRANCH  22  23
ATOM     23  C   UNL     1      -1.749   2.554   0.529  0.00  0.00    +0.156 C 
ATOM     24  C   UNL     1      -1.048   1.271   1.051  0.00  0.00    +0.037 C 
ATOM     25  C   UNL     1      -0.284   0.788  -0.206  0.00  0.00    +0.031 C 
ATOM     26  C   UNL     1      -1.013   1.469  -1.380  0.00  0.00    +0.160 C 
ATOM     27  O   UNL     1      -2.110   2.215  -0.827  0.00  0.00    -0.373 OA
ENDBRANCH  22  23
ENDBRANCH  21  22
ENDBRANCH  18  21
ENDBRANCH   2  15
BRANCH   1  28
ATOM     28  C   UNL     1      -7.380   4.915   5.551  0.00  0.00    +0.103 C 
ATOM     29  N   UNL     1      -6.538   4.449   6.155  0.00  0.00    -0.191 NA
ENDBRANCH   1  28
TORSDOF 6
