REMARK  Name = ZINC03043819
REMARK  6 active torsions:
REMARK  status: ('A' for Active; 'I' for Inactive)
REMARK    1  A    between atoms: C_1  and  C_2
REMARK    2  A    between atoms: C_9  and  C_11
REMARK    3  A    between atoms: C_14  and  C_27
REMARK    4  A    between atoms: C_15  and  N_17
REMARK    5  A    between atoms: C_18  and  C_19
REMARK    6  A    between atoms: C_24  and  O_25
REMARK                            x       y       z     vdW  Elec       q    Type
REMARK                         _______ _______ _______ _____ _____    ______ ____
ROOT
ATOM      1  C   UNL     1       5.942   0.750  -0.341  0.00  0.00    +0.039 A 
ATOM      2  C   UNL     1       6.621  -0.442  -0.077  0.00  0.00    +0.013 A 
ATOM      3  C   UNL     1       7.978  -0.425   0.178  0.00  0.00    +0.006 A 
ATOM      4  C   UNL     1       8.671   0.769   0.185  0.00  0.00    -0.025 A 
ATOM      5  C   UNL     1       8.003   1.969  -0.071  0.00  0.00    +0.067 A 
ATOM      6  C   UNL     1       6.634   1.958  -0.335  0.00  0.00    +0.041 A 
ATOM      7  C   UNL     1      10.151   0.778   0.470  0.00  0.00    +0.046 C 
ENDROOT
BRANCH   1  16
ATOM      8  C   UNL     1       1.270  -2.203  -0.933  0.00  0.00    +0.046 C 
ATOM      9  C   UNL     1       1.279  -0.704  -1.090  0.00  0.00    -0.021 A 
ATOM     10  C   UNL     1       0.114  -0.033  -1.387  0.00  0.00    +0.005 A 
ATOM     11  C   UNL     1       0.115   1.346  -1.533  0.00  0.00    +0.004 A 
ATOM     12  C   UNL     1       1.284   2.065  -1.383  0.00  0.00    +0.048 A 
ATOM     13  C   UNL     1       2.466   1.407  -1.084  0.00  0.00    +0.156 A 
ATOM     14  C   UNL     1       2.470   0.010  -0.935  0.00  0.00    +0.113 A 
ATOM     15  N   UNL     1       3.747  -0.348  -0.649  0.00  0.00    -0.209 NA
ATOM     16  C   UNL     1       4.490   0.729  -0.620  0.00  0.00    +0.228 A 
ATOM     17  O   UNL     1       3.739   1.815  -0.881  0.00  0.00    -0.435 OA
ENDBRANCH   1  16
BRANCH   5  18
ATOM     18  N   UNL     1       8.691   3.152  -0.064  0.00  0.00    -0.255 NA
ATOM     19  C   UNL     1       8.222   4.175   0.594  0.00  0.00    +0.123 C 
BRANCH  19  20
ATOM     20  C   UNL     1       8.896   5.479   0.505  0.00  0.00    +0.036 A 
ATOM     21  C   UNL     1       8.392   6.581   1.204  0.00  0.00    +0.028 A 
ATOM     22  C   UNL     1       9.032   7.799   1.119  0.00  0.00    +0.019 A 
ATOM     23  C   UNL     1      10.167   7.939   0.336  0.00  0.00    +0.019 A 
ATOM     24  C   UNL     1      10.672   6.860  -0.364  0.00  0.00    +0.047 A 
ATOM     25  C   UNL     1      10.045   5.627  -0.287  0.00  0.00    +0.125 A 
ATOM     26 BR   UNL     1       8.355   9.286   2.071  0.00  0.00    -0.050 Br
BRANCH  25  27
ATOM     27  O   UNL     1      10.540   4.566  -0.974  0.00  0.00    -0.506 OA
ATOM     28  H   UNL     1      10.179   4.473  -1.866  0.00  0.00    +0.292 HD
ENDBRANCH  25  27
ENDBRANCH  19  20
ENDBRANCH   5  18
TORSDOF 4
