REMARK  Name = ZINC66190578
REMARK  9 active torsions:
REMARK  status: ('A' for Active; 'I' for Inactive)
REMARK    1  A    between atoms: C_1  and  C_2
REMARK    2  A    between atoms: C_5  and  C_8
REMARK    3  A    between atoms: C_8  and  C_10
REMARK    4  A    between atoms: C_8  and  N_27
REMARK    5  A    between atoms: C_10  and  N_11
REMARK    6  A    between atoms: C_17  and  N_20
REMARK    7  A    between atoms: C_21  and  C_23
REMARK    8  A    between atoms: N_27  and  C_28
REMARK    9  A    between atoms: N_27  and  C_29
REMARK                            x       y       z     vdW  Elec       q    Type
REMARK                         _______ _______ _______ _____ _____    ______ ____
ROOT
ATOM      1  N   UNL     1       1.250  -5.740   0.486  0.00  0.00    -0.300 N 
ATOM      2  C   UNL     1       2.446  -6.192   0.912  0.00  0.00    +0.302 C 
ATOM      3  O   UNL     1       3.399  -5.438   0.962  0.00  0.00    -0.253 OA
ATOM      4  N   UNL     1       2.586  -7.480   1.284  0.00  0.00    -0.286 N 
ATOM      5  C   UNL     1       3.850  -7.961   1.858  0.00  0.00    +0.111 C 
ATOM      6  C   UNL     1       3.555  -8.645   3.197  0.00  0.00    +0.041 C 
ATOM      7  C   UNL     1       2.505  -9.738   2.986  0.00  0.00    +0.076 C 
ATOM      8  C   UNL     1       1.209  -9.110   2.469  0.00  0.00    +0.041 C 
ATOM      9  C   UNL     1       1.476  -8.430   1.127  0.00  0.00    +0.111 C 
ATOM     10  H   UNL     1       0.509  -6.356   0.379  0.00  0.00    +0.150 HD
ENDROOT
BRANCH   7  11
ATOM     11  N   UNL     1       2.245 -10.416   4.258  0.00  0.00    -0.312 N 
ATOM     12  C   UNL     1       1.780 -11.681   4.264  0.00  0.00    +0.216 C 
ATOM     13  O   UNL     1       1.577 -12.258   3.217  0.00  0.00    -0.276 OA
ATOM     14  H   UNL     1       2.408  -9.955   5.096  0.00  0.00    +0.149 HD
BRANCH  12  15
ATOM     15  C   UNL     1       1.512 -12.379   5.573  0.00  0.00    +0.075 C 
ATOM     16  C   UNL     1       2.768 -12.996   6.210  0.00  0.00    +0.013 C 
ATOM     17  C   UNL     1       1.887 -14.197   6.595  0.00  0.00    +0.001 C 
ATOM     18  C   UNL     1       0.985 -13.814   5.409  0.00  0.00    +0.013 C 
ENDBRANCH  12  15
ENDBRANCH   7  11
BRANCH   1  19
ATOM     19  C   UNL     1       1.070  -4.318   0.183  0.00  0.00    +0.095 C 
BRANCH  19  20
ATOM     20  C   UNL     1      -0.397  -4.051  -0.159  0.00  0.00    -0.021 C 
BRANCH  20  25
ATOM     21  C   UNL     1      -1.813  -6.943  -4.958  0.00  0.00    +0.044 C 
ATOM     22  C   UNL     1      -1.444  -6.189  -3.706  0.00  0.00    -0.050 A 
ATOM     23  C   UNL     1      -1.788  -6.695  -2.467  0.00  0.00    +0.003 A 
ATOM     24  C   UNL     1      -1.449  -6.004  -1.319  0.00  0.00    +0.002 A 
ATOM     25  C   UNL     1      -0.765  -4.806  -1.411  0.00  0.00    -0.059 A 
ATOM     26  C   UNL     1      -0.420  -4.300  -2.650  0.00  0.00    +0.002 A 
ATOM     27  C   UNL     1      -0.755  -4.994  -3.797  0.00  0.00    +0.003 A 
ENDBRANCH  20  25
BRANCH  20  28
ATOM     28  N   UNL     1      -0.595  -2.612  -0.379  0.00  0.00    +0.382 N 
ATOM     29  C   UNL     1      -2.018  -2.345  -0.622  0.00  0.00    -0.096 C 
ATOM     30  C   UNL     1      -0.153  -1.870   0.809  0.00  0.00    -0.096 C 
ATOM     31  H   UNL     1      -0.056  -2.317  -1.179  0.00  0.00    -0.082 HD
ENDBRANCH  20  28
ENDBRANCH  19  20
ENDBRANCH   1  19
TORSDOF 6
