REMARK  Name = ZINC08632800
REMARK  11 active torsions:
REMARK  status: ('A' for Active; 'I' for Inactive)
REMARK    1  A    between atoms: C_1  and  C_2
REMARK    2  A    between atoms: C_4  and  C_15
REMARK    3  A    between atoms: C_5  and  C_14
REMARK    4  A    between atoms: N_6  and  C_7
REMARK    5  A    between atoms: C_7  and  C_8
REMARK    6  A    between atoms: C_15  and  C_17
REMARK    7  A    between atoms: C_17  and  O_18
REMARK    8  A    between atoms: O_18  and  C_19
REMARK    9  A    between atoms: C_19  and  C_21
REMARK   10  A    between atoms: C_21  and  N_22
REMARK   11  A    between atoms: C_29  and  N_33
REMARK                            x       y       z     vdW  Elec       q    Type
REMARK                         _______ _______ _______ _____ _____    ______ ____
ROOT
ATOM      1  O   UNL     1      -2.130   4.692   8.511  0.00  0.00    -0.455 OA
ENDROOT
BRANCH   1   2
ATOM      2  C   UNL     1      -3.026   5.020   9.454  0.00  0.00    +0.326 C 
ATOM      3  O   UNL     1      -4.128   4.524   9.439  0.00  0.00    -0.249 OA
BRANCH   2   4
ATOM      4  C   UNL     1      -2.659   6.006  10.533  0.00  0.00    +0.237 C 
BRANCH   4   5
ATOM      5  N   UNL     1      -3.799   6.194  11.432  0.00  0.00    -0.223 N 
ATOM      6  C   UNL     1      -4.026   5.460  12.537  0.00  0.00    +0.254 C 
ATOM      7  O   UNL     1      -3.329   4.550  12.939  0.00  0.00    -0.270 OA
ATOM      8  C   UNL     1      -5.266   5.945  13.178  0.00  0.00    +0.052 A 
ATOM      9  C   UNL     1      -5.974   5.583  14.313  0.00  0.00    +0.014 A 
ATOM     10  C   UNL     1      -7.136   6.264  14.645  0.00  0.00    +0.003 A 
ATOM     11  C   UNL     1      -7.591   7.300  13.851  0.00  0.00    +0.033 A 
ATOM     12  C   UNL     1      -6.893   7.673  12.713  0.00  0.00    +0.139 A 
ATOM     13  C   UNL     1      -5.731   7.002  12.370  0.00  0.00    +0.080 A 
ATOM     14  C   UNL     1      -4.755   7.126  11.267  0.00  0.00    +0.257 C 
ATOM     15  O   UNL     1      -4.808   7.934  10.361  0.00  0.00    -0.269 OA
BRANCH  12  16
ATOM     16  N   UNL     1      -7.387   8.784  11.869  0.00  0.00    +0.057 N 
ATOM     17  O   UNL     1      -8.409   9.373  12.174  0.00  0.00    -0.126 OA
ATOM     18  O   UNL     1      -6.772   9.110  10.870  0.00  0.00    -0.126 OA
ENDBRANCH  12  16
ENDBRANCH   4   5
ENDBRANCH   2   4
ENDBRANCH   1   2
BRANCH   1  19
ATOM     19  C   UNL     1      -2.553   3.736   7.503  0.00  0.00    +0.311 C 
BRANCH  19  20
ATOM     20  C   UNL     1      -1.423   3.492   6.536  0.00  0.00    +0.202 C 
ATOM     21  O   UNL     1      -0.365   4.068   6.681  0.00  0.00    -0.288 OA
BRANCH  20  25
ATOM     22  C   UNL     1      -3.456   0.121   3.301  0.00  0.00    +0.063 C 
ATOM     23  C   UNL     1      -2.517   1.070   4.000  0.00  0.00    +0.017 A 
ATOM     24  C   UNL     1      -2.808   1.784   5.100  0.00  0.00    +0.034 A 
ATOM     25  C   UNL     1      -1.602   2.560   5.421  0.00  0.00    +0.042 A 
ATOM     26  C   UNL     1      -0.670   2.225   4.457  0.00  0.00    +0.027 A 
ATOM     27  N   UNL     1      -1.235   1.341   3.616  0.00  0.00    -0.345 N 
ATOM     28  C   UNL     1       0.735   2.761   4.362  0.00  0.00    +0.064 C 
BRANCH  27  29
ATOM     29  C   UNL     1      -0.568   0.746   2.455  0.00  0.00    +0.153 C 
BRANCH  29  30
ATOM     30  C   UNL     1      -0.810   1.621   1.224  0.00  0.00    +0.138 C 
ATOM     31  C   UNL     1      -0.013   1.086   0.008  0.00  0.00    +0.035 C 
ATOM     32  C   UNL     1      -0.833   1.634  -1.185  0.00  0.00    +0.031 C 
ATOM     33  C   UNL     1      -2.223   1.924  -0.587  0.00  0.00    +0.160 C 
ATOM     34  O   UNL     1      -2.186   1.524   0.793  0.00  0.00    -0.375 OA
ENDBRANCH  29  30
ENDBRANCH  27  29
ENDBRANCH  20  25
ENDBRANCH  19  20
ENDBRANCH   1  19
TORSDOF 9
