REMARK  Name = ZINC20573494
REMARK  1 active torsions:
REMARK  status: ('A' for Active; 'I' for Inactive)
REMARK    1  A    between atoms: C_3  and  C_6
REMARK                            x       y       z     vdW  Elec       q    Type
REMARK                         _______ _______ _______ _____ _____    ______ ____
ROOT
ATOM      1  C   UNL     1       3.561   0.619  -0.029  0.00  0.00    +0.282 C 
ATOM      2  O   UNL     1       4.192   1.651  -0.165  0.00  0.00    -0.267 OA
ATOM      3  N   UNL     1       4.207  -0.560   0.060  0.00  0.00    -0.295 N 
ATOM      4  C   UNL     1       3.461  -1.826   0.057  0.00  0.00    +0.110 C 
ATOM      5  C   UNL     1       4.027  -2.729  -1.044  0.00  0.00    +0.047 C 
ATOM      6  C   UNL     1       5.535  -2.887  -0.844  0.00  0.00    +0.064 C 
ATOM      7  C   UNL     1       6.216  -1.521  -0.938  0.00  0.00    +0.047 C 
ATOM      8  C   UNL     1       5.673  -0.605   0.157  0.00  0.00    +0.110 C 
ATOM      9  C   UNL     1       6.093  -3.805  -1.901  0.00  0.00    +0.057 A 
ATOM     10  C   UNL     1       6.984  -4.787  -1.635  0.00  0.00    +0.039 A 
ATOM     11  N   UNL     1       7.260  -5.408  -2.810  0.00  0.00    -0.349 N 
ATOM     12  H   UNL     1       7.865  -6.155  -2.941  0.00  0.00    +0.166 HD
ATOM     13  C   UNL     1       6.529  -4.787  -3.766  0.00  0.00    +0.171 A 
ATOM     14  N   UNL     1       5.835  -3.829  -3.209  0.00  0.00    -0.348 N 
ATOM     15  C   UNL     1       7.523  -5.068  -0.256  0.00  0.00    +0.070 C 
ATOM     16  C   UNL     1       7.213  -3.851   0.628  0.00  0.00    +0.088 C 
ATOM     17  N   UNL     1       5.798  -3.480   0.476  0.00  0.00    -0.305 NA
ATOM     18  H   UNL     1       5.506  -2.859   1.216  0.00  0.00    +0.123 HD
ATOM     19  H   UNL     1       5.229  -3.231  -3.674  0.00  0.00    +0.166 HD
ENDROOT
BRANCH   1  22
ATOM     20  C   UNL     1      -0.018   1.341  -0.016  0.00  0.00    +0.042 A 
ATOM     21  C   UNL     1       1.313   1.756  -0.183  0.00  0.00    +0.054 A 
ATOM     22  C   UNL     1       2.096   0.659   0.037  0.00  0.00    +0.189 A 
ATOM     23  O   UNL     1       1.287  -0.381   0.326  0.00  0.00    -0.458 OA
ATOM     24  C   UNL     1       0.011   0.026   0.295  0.00  0.00    +0.196 A 
ENDBRANCH   1  22
TORSDOF 1
