REMARK  Name = ZINC04176979
REMARK  8 active torsions:
REMARK  status: ('A' for Active; 'I' for Inactive)
REMARK    1  A    between atoms: C_1  and  C_2
REMARK    2  A    between atoms: C_2  and  C_3
REMARK    3  A    between atoms: C_2  and  C_4
REMARK    4  A    between atoms: C_6  and  C_26
REMARK    5  A    between atoms: C_8  and  C_20
REMARK    6  A    between atoms: C_11  and  C_12
REMARK    7  A    between atoms: C_11  and  O_19
REMARK    8  A    between atoms: C_12  and  C_13
REMARK                            x       y       z     vdW  Elec       q    Type
REMARK                         _______ _______ _______ _____ _____    ______ ____
ROOT
ATOM      1  C   UNL     1      -0.180   1.556  -0.702  0.00  0.00    +0.014 C 
ATOM      2  C   UNL     1       1.350   1.530  -0.681  0.00  0.00    -0.034 C 
ATOM      3  C   UNL     1       1.384  -0.695  -1.639  0.00  0.00    -0.037 C 
ATOM      4  C   UNL     1      -0.145  -0.737  -1.689  0.00  0.00    +0.024 C 
ATOM      5  C   UNL     1      -0.711   0.127  -0.558  0.00  0.00    +0.071 C 
ATOM      6  N   UNL     1       1.849   0.697  -1.791  0.00  0.00    +0.388 N 
ATOM      7  H   UNL     1       2.876   0.712  -1.791  0.00  0.00    -0.084 HD
ATOM      8  H   UNL     1       1.502   1.074  -2.680  0.00  0.00    -0.084 HD
ENDROOT
BRANCH   3   9
ATOM      9  C   UNL     1       1.945  -1.528  -2.763  0.00  0.00    -0.061 A 
ATOM     10  C   UNL     1       2.002  -1.012  -4.044  0.00  0.00    +0.002 A 
ATOM     11  C   UNL     1       2.521  -1.774  -5.074  0.00  0.00    +0.000 A 
ATOM     12  C   UNL     1       2.975  -3.055  -4.824  0.00  0.00    +0.000 A 
ATOM     13  C   UNL     1       2.913  -3.573  -3.544  0.00  0.00    +0.000 A 
ATOM     14  C   UNL     1       2.398  -2.810  -2.514  0.00  0.00    +0.002 A 
ENDBRANCH   3   9
BRANCH   2  15
ATOM     15  C   UNL     1       1.877   2.933  -0.843  0.00  0.00    -0.061 A 
ATOM     16  C   UNL     1       1.607   3.644  -1.996  0.00  0.00    +0.002 A 
ATOM     17  C   UNL     1       2.087   4.932  -2.143  0.00  0.00    +0.000 A 
ATOM     18  C   UNL     1       2.846   5.505  -1.139  0.00  0.00    +0.000 A 
ATOM     19  C   UNL     1       3.121   4.792   0.012  0.00  0.00    +0.000 A 
ATOM     20  C   UNL     1       2.637   3.505   0.161  0.00  0.00    +0.002 A 
ENDBRANCH   2  15
BRANCH   1  22
ATOM     21  C   UNL     1       0.091   2.070   1.728  0.00  0.00    +0.007 C 
ATOM     22  C   UNL     1      -0.693   2.411   0.459  0.00  0.00    -0.013 C 
ATOM     23  C   UNL     1      -0.503   3.891   0.124  0.00  0.00    +0.007 C 
ENDBRANCH   1  22
BRANCH   5  24
ATOM     24  O   UNL     1      -0.304  -0.409   0.703  0.00  0.00    -0.388 OA
ATOM     25  H   UNL     1      -0.607  -1.314   0.862  0.00  0.00    +0.210 HD
ENDBRANCH   5  24
BRANCH   5  26
ATOM     26  C   UNL     1      -2.239   0.139  -0.639  0.00  0.00    +0.070 C 
BRANCH  26  27
ATOM     27  C   UNL     1      -2.755  -1.277  -0.611  0.00  0.00    -0.045 A 
ATOM     28  C   UNL     1      -2.933  -1.972  -1.793  0.00  0.00    +0.004 A 
ATOM     29  C   UNL     1      -3.402  -3.272  -1.767  0.00  0.00    +0.000 A 
ATOM     30  C   UNL     1      -3.701  -3.874  -0.559  0.00  0.00    +0.000 A 
ATOM     31  C   UNL     1      -3.527  -3.179   0.622  0.00  0.00    +0.000 A 
ATOM     32  C   UNL     1      -3.054  -1.880   0.597  0.00  0.00    +0.004 A 
ENDBRANCH  26  27
ENDBRANCH   5  26
TORSDOF 6
