REMARK  Name = ZINC38989454
REMARK  6 active torsions:
REMARK  status: ('A' for Active; 'I' for Inactive)
REMARK    1  A    between atoms: C_3  and  N_9
REMARK    2  A    between atoms: C_10  and  C_12
REMARK    3  A    between atoms: C_12  and  S_13
REMARK    4  A    between atoms: S_13  and  C_14
REMARK    5  A    between atoms: C_17  and  C_21
REMARK    6  A    between atoms: N_19  and  N_20
REMARK                            x       y       z     vdW  Elec       q    Type
REMARK                         _______ _______ _______ _____ _____    ______ ____
ROOT
ATOM      1  C   UNL     1       6.101   6.753  -0.483  0.00  0.00    +0.189 C 
ATOM      2  N   UNL     1       7.208   6.091  -0.499  0.00  0.00    -0.161 NA
ATOM      3  N   UNL     1       8.313   6.943  -0.617  0.00  0.00    -0.243 N 
ATOM      4  C   UNL     1       7.771   8.312  -0.679  0.00  0.00    +0.222 C 
ATOM      5  N   UNL     1       6.314   8.119  -0.591  0.00  0.00    -0.223 N 
ATOM      6  H   UNL     1       9.248   6.685  -0.651  0.00  0.00    +0.170 HD
ENDROOT
BRANCH   4   7
ATOM      7  C   UNL     1       8.145   8.978  -2.005  0.00  0.00    +0.197 C 
ATOM      8  C   UNL     1       9.649   9.032  -2.173  0.00  0.00    -0.017 C 
ATOM      9  C   UNL     1       9.895   8.309  -3.264  0.00  0.00    +0.065 C 
ATOM     10  C   UNL     1      11.387   8.286  -3.541  0.00  0.00    +0.057 C 
ATOM     11  C   UNL     1      11.969   9.450  -2.710  0.00  0.00    +0.011 C 
ATOM     12  C   UNL     1      10.921   9.584  -1.582  0.00  0.00    +0.035 C 
ATOM     13  N   UNL     1       8.728   7.829  -3.773  0.00  0.00    -0.158 NA
ATOM     14  N   UNL     1       7.715   8.150  -3.144  0.00  0.00    -0.176 NA
ENDBRANCH   4   7
BRANCH   5  15
ATOM     15  N   UNL     1       5.359   9.096  -0.611  0.00  0.00    -0.250 NA
ATOM     16  H   UNL     1       4.434   8.699  -0.533  0.00  0.00    +0.141 HD
ATOM     17  H   UNL     1       5.522   9.776   0.117  0.00  0.00    +0.141 HD
ENDBRANCH   5  15
BRANCH   1  18
ATOM     18  S   UNL     1       4.509   6.010  -0.346  0.00  0.00    -0.078 S 
BRANCH  18  19
ATOM     19  C   UNL     1       4.862   4.234  -0.238  0.00  0.00    +0.173 C 
BRANCH  19  21
ATOM     20  N   UNL     1       3.584   2.127  -0.021  0.00  0.00    -0.284 N 
ATOM     21  C   UNL     1       3.568   3.471  -0.116  0.00  0.00    +0.228 C 
ATOM     22  O   UNL     1       2.512   4.067  -0.103  0.00  0.00    -0.275 OA
ATOM     23  H   UNL     1       4.429   1.656   0.049  0.00  0.00    +0.155 HD
BRANCH  20  26
ATOM     24  C   UNL     1       0.065   1.243  -0.620  0.00  0.00    +0.022 A 
ATOM     25  C   UNL     1       1.250   1.953  -0.618  0.00  0.00    +0.026 A 
ATOM     26  C   UNL     1       2.381   1.410  -0.024  0.00  0.00    +0.052 A 
ATOM     27  C   UNL     1       2.318   0.154   0.567  0.00  0.00    +0.064 A 
ATOM     28  C   UNL     1       1.129  -0.551   0.562  0.00  0.00    +0.041 A 
ATOM     29  C   UNL     1       0.004  -0.007  -0.031  0.00  0.00    +0.042 A 
ATOM     30 CL   UNL     1      -1.488  -0.895  -0.035  0.00  0.00    -0.083 Cl
ATOM     31 CL   UNL     1       3.730  -0.528   1.311  0.00  0.00    -0.082 Cl
ENDBRANCH  20  26
ENDBRANCH  19  21
ENDBRANCH  18  19
ENDBRANCH   1  18
TORSDOF 6
