REMARK  Name = ZINC05758126
REMARK  11 active torsions:
REMARK  status: ('A' for Active; 'I' for Inactive)
REMARK    1  A    between atoms: C_1  and  C_2
REMARK    2  A    between atoms: C_5  and  S_8
REMARK    3  A    between atoms: S_8  and  N_11
REMARK    4  A    between atoms: C_15  and  C_17
REMARK    5  A    between atoms: N_19  and  N_20
REMARK    6  A    between atoms: C_21  and  C_23
REMARK    7  A    between atoms: C_23  and  C_25
REMARK    8  A    between atoms: C_23  and  N_55
REMARK    9  A    between atoms: C_25  and  C_26
REMARK   10  A    between atoms: C_26  and  C_27
REMARK   11  A    between atoms: C_26  and  C_28
REMARK                            x       y       z     vdW  Elec       q    Type
REMARK                         _______ _______ _______ _____ _____    ______ ____
ROOT
ATOM      1  C   UNL     1      -0.994   0.052   1.950  0.00  0.00    +0.248 C 
ATOM      2  O   UNL     1      -0.739   1.005   2.656  0.00  0.00    -0.273 OA
ATOM      3  N   UNL     1      -0.815  -1.200   2.418  0.00  0.00    -0.233 N 
ATOM      4  H   UNL     1      -1.020  -1.962   1.853  0.00  0.00    +0.173 HD
ENDROOT
BRANCH   1   9
ATOM      5  N   UNL     1      -2.507   1.355   0.533  0.00  0.00    -0.165 NA
ATOM      6  C   UNL     1      -2.342   2.125  -0.708  0.00  0.00    +0.110 C 
ATOM      7  C   UNL     1      -1.167   1.496  -1.485  0.00  0.00    +0.019 C 
ATOM      8  C   UNL     1      -0.371   0.759  -0.375  0.00  0.00    +0.031 C 
ATOM      9  C   UNL     1      -1.511   0.267   0.551  0.00  0.00    +0.167 C 
BRANCH   5  10
ATOM     10  S   UNL     1      -3.627   1.657   1.715  0.00  0.00    +0.062 S 
ATOM     11  O   UNL     1      -3.197   0.952   2.871  0.00  0.00    -0.153 OA
ATOM     12  O   UNL     1      -3.846   3.061   1.717  0.00  0.00    -0.153 OA
BRANCH  10  17
ATOM     13  C   UNL     1      -8.806  -0.894  -0.036  0.00  0.00    +0.044 C 
ATOM     14  C   UNL     1      -7.513  -0.257   0.401  0.00  0.00    -0.050 A 
ATOM     15  C   UNL     1      -6.607  -0.979   1.156  0.00  0.00    +0.005 A 
ATOM     16  C   UNL     1      -5.421  -0.394   1.557  0.00  0.00    +0.029 A 
ATOM     17  C   UNL     1      -5.139   0.912   1.203  0.00  0.00    +0.106 A 
ATOM     18  C   UNL     1      -6.047   1.635   0.452  0.00  0.00    +0.029 A 
ATOM     19  C   UNL     1      -7.231   1.049   0.046  0.00  0.00    +0.005 A 
ENDBRANCH  10  17
ENDBRANCH   5  10
ENDBRANCH   1   9
BRANCH   3  20
ATOM     20  N   UNL     1      -0.335  -1.400   3.718  0.00  0.00    -0.236 N 
ATOM     21  C   UNL     1      -0.156  -2.651   4.186  0.00  0.00    +0.215 C 
ATOM     22  O   UNL     1      -0.411  -3.604   3.480  0.00  0.00    -0.276 OA
ATOM     23  H   UNL     1      -0.130  -0.637   4.282  0.00  0.00    +0.173 HD
BRANCH  21  24
ATOM     24  C   UNL     1       0.361  -2.866   5.585  0.00  0.00    +0.014 C 
BRANCH  24  27
ATOM     25  H   UNL     1       0.211  -4.918   5.503  0.00  0.00    -0.089 HD
ATOM     26  H   UNL     1       1.715  -4.338   5.095  0.00  0.00    -0.089 HD
ATOM     27  N   UNL     1       0.922  -4.222   5.723  0.00  0.00    +0.386 N 
ATOM     28  H   UNL     1       1.237  -4.360   6.690  0.00  0.00    -0.089 HD
ENDBRANCH  24  27
BRANCH  24  29
ATOM     29  C   UNL     1      -0.785  -2.698   6.584  0.00  0.00    -0.004 C 
BRANCH  29  30
ATOM     30  C   UNL     1      -0.267  -2.946   8.002  0.00  0.00    -0.018 C 
ATOM     31  C   UNL     1       0.711  -1.835   8.389  0.00  0.00    +0.007 C 
ATOM     32  C   UNL     1      -1.443  -2.955   8.980  0.00  0.00    +0.007 C 
ENDBRANCH  29  30
ENDBRANCH  24  29
ENDBRANCH  21  24
ENDBRANCH   3  20
TORSDOF 8
