REMARK  Name = ZINC04199100
REMARK  10 active torsions:
REMARK  status: ('A' for Active; 'I' for Inactive)
REMARK    1  A    between atoms: C_1  and  C_2
REMARK    2  A    between atoms: C_2  and  S_3
REMARK    3  A    between atoms: S_3  and  C_4
REMARK    4  A    between atoms: C_4  and  S_24
REMARK    5  A    between atoms: C_5  and  C_22
REMARK    6  A    between atoms: C_7  and  C_21
REMARK    7  A    between atoms: C_8  and  C_15
REMARK    8  A    between atoms: C_10  and  C_13
REMARK    9  A    between atoms: S_24  and  C_25
REMARK   10  A    between atoms: C_25  and  C_26
REMARK                            x       y       z     vdW  Elec       q    Type
REMARK                         _______ _______ _______ _____ _____    ______ ____
ROOT
ATOM      1  C   UNL     1      -2.544   3.058  -0.028  0.00  0.00    +0.157 C 
ATOM      2  C   UNL     1      -3.229   1.707  -0.321  0.00  0.00    +0.146 C 
ATOM      3  C   UNL     1      -4.556   1.617   0.337  0.00  0.00    +0.017 C 
ATOM      4  C   UNL     1      -4.812   0.882   1.391  0.00  0.00    -0.017 C 
ATOM      5  C   UNL     1      -2.416   0.347   1.667  0.00  0.00    +0.113 C 
ATOM      6  C   UNL     1      -2.189   0.716   0.211  0.00  0.00    +0.156 C 
ATOM      7  C   UNL     1      -0.883   1.485   0.104  0.00  0.00    +0.092 C 
ATOM      8  N   UNL     1       0.362   0.914   0.137  0.00  0.00    -0.347 N 
ATOM      9  C   UNL     1      -6.199   0.876   1.978  0.00  0.00    +0.058 C 
ATOM     10  H   UNL     1       0.453  -0.047   0.234  0.00  0.00    +0.143 HD
ATOM     11  H   UNL     1       1.153   1.470   0.059  0.00  0.00    +0.143 HD
ATOM     12  N   UNL     1      -3.839   0.053   2.021  0.00  0.00    -0.401 NA
ATOM     13  H   UNL     1      -4.037  -0.920   1.758  0.00  0.00    +0.124 HD
ATOM     14  H   UNL     1      -3.943   0.161   3.036  0.00  0.00    +0.124 HD
ATOM     15  N   UNL     1      -1.094   2.760  -0.016  0.00  0.00    -0.351 N 
ATOM     16  H   UNL     1      -0.353   3.468  -0.093  0.00  0.00    +0.163 HD
ENDROOT
BRANCH   5  17
ATOM     17  C   UNL     1      -1.913   1.469   2.538  0.00  0.00    -0.027 A 
ATOM     18  C   UNL     1      -0.576   1.820   2.510  0.00  0.00    +0.005 A 
ATOM     19  C   UNL     1      -0.116   2.853   3.306  0.00  0.00    +0.000 A 
ATOM     20  C   UNL     1      -0.991   3.527   4.137  0.00  0.00    +0.000 A 
ATOM     21  C   UNL     1      -2.326   3.173   4.168  0.00  0.00    +0.000 A 
ATOM     22  C   UNL     1      -2.787   2.144   3.369  0.00  0.00    +0.005 A 
ENDBRANCH   5  17
BRANCH   6  23
ATOM     23  C   UNL     1      -2.141  -0.496  -0.623  0.00  0.00    +0.081 C 
ATOM     24  N   UNL     1      -2.104  -1.432  -1.266  0.00  0.00    -0.195 NA
ENDBRANCH   6  23
BRANCH   2  25
ATOM     25  C   UNL     1      -3.382   1.534  -1.775  0.00  0.00    +0.080 C 
ATOM     26  N   UNL     1      -3.501   1.401  -2.897  0.00  0.00    -0.195 NA
ENDBRANCH   2  25
BRANCH   1  27
ATOM     27  S   UNL     1      -2.925   4.258  -1.334  0.00  0.00    -0.121 S 
BRANCH  27  29
ATOM     28  C   UNL     1      -2.055   6.763  -2.004  0.00  0.00    +0.015 C 
ATOM     29  C   UNL     1      -1.922   5.708  -0.905  0.00  0.00    +0.069 C 
ENDBRANCH  27  29
ENDBRANCH   1  27
BRANCH   1  30
ATOM     30  S   UNL     1      -3.062   3.694   1.590  0.00  0.00    -0.121 S 
BRANCH  30  31
ATOM     31  C   UNL     1      -4.714   4.378   1.283  0.00  0.00    +0.069 C 
ATOM     32  C   UNL     1      -5.218   5.080   2.546  0.00  0.00    +0.015 C 
ENDBRANCH  30  31
ENDBRANCH   1  30
TORSDOF 7
