REMARK  Name = ZINC39634672
REMARK  11 active torsions:
REMARK  status: ('A' for Active; 'I' for Inactive)
REMARK    1  A    between atoms: C_1  and  C_2
REMARK    2  A    between atoms: C_2  and  C_3
REMARK    3  A    between atoms: C_2  and  N_4
REMARK    4  A    between atoms: N_4  and  C_5
REMARK    5  A    between atoms: N_4  and  C_24
REMARK    6  A    between atoms: C_5  and  C_6
REMARK    7  A    between atoms: C_6  and  N_7
REMARK    8  A    between atoms: C_8  and  C_10
REMARK    9  A    between atoms: C_21  and  C_23
REMARK   10  A    between atoms: C_24  and  C_25
REMARK   11  A    between atoms: C_24  and  C_26
REMARK                            x       y       z     vdW  Elec       q    Type
REMARK                         _______ _______ _______ _____ _____    ______ ____
ROOT
ATOM      1  C   UNL     1      -4.112   3.790  -3.583  0.00  0.00    +0.100 C 
ATOM      2  C   UNL     1      -4.689   5.199  -3.320  0.00  0.00    +0.121 C 
ATOM      3  N   UNL     1      -3.721   6.125  -3.953  0.00  0.00    -0.300 N 
ATOM      4  C   UNL     1      -3.326   5.444  -5.209  0.00  0.00    +0.115 C 
ATOM      5  C   UNL     1      -3.220   3.954  -4.826  0.00  0.00    -0.004 C 
ATOM      6  C   UNL     1      -3.734   3.078  -5.964  0.00  0.00    -0.010 C 
ATOM      7  C   UNL     1      -2.799   3.213  -7.169  0.00  0.00    -0.082 C 
ATOM      8  N   UNL     1      -1.442   2.806  -6.785  0.00  0.00    +0.379 N 
ATOM      9  C   UNL     1      -0.920   3.712  -5.755  0.00  0.00    -0.082 C 
ATOM     10  C   UNL     1      -1.775   3.598  -4.491  0.00  0.00    -0.010 C 
ATOM     11  C   UNL     1      -3.295   7.317  -3.491  0.00  0.00    +0.212 C 
ATOM     12  O   UNL     1      -2.492   7.964  -4.130  0.00  0.00    -0.276 OA
ATOM     13  C   UNL     1      -3.816   7.847  -2.180  0.00  0.00    +0.109 C 
ATOM     14  H   UNL     1      -1.464   1.865  -6.423  0.00  0.00    -0.086 HD
ATOM     15  H   UNL     1      -0.841   2.838  -7.595  0.00  0.00    -0.086 HD
ENDROOT
BRANCH   1  17
ATOM     16  N   UNL     1      -3.050   2.018  -2.222  0.00  0.00    -0.317 N 
ATOM     17  C   UNL     1      -3.290   3.332  -2.406  0.00  0.00    +0.218 C 
ATOM     18  O   UNL     1      -2.846   4.145  -1.623  0.00  0.00    -0.275 OA
ATOM     19  H   UNL     1      -3.405   1.368  -2.848  0.00  0.00    +0.149 HD
BRANCH  16  20
ATOM     20  C   UNL     1      -2.252   1.573  -1.077  0.00  0.00    +0.085 C 
BRANCH  20  21
ATOM     21  C   UNL     1      -2.130   0.048  -1.103  0.00  0.00    -0.059 C 
BRANCH  21  22
ATOM     22  N   UNL     1      -1.460  -0.411   0.121  0.00  0.00    +0.384 N 
ATOM     23  H   UNL     1      -1.940  -0.038   0.927  0.00  0.00    -0.081 HD
BRANCH  22  25
ATOM     24  C   UNL     1       0.424   0.194  -1.321  0.00  0.00    -0.014 C 
ATOM     25  C   UNL     1      -0.068   0.056   0.122  0.00  0.00    -0.074 C 
ATOM     26  C   UNL     1       0.015   1.414   0.821  0.00  0.00    -0.014 C 
ENDBRANCH  22  25
BRANCH  22  27
ATOM     27  C   UNL     1      -1.485  -1.879   0.172  0.00  0.00    -0.074 C 
ATOM     28  C   UNL     1      -0.899  -2.353   1.504  0.00  0.00    -0.014 C 
ATOM     29  C   UNL     1      -2.929  -2.369   0.047  0.00  0.00    -0.014 C 
ENDBRANCH  22  27
ENDBRANCH  21  22
ENDBRANCH  20  21
ENDBRANCH  16  20
ENDBRANCH   1  17
TORSDOF 6
