REMARK  Name = ZINC12040540
REMARK  12 active torsions:
REMARK  status: ('A' for Active; 'I' for Inactive)
REMARK    1  A    between atoms: C_1  and  N_58
REMARK    2  A    between atoms: C_2  and  C_3
REMARK    3  A    between atoms: C_2  and  N_58
REMARK    4  A    between atoms: C_6  and  O_9
REMARK    5  A    between atoms: C_10  and  C_11
REMARK    6  A    between atoms: C_10  and  N_58
REMARK    7  A    between atoms: C_14  and  S_24
REMARK    8  A    between atoms: N_15  and  C_16
REMARK    9  A    between atoms: C_20  and  O_22
REMARK   10  A    between atoms: O_22  and  C_23
REMARK   11  A    between atoms: S_24  and  C_25
REMARK   12  A    between atoms: C_25  and  C_26
REMARK                            x       y       z     vdW  Elec       q    Type
REMARK                         _______ _______ _______ _____ _____    ______ ____
ROOT
ATOM      1  C   UNL     1      -1.884   2.038  -0.931  0.00  0.00    +0.122 A 
ATOM      2  N   UNL     1      -2.721   2.821  -0.311  0.00  0.00    -0.135 NA
ATOM      3  N   UNL     1      -2.310   3.051   0.884  0.00  0.00    -0.122 NA
ATOM      4  C   UNL     1      -1.181   2.417   1.099  0.00  0.00    +0.196 A 
ATOM      5  N   UNL     1      -0.874   1.746  -0.053  0.00  0.00    -0.276 N 
ENDROOT
BRANCH   5   6
ATOM      6  C   UNL     1       0.245   0.934  -0.288  0.00  0.00    +0.054 A 
ATOM      7  C   UNL     1       0.082  -0.428  -0.505  0.00  0.00    +0.026 A 
ATOM      8  C   UNL     1       1.183  -1.228  -0.742  0.00  0.00    +0.006 A 
ATOM      9  C   UNL     1       2.450  -0.675  -0.764  0.00  0.00    +0.046 A 
ATOM     10  C   UNL     1       2.618   0.685  -0.548  0.00  0.00    +0.122 A 
ATOM     11  C   UNL     1       1.515   1.491  -0.310  0.00  0.00    +0.072 A 
BRANCH  10  12
ATOM     12  O   UNL     1       3.864   1.228  -0.570  0.00  0.00    -0.495 OA
ATOM     13  C   UNL     1       4.955   0.339  -0.821  0.00  0.00    +0.277 C 
ENDBRANCH  10  12
ENDBRANCH   5   6
BRANCH   1  14
ATOM     14  C   UNL     1      -2.006   1.542  -2.348  0.00  0.00    -0.001 C 
BRANCH  14  16
ATOM     15  C   UNL     1      -1.903   3.718  -3.404  0.00  0.00    -0.095 C 
ATOM     16  N   UNL     1      -1.213   2.423  -3.230  0.00  0.00    +0.385 N 
ATOM     17  H   UNL     1      -0.296   2.589  -2.798  0.00  0.00    -0.081 HD
BRANCH  16  18
ATOM     18  C   UNL     1      -1.014   1.777  -4.544  0.00  0.00    -0.043 C 
BRANCH  18  19
ATOM     19  C   UNL     1      -0.025   2.589  -5.341  0.00  0.00    -0.064 A 
ATOM     20  C   UNL     1      -0.473   3.593  -6.179  0.00  0.00    +0.005 A 
ATOM     21  C   UNL     1       0.432   4.343  -6.905  0.00  0.00    +0.045 A 
ATOM     22  C   UNL     1       1.790   4.079  -6.803  0.00  0.00    +0.117 A 
ATOM     23  C   UNL     1       2.236   3.067  -5.965  0.00  0.00    +0.045 A 
ATOM     24  C   UNL     1       1.328   2.324  -5.236  0.00  0.00    +0.005 A 
BRANCH  22  25
ATOM     25  O   UNL     1       2.682   4.812  -7.520  0.00  0.00    -0.507 OA
ATOM     26  H   UNL     1       2.878   4.446  -8.394  0.00  0.00    +0.292 HD
ENDBRANCH  22  25
ENDBRANCH  18  19
ENDBRANCH  16  18
ENDBRANCH  14  16
ENDBRANCH   1  14
BRANCH   4  27
ATOM     27  S   UNL     1      -0.238   2.430   2.588  0.00  0.00    -0.081 S 
BRANCH  27  28
ATOM     28  C   UNL     1      -1.273   3.511   3.606  0.00  0.00    +0.112 C 
BRANCH  28  29
ATOM     29  C   UNL     1      -0.645   3.672   4.966  0.00  0.00    -0.036 A 
ATOM     30  C   UNL     1       0.251   4.699   5.197  0.00  0.00    +0.004 A 
ATOM     31  C   UNL     1       0.827   4.847   6.445  0.00  0.00    +0.002 A 
ATOM     32  C   UNL     1       0.506   3.969   7.463  0.00  0.00    +0.020 A 
ATOM     33  C   UNL     1      -0.390   2.941   7.233  0.00  0.00    +0.041 A 
ATOM     34  C   UNL     1      -0.970   2.796   5.985  0.00  0.00    +0.024 A 
ATOM     35 CL   UNL     1      -0.793   1.837   8.511  0.00  0.00    -0.084 Cl
ENDBRANCH  28  29
ENDBRANCH  27  28
ENDBRANCH   4  27
TORSDOF 10
