REMARK  Name = ZINC06589639
REMARK  5 active torsions:
REMARK  status: ('A' for Active; 'I' for Inactive)
REMARK    1  A    between atoms: C_4  and  C_7
REMARK    2  A    between atoms: C_7  and  C_9
REMARK    3  A    between atoms: C_7  and  N_17
REMARK    4  A    between atoms: C_9  and  C_11
REMARK    5  A    between atoms: C_26  and  C_28
REMARK                            x       y       z     vdW  Elec       q    Type
REMARK                         _______ _______ _______ _____ _____    ______ ____
ROOT
ATOM      1  C   UNL     1       3.672   2.182  -0.024  0.00  0.00    +0.212 C 
ENDROOT
BRANCH   1   2
ATOM      2  N   UNL     1       3.541   3.345  -0.905  0.00  0.00    -0.213 N 
ATOM      3  C   UNL     1       4.379   3.446  -1.958  0.00  0.00    +0.276 A 
ATOM      4  O   UNL     1       5.220   2.591  -2.168  0.00  0.00    -0.266 OA
ATOM      5  C   UNL     1       4.249   4.608  -2.848  0.00  0.00    +0.050 A 
ATOM      6  C   UNL     1       5.060   4.802  -3.961  0.00  0.00    +0.014 A 
ATOM      7  C   UNL     1       4.877   5.922  -4.743  0.00  0.00    +0.001 A 
ATOM      8  C   UNL     1       3.896   6.854  -4.431  0.00  0.00    +0.001 A 
ATOM      9  C   UNL     1       3.082   6.680  -3.331  0.00  0.00    +0.011 A 
ATOM     10  C   UNL     1       3.250   5.557  -2.529  0.00  0.00    +0.022 A 
ATOM     11  C   UNL     1       2.424   5.296  -1.339  0.00  0.00    +0.180 A 
ATOM     12  N   UNL     1       2.642   4.213  -0.632  0.00  0.00    -0.160 NA
BRANCH  11  13
ATOM     13  C   UNL     1       1.362   6.242  -0.946  0.00  0.00    +0.407 C 
ATOM     14  O   UNL     1       1.165   7.243  -1.606  0.00  0.00    -0.239 OA
ATOM     15  O   UNL     1       0.610   5.995   0.145  0.00  0.00    -0.239 OA
ENDBRANCH  11  13
ENDBRANCH   1   2
BRANCH   1  19
ATOM     16  C   UNL     1       0.002  -0.004   0.002  0.00  0.00    +0.000 A 
ATOM     17  C   UNL     1      -0.017   1.378   0.010  0.00  0.00    +0.000 A 
ATOM     18  C   UNL     1       1.171   2.086   0.002  0.00  0.00    +0.006 A 
ATOM     19  C   UNL     1       2.377   1.411  -0.015  0.00  0.00    -0.015 A 
ATOM     20  C   UNL     1       2.396   0.029  -0.022  0.00  0.00    +0.006 A 
ATOM     21  C   UNL     1       1.208  -0.679  -0.013  0.00  0.00    +0.000 A 
ENDBRANCH   1  19
BRANCH   1  22
ATOM     22  C   UNL     1       3.991   2.644   1.374  0.00  0.00    +0.192 C 
ATOM     23  O   UNL     1       3.749   3.785   1.705  0.00  0.00    -0.289 OA
BRANCH  22  24
ATOM     24  C   UNL     1       4.597   1.711   2.337  0.00  0.00    +0.020 A 
ATOM     25  C   UNL     1       4.872   0.393   1.961  0.00  0.00    +0.011 A 
ATOM     26  C   UNL     1       5.443  -0.475   2.868  0.00  0.00    +0.001 A 
ATOM     27  C   UNL     1       5.735  -0.046   4.151  0.00  0.00    +0.000 A 
ATOM     28  C   UNL     1       5.461   1.256   4.533  0.00  0.00    +0.001 A 
ATOM     29  C   UNL     1       4.894   2.136   3.636  0.00  0.00    +0.011 A 
ENDBRANCH  22  24
ENDBRANCH   1  22
TORSDOF 5
