REMARK  Name = ZINC45619226
REMARK  11 active torsions:
REMARK  status: ('A' for Active; 'I' for Inactive)
REMARK    1  A    between atoms: C_1  and  C_2
REMARK    2  A    between atoms: C_2  and  C_25
REMARK    3  A    between atoms: N_5  and  C_9
REMARK    4  A    between atoms: C_9  and  C_10
REMARK    5  A    between atoms: C_10  and  C_12
REMARK    6  A    between atoms: C_10  and  O_24
REMARK    7  A    between atoms: C_12  and  O_13
REMARK    8  A    between atoms: O_13  and  C_14
REMARK    9  A    between atoms: C_17  and  C_20
REMARK   10  A    between atoms: C_20  and  O_22
REMARK   11  A    between atoms: O_22  and  C_23
REMARK                            x       y       z     vdW  Elec       q    Type
REMARK                         _______ _______ _______ _____ _____    ______ ____
ROOT
ATOM      1  C   UNL     1      -0.019   1.526   0.010  0.00  0.00    +0.047 C 
ATOM      2  C   UNL     1       0.002  -0.004   0.002  0.00  0.00    +0.135 C 
ATOM      3  C   UNL     1      -1.403  -0.557   0.139  0.00  0.00    +0.251 C 
ATOM      4  O   UNL     1      -2.332  -0.392  -0.621  0.00  0.00    -0.272 OA
ATOM      5  N   UNL     1      -1.403  -1.272   1.282  0.00  0.00    -0.221 N 
ATOM      6  C   UNL     1      -0.206  -1.247   1.879  0.00  0.00    +0.310 C 
ATOM      7  O   UNL     1       0.040  -1.819   2.924  0.00  0.00    -0.252 OA
ATOM      8  N   UNL     1       0.695  -0.520   1.195  0.00  0.00    -0.281 N 
ATOM      9  H   UNL     1       1.621  -0.365   1.440  0.00  0.00    +0.152 HD
ENDROOT
BRANCH   2  10
ATOM     10  C   UNL     1       0.657  -0.517  -1.255  0.00  0.00    -0.015 A 
ATOM     11  C   UNL     1      -0.107  -0.772  -2.378  0.00  0.00    +0.006 A 
ATOM     12  C   UNL     1       0.495  -1.242  -3.529  0.00  0.00    +0.004 A 
ATOM     13  C   UNL     1       1.863  -1.459  -3.561  0.00  0.00    -0.044 A 
ATOM     14  C   UNL     1       2.627  -1.204  -2.438  0.00  0.00    -0.044 A 
ATOM     15  C   UNL     1       2.022  -0.727  -1.287  0.00  0.00    +0.010 A 
ATOM     16  C   UNL     1       4.079  -1.518  -2.724  0.00  0.00    +0.036 C 
ATOM     17  C   UNL     1       4.060  -2.401  -3.990  0.00  0.00    +0.009 C 
ATOM     18  C   UNL     1       2.750  -1.962  -4.680  0.00  0.00    +0.036 C 
ENDBRANCH   2  10
BRANCH   5  19
ATOM     19  C   UNL     1      -2.569  -1.986   1.805  0.00  0.00    +0.152 C 
BRANCH  19  20
ATOM     20  C   UNL     1      -2.585  -3.413   1.252  0.00  0.00    +0.170 C 
BRANCH  20  21
ATOM     21  O   UNL     1      -2.654  -3.369  -0.175  0.00  0.00    -0.387 OA
ATOM     22  H   UNL     1      -3.440  -2.921  -0.517  0.00  0.00    +0.210 HD
ENDBRANCH  20  21
BRANCH  20  23
ATOM     23  C   UNL     1      -3.803  -4.159   1.798  0.00  0.00    +0.261 C 
BRANCH  23  24
ATOM     24  O   UNL     1      -3.756  -5.523   1.375  0.00  0.00    -0.489 OA
BRANCH  24  25
ATOM     25  C   UNL     1      -4.771  -6.329   1.778  0.00  0.00    +0.121 A 
ATOM     26  C   UNL     1      -5.796  -5.812   2.561  0.00  0.00    +0.046 A 
ATOM     27  C   UNL     1      -6.828  -6.626   2.972  0.00  0.00    +0.018 A 
ATOM     28  C   UNL     1      -6.843  -7.974   2.600  0.00  0.00    +0.059 A 
ATOM     29  C   UNL     1      -5.810  -8.489   1.812  0.00  0.00    +0.018 A 
ATOM     30  C   UNL     1      -4.785  -7.667   1.401  0.00  0.00    +0.046 A 
BRANCH  28  31
ATOM     31  C   UNL     1      -7.946  -8.850   3.038  0.00  0.00    +0.339 C 
ATOM     32  O   UNL     1      -8.843  -8.400   3.723  0.00  0.00    -0.245 OA
BRANCH  31  33
ATOM     33  O   UNL     1      -7.959 -10.148   2.678  0.00  0.00    -0.464 OA
ATOM     34  C   UNL     1      -9.057 -10.938   3.138  0.00  0.00    +0.280 C 
ENDBRANCH  31  33
ENDBRANCH  28  31
ENDBRANCH  24  25
ENDBRANCH  23  24
ENDBRANCH  20  23
ENDBRANCH  19  20
ENDBRANCH   5  19
TORSDOF 9
