REMARK  Name = ZINC40139303
REMARK  4 active torsions:
REMARK  status: ('A' for Active; 'I' for Inactive)
REMARK    1  A    between atoms: C_4  and  C_8
REMARK    2  A    between atoms: C_8  and  N_9
REMARK    3  A    between atoms: N_12  and  C_15
REMARK    4  A    between atoms: C_20  and  N_21
REMARK                            x       y       z     vdW  Elec       q    Type
REMARK                         _______ _______ _______ _____ _____    ______ ____
ROOT
ATOM      1  N   UNL     1       4.154  -0.956   1.342  0.00  0.00    +0.384 N 
ATOM      2  C   UNL     1       3.202  -1.856   2.005  0.00  0.00    -0.059 C 
ATOM      3  C   UNL     1       3.597  -2.023   3.476  0.00  0.00    +0.086 C 
ATOM      4  N   UNL     1       4.997  -2.470   3.534  0.00  0.00    -0.332 N 
ATOM      5  C   UNL     1       5.998  -1.718   2.763  0.00  0.00    +0.086 C 
ATOM      6  C   UNL     1       5.490  -1.565   1.325  0.00  0.00    -0.059 C 
ATOM      7  H   UNL     1       4.191  -0.081   1.843  0.00  0.00    -0.081 HD
ENDROOT
BRANCH   4   8
ATOM      8  C   UNL     1       5.366  -3.578   4.301  0.00  0.00    +0.062 A 
ATOM      9  C   UNL     1       5.365  -4.846   3.736  0.00  0.00    +0.049 A 
ATOM     10  C   UNL     1       5.732  -5.942   4.502  0.00  0.00    +0.038 A 
ATOM     11  C   UNL     1       6.100  -5.769   5.831  0.00  0.00    -0.023 A 
ATOM     12  C   UNL     1       6.099  -4.506   6.390  0.00  0.00    +0.040 A 
ATOM     13  C   UNL     1       5.739  -3.411   5.629  0.00  0.00    +0.147 A 
ATOM     14  C   UNL     1       6.499  -6.963   6.659  0.00  0.00    +0.046 C 
ATOM     15  C   UNL     1       5.686  -8.182   6.224  0.00  0.00    +0.101 C 
ATOM     16  C   UNL     1       5.721  -8.314   4.725  0.00  0.00    +0.218 C 
ATOM     17  O   UNL     1       5.737  -9.417   4.221  0.00  0.00    -0.275 OA
ATOM     18  N   UNL     1       5.734  -7.222   3.938  0.00  0.00    -0.285 N 
ATOM     19  H   UNL     1       5.745  -7.324   2.974  0.00  0.00    +0.155 HD
BRANCH  13  20
ATOM     20  N   UNL     1       5.745  -2.058   6.231  0.00  0.00    +0.058 N 
ATOM     21  O   UNL     1       6.070  -1.912   7.386  0.00  0.00    -0.126 OA
ATOM     22  O   UNL     1       5.426  -1.100   5.567  0.00  0.00    -0.126 OA
ENDBRANCH  13  20
ENDBRANCH   4   8
BRANCH   1  23
ATOM     23  C   UNL     1       3.713  -0.710  -0.038  0.00  0.00    -0.039 C 
BRANCH  23  27
ATOM     24  C   UNL     1      -0.017   1.378   0.010  0.00  0.00    +0.004 A 
ATOM     25  C   UNL     1       1.170   2.086   0.002  0.00  0.00    +0.038 A 
ATOM     26  C   UNL     1       2.379   1.411  -0.013  0.00  0.00    +0.126 A 
ATOM     27  C   UNL     1       2.398   0.026  -0.021  0.00  0.00    -0.010 A 
ATOM     28  C   UNL     1       1.209  -0.680  -0.013  0.00  0.00    +0.045 A 
ATOM     29  C   UNL     1       0.002  -0.004   0.002  0.00  0.00    +0.020 A 
ATOM     30 CL   UNL     1       1.232  -2.416  -0.022  0.00  0.00    -0.083 Cl
ATOM     31  F   UNL     1       3.539   2.103  -0.021  0.00  0.00    -0.205 F 
ENDBRANCH  23  27
ENDBRANCH   1  23
TORSDOF 4
