REMARK  Name = ZINC06454947
REMARK  6 active torsions:
REMARK  status: ('A' for Active; 'I' for Inactive)
REMARK    1  A    between atoms: C_6  and  C_7
REMARK    2  A    between atoms: C_8  and  C_9
REMARK    3  A    between atoms: N_11  and  N_12
REMARK    4  A    between atoms: C_13  and  C_15
REMARK    5  A    between atoms: C_18  and  S_21
REMARK    6  A    between atoms: S_21  and  N_24
REMARK                            x       y       z     vdW  Elec       q    Type
REMARK                         _______ _______ _______ _____ _____    ______ ____
ROOT
ATOM      1  N   UNL     1      -3.674  -4.928   0.012  0.00  0.00    -0.230 N 
ATOM      2  C   UNL     1      -3.652  -6.276   0.005  0.00  0.00    +0.260 C 
ATOM      3  O   UNL     1      -2.590  -6.867  -0.009  0.00  0.00    -0.269 OA
ATOM      4  H   UNL     1      -4.521  -4.457   0.023  0.00  0.00    +0.173 HD
ENDROOT
BRANCH   2   5
ATOM      5  C   UNL     1      -4.920  -7.036   0.013  0.00  0.00    +0.038 A 
ATOM      6  C   UNL     1      -6.142  -6.360   0.023  0.00  0.00    +0.015 A 
ATOM      7  C   UNL     1      -7.322  -7.075   0.030  0.00  0.00    +0.029 A 
ATOM      8  C   UNL     1      -7.296  -8.459   0.029  0.00  0.00    +0.106 A 
ATOM      9  C   UNL     1      -6.089  -9.134   0.019  0.00  0.00    +0.029 A 
ATOM     10  C   UNL     1      -4.902  -8.431   0.005  0.00  0.00    +0.015 A 
BRANCH   8  11
ATOM     11  S   UNL     1      -8.807  -9.364   0.039  0.00  0.00    +0.061 S 
ATOM     12  O   UNL     1      -8.512 -10.642   0.586  0.00  0.00    -0.153 OA
ATOM     13  O   UNL     1      -9.792  -8.505   0.598  0.00  0.00    -0.153 OA
BRANCH  11  14
ATOM     14  N   UNL     1      -9.239  -9.614  -1.540  0.00  0.00    -0.177 NA
ATOM     15  C   UNL     1     -10.071  -8.715  -2.353  0.00  0.00    +0.109 C 
ATOM     16  C   UNL     1     -10.227  -9.367  -3.744  0.00  0.00    +0.018 C 
ATOM     17  C   UNL     1      -9.945 -10.866  -3.458  0.00  0.00    +0.018 C 
ATOM     18  C   UNL     1      -8.848 -10.771  -2.365  0.00  0.00    +0.109 C 
ENDBRANCH  11  14
ENDBRANCH   8  11
ENDBRANCH   2   5
BRANCH   1  21
ATOM     19  C   UNL     1      -2.494  -2.861   0.011  0.00  0.00    +0.253 C 
ATOM     20  O   UNL     1      -3.557  -2.269   0.025  0.00  0.00    -0.269 OA
ATOM     21  N   UNL     1      -2.472  -4.208   0.004  0.00  0.00    -0.231 N 
ATOM     22  H   UNL     1      -1.624  -4.680  -0.007  0.00  0.00    +0.173 HD
BRANCH  19  24
ATOM     23  C   UNL     1      -1.260  -0.760   0.011  0.00  0.00    +0.013 C 
ATOM     24  C   UNL     1      -1.238  -2.109   0.003  0.00  0.00    +0.069 C 
BRANCH  23  30
ATOM     25  C   UNL     1      -0.017   1.395   0.010  0.00  0.00    +0.011 A 
ATOM     26  C   UNL     1       1.169   2.097   0.002  0.00  0.00    +0.039 A 
ATOM     27  C   UNL     1       2.379   1.420  -0.013  0.00  0.00    +0.123 A 
ATOM     28  C   UNL     1       2.405   0.033  -0.021  0.00  0.00    +0.039 A 
ATOM     29  C   UNL     1       1.226  -0.681  -0.014  0.00  0.00    +0.011 A 
ATOM     30  C   UNL     1       0.002  -0.004   0.002  0.00  0.00    -0.025 A 
ATOM     31  F   UNL     1       3.538   2.114  -0.021  0.00  0.00    -0.205 F 
ENDBRANCH  23  30
ENDBRANCH  19  24
ENDBRANCH   1  21
TORSDOF 6
