REMARK  Name = ZINC12844433
REMARK  13 active torsions:
REMARK  status: ('A' for Active; 'I' for Inactive)
REMARK    1  A    between atoms: C_1  and  C_2
REMARK    2  A    between atoms: C_5  and  C_7
REMARK    3  A    between atoms: C_8  and  C_9
REMARK    4  A    between atoms: C_11  and  S_14
REMARK    5  A    between atoms: S_14  and  C_15
REMARK    6  A    between atoms: C_15  and  C_16
REMARK    7  A    between atoms: N_18  and  C_19
REMARK    8  A    between atoms: C_20  and  C_34
REMARK    9  A    between atoms: C_21  and  C_33
REMARK   10  A    between atoms: C_22  and  C_32
REMARK   11  A    between atoms: N_23  and  C_24
REMARK   12  A    between atoms: C_27  and  O_30
REMARK   13  A    between atoms: O_30  and  C_31
REMARK                            x       y       z     vdW  Elec       q    Type
REMARK                         _______ _______ _______ _____ _____    ______ ____
ROOT
ATOM      1  C   UNL     1       7.340  -9.712   0.774  0.00  0.00    +0.229 C 
ATOM      2  O   UNL     1       6.991 -10.251   1.803  0.00  0.00    -0.275 OA
ATOM      3  N   UNL     1       7.815 -10.452  -0.248  0.00  0.00    -0.270 N 
ATOM      4  H   UNL     1       8.022 -10.030  -1.096  0.00  0.00    +0.156 HD
ENDROOT
BRANCH   3   5
ATOM      5  C   UNL     1       8.006 -11.816  -0.086  0.00  0.00    +0.128 A 
ATOM      6  C   UNL     1       9.229 -12.460   0.041  0.00  0.00    +0.095 A 
ATOM      7  C   UNL     1       8.921 -13.888   0.189  0.00  0.00    -0.010 A 
ATOM      8  C   UNL     1       7.584 -14.002   0.143  0.00  0.00    +0.027 A 
ATOM      9  N   UNL     1       7.028 -12.759  -0.017  0.00  0.00    -0.300 N 
ATOM     10  C   UNL     1       6.814 -15.293   0.254  0.00  0.00    +0.064 C 
ATOM     11  C   UNL     1       9.914 -15.009   0.358  0.00  0.00    +0.047 C 
BRANCH   9  12
ATOM     12  C   UNL     1       5.652 -12.498  -0.100  0.00  0.00    +0.048 A 
ATOM     13  C   UNL     1       4.837 -12.710   1.003  0.00  0.00    +0.030 A 
ATOM     14  C   UNL     1       3.483 -12.453   0.920  0.00  0.00    +0.047 A 
ATOM     15  C   UNL     1       2.937 -11.983  -0.265  0.00  0.00    +0.120 A 
ATOM     16  C   UNL     1       3.751 -11.771  -1.368  0.00  0.00    +0.047 A 
ATOM     17  C   UNL     1       5.106 -12.022  -1.285  0.00  0.00    +0.030 A 
BRANCH  15  18
ATOM     18  O   UNL     1       1.604 -11.730  -0.346  0.00  0.00    -0.495 OA
ATOM     19  C   UNL     1       1.109 -11.248  -1.597  0.00  0.00    +0.277 C 
ENDBRANCH  15  18
ENDBRANCH   9  12
BRANCH   6  20
ATOM     20  C   UNL     1      10.527 -11.855   0.028  0.00  0.00    +0.103 C 
ATOM     21  N   UNL     1      11.556 -11.376   0.018  0.00  0.00    -0.191 NA
ENDBRANCH   6  20
ENDBRANCH   3   5
BRANCH   1  22
ATOM     22  C   UNL     1       7.244  -8.214   0.638  0.00  0.00    +0.173 C 
BRANCH  22  23
ATOM     23  S   UNL     1       6.573  -7.510   2.170  0.00  0.00    -0.075 S 
BRANCH  23  26
ATOM     24  C   UNL     1       6.191  -3.652   2.160  0.00  0.00    +0.150 A 
ATOM     25  N   UNL     1       6.094  -4.850   2.714  0.00  0.00    -0.202 NA
ATOM     26  C   UNL     1       6.523  -5.777   1.857  0.00  0.00    +0.209 A 
ATOM     27  N   UNL     1       6.901  -5.195   0.741  0.00  0.00    -0.145 NA
ATOM     28  N   UNL     1       6.693  -3.816   0.905  0.00  0.00    -0.258 N 
ATOM     29  H   UNL     1       6.872  -3.119   0.254  0.00  0.00    +0.191 HD
BRANCH  24  31
ATOM     30  C   UNL     1       5.331  -2.361   4.043  0.00  0.00    +0.050 C 
ATOM     31  C   UNL     1       5.820  -2.379   2.783  0.00  0.00    +0.051 C 
BRANCH  30  36
ATOM     32  C   UNL     1       4.575   2.543   4.702  0.00  0.00    +0.086 C 
ATOM     33  C   UNL     1       4.626   1.060   4.962  0.00  0.00    +0.103 A 
ATOM     34  C   UNL     1       4.247   0.449   6.104  0.00  0.00    +0.045 A 
ATOM     35  C   UNL     1       4.457  -0.930   5.926  0.00  0.00    +0.049 A 
ATOM     36  C   UNL     1       4.961  -1.090   4.665  0.00  0.00    +0.128 A 
ATOM     37  O   UNL     1       5.050   0.128   4.094  0.00  0.00    -0.461 OA
ENDBRANCH  30  36
ENDBRANCH  24  31
ENDBRANCH  23  26
ENDBRANCH  22  23
ENDBRANCH   1  22
TORSDOF 9
