REMARK  Name = ZINC03316745
REMARK  7 active torsions:
REMARK  status: ('A' for Active; 'I' for Inactive)
REMARK    1  A    between atoms: C_2  and  C_3
REMARK    2  A    between atoms: C_3  and  N_4
REMARK    3  A    between atoms: C_13  and  S_14
REMARK    4  A    between atoms: S_14  and  C_15
REMARK    5  A    between atoms: C_15  and  C_16
REMARK    6  A    between atoms: N_18  and  C_19
REMARK    7  A    between atoms: C_20  and  C_28
REMARK                            x       y       z     vdW  Elec       q    Type
REMARK                         _______ _______ _______ _____ _____    ______ ____
ROOT
ATOM      1  S   UNL     1      -0.168  -3.456   0.587  0.00  0.00    -0.078 S 
ENDROOT
BRANCH   1  11
ATOM      2  N   UNL     1      -1.318  -1.700  -1.126  0.00  0.00    -0.283 N 
ATOM      3  C   UNL     1      -1.822  -1.286  -2.303  0.00  0.00    +0.263 A 
ATOM      4  O   UNL     1      -2.254  -0.152  -2.426  0.00  0.00    -0.267 OA
ATOM      5  C   UNL     1      -1.843  -2.195  -3.408  0.00  0.00    +0.076 A 
ATOM      6  C   UNL     1      -2.342  -1.954  -4.767  0.00  0.00    -0.023 A 
ATOM      7  C   UNL     1      -2.256  -2.981  -5.635  0.00  0.00    -0.004 A 
ATOM      8  S   UNL     1      -1.507  -4.302  -4.717  0.00  0.00    -0.073 S 
ATOM      9  C   UNL     1      -1.320  -3.473  -3.159  0.00  0.00    +0.117 A 
ATOM     10  N   UNL     1      -0.837  -3.821  -1.972  0.00  0.00    -0.216 NA
ATOM     11  C   UNL     1      -0.824  -2.963  -0.972  0.00  0.00    +0.173 A 
ATOM     12  C   UNL     1      -2.703  -3.018  -7.063  0.00  0.00    +0.043 C 
ATOM     13  C   UNL     1      -2.165  -1.780  -7.794  0.00  0.00    +0.005 C 
ATOM     14  C   UNL     1      -3.189  -0.658  -7.657  0.00  0.00    +0.001 C 
ATOM     15  C   UNL     1      -3.906  -0.766  -6.312  0.00  0.00    +0.005 C 
ATOM     16  C   UNL     1      -2.918  -0.598  -5.165  0.00  0.00    +0.037 C 
BRANCH   2  17
ATOM     17  C   UNL     1      -1.293  -0.775   0.010  0.00  0.00    +0.154 C 
BRANCH  17  19
ATOM     18  C   UNL     1      -0.016   1.306   0.009  0.00  0.00    +0.005 C 
ATOM     19  C   UNL     1       0.002  -0.004   0.002  0.00  0.00    -0.013 C 
ENDBRANCH  17  19
ENDBRANCH   2  17
ENDBRANCH   1  11
BRANCH   1  20
ATOM     20  C   UNL     1       0.356  -5.172   0.320  0.00  0.00    +0.173 C 
BRANCH  20  21
ATOM     21  C   UNL     1       0.943  -5.722   1.594  0.00  0.00    +0.228 C 
ATOM     22  O   UNL     1       1.003  -5.024   2.585  0.00  0.00    -0.275 OA
ATOM     23  N   UNL     1       1.403  -6.988   1.633  0.00  0.00    -0.279 N 
ATOM     24  H   UNL     1       1.355  -7.546   0.841  0.00  0.00    +0.155 HD
BRANCH  23  25
ATOM     25  C   UNL     1       1.944  -7.494   2.805  0.00  0.00    +0.084 A 
ATOM     26  C   UNL     1       2.465  -8.759   3.027  0.00  0.00    +0.068 A 
ATOM     27  C   UNL     1       2.975  -9.043   4.357  0.00  0.00    -0.023 A 
ATOM     28  C   UNL     1       2.869  -8.011   5.222  0.00  0.00    -0.004 A 
ATOM     29  S   UNL     1       2.124  -6.712   4.281  0.00  0.00    -0.077 S 
ATOM     30  C   UNL     1       3.300  -7.992   6.656  0.00  0.00    +0.043 C 
ATOM     31  C   UNL     1       3.536  -9.440   7.108  0.00  0.00    +0.005 C 
ATOM     32  C   UNL     1       4.395 -10.153   6.060  0.00  0.00    +0.005 C 
ATOM     33  C   UNL     1       3.583 -10.372   4.782  0.00  0.00    +0.037 C 
BRANCH  26  34
ATOM     34  C   UNL     1       2.500  -9.768   1.964  0.00  0.00    +0.244 C 
ATOM     35  O   UNL     1       3.468  -9.845   1.230  0.00  0.00    -0.270 OA
ATOM     36  N   UNL     1       1.461 -10.609   1.798  0.00  0.00    -0.325 N 
ATOM     37  H   UNL     1       0.689 -10.548   2.383  0.00  0.00    +0.145 HD
ATOM     38  H   UNL     1       1.484 -11.277   1.095  0.00  0.00    +0.145 HD
ENDBRANCH  26  34
ENDBRANCH  23  25
ENDBRANCH  20  21
ENDBRANCH   1  20
TORSDOF 7
