REMARK  Name = ZINC27265775
REMARK  8 active torsions:
REMARK  status: ('A' for Active; 'I' for Inactive)
REMARK    1  A    between atoms: C_1  and  C_2
REMARK    2  A    between atoms: C_7  and  N_12
REMARK    3  A    between atoms: C_9  and  C_11
REMARK    4  A    between atoms: N_12  and  C_13
REMARK    5  A    between atoms: C_13  and  N_15
REMARK    6  A    between atoms: N_15  and  N_16
REMARK    7  A    between atoms: C_17  and  C_19
REMARK    8  A    between atoms: C_22  and  C_24
REMARK                            x       y       z     vdW  Elec       q    Type
REMARK                         _______ _______ _______ _____ _____    ______ ____
ROOT
ATOM      1  N   UNL     1      -1.197   2.366   0.021  0.00  0.00    -0.246 N 
ATOM      2  H   UNL     1      -2.143   1.803   0.022  0.00  0.00    +0.172 HD
ENDROOT
BRANCH   1   3
ATOM      3  N   UNL     1      -1.216   3.767   0.028  0.00  0.00    -0.230 N 
ATOM      4  C   UNL     1      -2.393   4.425   0.037  0.00  0.00    +0.279 C 
ATOM      5  O   UNL     1      -3.438   3.802   0.039  0.00  0.00    -0.267 OA
ATOM      6  H   UNL     1      -0.271   4.329   0.027  0.00  0.00    +0.173 HD
BRANCH   4   7
ATOM      7  C   UNL     1      -2.413   5.897   0.045  0.00  0.00    +0.135 A 
ATOM      8  C   UNL     1      -3.605   6.576   0.050  0.00  0.00    +0.080 A 
ATOM      9  S   UNL     1      -3.067   8.227   0.062  0.00  0.00    -0.074 S 
ATOM     10  C   UNL     1      -1.310   7.906   0.051  0.00  0.00    +0.116 A 
ATOM     11  N   UNL     1      -1.279   6.584   0.043  0.00  0.00    -0.234 NA
BRANCH  10  12
ATOM     12  C   UNL     1      -0.192   8.862   0.050  0.00  0.00    +0.044 A 
ATOM     13  C   UNL     1      -0.226  10.234   0.052  0.00  0.00    +0.018 A 
ATOM     14  C   UNL     1       0.964  10.925   0.056  0.00  0.00    +0.008 A 
ATOM     15  C   UNL     1       2.132  10.232   0.045  0.00  0.00    +0.046 A 
ATOM     16  S   UNL     1       1.564   8.540   0.039  0.00  0.00    -0.095 S 
ENDBRANCH  10  12
ENDBRANCH   4   7
ENDBRANCH   1   3
BRANCH   1  17
ATOM     17  C   UNL     1      -0.021   1.708   0.011  0.00  0.00    +0.147 C 
ATOM     18  S   UNL     1       0.002  -0.004   0.002  0.00  0.00    -0.017 S 
BRANCH  17  19
ATOM     19  N   UNL     1       1.137   2.397   0.004  0.00  0.00    -0.322 N 
ATOM     20  H   UNL     1       1.122   3.497   0.010  0.00  0.00    +0.148 HD
BRANCH  19  26
ATOM     21  C   UNL     1       5.905   2.726  -1.259  0.00  0.00    +0.008 C 
ATOM     22  C   UNL     1       4.828   1.831  -0.644  0.00  0.00    -0.009 C 
ATOM     23  C   UNL     1       5.225   1.464   0.787  0.00  0.00    +0.003 C 
ATOM     24  C   UNL     1       4.148   0.569   1.403  0.00  0.00    +0.002 C 
ATOM     25  C   UNL     1       2.813   1.316   1.419  0.00  0.00    +0.022 C 
ATOM     26  C   UNL     1       2.415   1.682  -0.012  0.00  0.00    +0.075 C 
ATOM     27  C   UNL     1       3.493   2.578  -0.627  0.00  0.00    +0.009 C 
ATOM     28  C   UNL     1       3.095   2.944  -2.058  0.00  0.00    +0.009 C 
ENDBRANCH  19  26
ENDBRANCH  17  19
ENDBRANCH   1  17
TORSDOF 6
