REMARK  Name = ZINC02191771
REMARK  10 active torsions:
REMARK  status: ('A' for Active; 'I' for Inactive)
REMARK    1  A    between atoms: C_1  and  C_2
REMARK    2  A    between atoms: C_9  and  N_13
REMARK    3  A    between atoms: C_10  and  C_11
REMARK    4  A    between atoms: N_13  and  C_14
REMARK    5  A    between atoms: C_14  and  C_15
REMARK    6  A    between atoms: C_14  and  C_19
REMARK    7  A    between atoms: C_14  and  N_23
REMARK    8  A    between atoms: C_15  and  O_17
REMARK    9  A    between atoms: O_17  and  C_18
REMARK   10  A    between atoms: C_24  and  C_26
REMARK                            x       y       z     vdW  Elec       q    Type
REMARK                         _______ _______ _______ _____ _____    ______ ____
ROOT
ATOM      1  C   UNL     1       5.858   1.297  -4.109  0.00  0.00    +0.296 C 
ENDROOT
BRANCH   1   2
ATOM      2  C   UNL     1       6.269   0.227  -3.095  0.00  0.00    +0.438 C 
ATOM      3  F   UNL     1       6.006  -1.041  -3.624  0.00  0.00    -0.166 F 
ATOM      4  F   UNL     1       7.636   0.345  -2.823  0.00  0.00    -0.166 F 
ATOM      5  F   UNL     1       5.542   0.400  -1.913  0.00  0.00    -0.166 F 
ENDBRANCH   1   2
BRANCH   1   6
ATOM      6  N   UNL     1       6.714   1.202  -5.294  0.00  0.00    -0.274 N 
ATOM      7  C   UNL     1       6.729   2.203  -6.196  0.00  0.00    +0.248 C 
ATOM      8  O   UNL     1       6.103   3.223  -5.983  0.00  0.00    -0.270 OA
ATOM      9  H   UNL     1       7.270   0.419  -5.429  0.00  0.00    +0.152 HD
BRANCH   7  10
ATOM     10  C   UNL     1       7.505   2.061  -7.445  0.00  0.00    +0.055 A 
ATOM     11  C   UNL     1       8.225   0.890  -7.694  0.00  0.00    +0.014 A 
ATOM     12  C   UNL     1       8.948   0.763  -8.861  0.00  0.00    +0.001 A 
ATOM     13  C   UNL     1       8.961   1.792  -9.787  0.00  0.00    +0.001 A 
ATOM     14  C   UNL     1       8.250   2.954  -9.549  0.00  0.00    +0.021 A 
ATOM     15  C   UNL     1       7.518   3.094  -8.385  0.00  0.00    +0.053 A 
ATOM     16 CL   UNL     1       6.621   4.550  -8.090  0.00  0.00    -0.083 Cl
ENDBRANCH   7  10
ENDBRANCH   1   6
BRANCH   1  17
ATOM     17  N   UNL     1       4.461   1.089  -4.498  0.00  0.00    -0.301 N 
ATOM     18  H   UNL     1       4.244   0.833  -5.408  0.00  0.00    +0.149 HD
BRANCH  17  26
ATOM     19  C   UNL     1      -0.936   2.031   1.083  0.00  0.00    +0.008 C 
ATOM     20  C   UNL     1      -0.203   1.494  -0.148  0.00  0.00    -0.009 C 
ATOM     21  C   UNL     1      -0.858   2.043  -1.419  0.00  0.00    +0.008 C 
ATOM     22  C   UNL     1      -0.297   1.324  -2.647  0.00  0.00    +0.037 C 
ATOM     23  C   UNL     1       1.225   1.391  -2.601  0.00  0.00    -0.018 A 
ATOM     24  C   UNL     1       1.875   1.671  -1.451  0.00  0.00    -0.004 A 
ATOM     25  S   UNL     1       3.592   1.640  -1.883  0.00  0.00    -0.077 S 
ATOM     26  C   UNL     1       3.451   1.259  -3.567  0.00  0.00    +0.086 A 
ATOM     27  C   UNL     1       2.079   1.165  -3.756  0.00  0.00    +0.083 A 
ATOM     28  C   UNL     1       1.264   1.946  -0.112  0.00  0.00    +0.046 C 
BRANCH  27  29
ATOM     29  C   UNL     1       1.525   0.857  -5.040  0.00  0.00    +0.102 C 
ATOM     30  N   UNL     1       1.086   0.613  -6.059  0.00  0.00    -0.191 NA
ENDBRANCH  27  29
ENDBRANCH  17  26
ENDBRANCH   1  17
BRANCH   1  31
ATOM     31  C   UNL     1       6.009   2.662  -3.488  0.00  0.00    +0.359 C 
ATOM     32  O   UNL     1       5.030   3.275  -3.132  0.00  0.00    -0.246 OA
BRANCH  31  33
ATOM     33  O   UNL     1       7.230   3.196  -3.330  0.00  0.00    -0.465 OA
ATOM     34  C   UNL     1       7.300   4.514  -2.724  0.00  0.00    +0.280 C 
ENDBRANCH  31  33
ENDBRANCH   1  31
TORSDOF 8
