REMARK  Name = ZINC14160430
REMARK  8 active torsions:
REMARK  status: ('A' for Active; 'I' for Inactive)
REMARK    1  A    between atoms: C_1  and  C_2
REMARK    2  A    between atoms: C_7  and  N_8
REMARK    3  A    between atoms: N_15  and  C_16
REMARK    4  A    between atoms: C_16  and  N_18
REMARK    5  A    between atoms: N_18  and  C_19
REMARK    6  A    between atoms: C_19  and  C_20
REMARK    7  A    between atoms: C_29  and  C_34
REMARK    8  A    between atoms: C_31  and  C_33
REMARK                            x       y       z     vdW  Elec       q    Type
REMARK                         _______ _______ _______ _____ _____    ______ ____
ROOT
ATOM      1  N   UNL     1       3.086  -2.529  -0.630  0.00  0.00    -0.327 N 
ATOM      2  C   UNL     1       2.054  -2.318  -1.655  0.00  0.00    +0.124 C 
ATOM      3  C   UNL     1       1.626  -0.846  -1.647  0.00  0.00    +0.126 C 
ATOM      4  N   UNL     1       1.227  -0.483  -0.279  0.00  0.00    -0.302 N 
ATOM      5  C   UNL     1       2.157  -0.785   0.820  0.00  0.00    +0.126 C 
ATOM      6  C   UNL     1       2.562  -2.264   0.716  0.00  0.00    +0.124 C 
ATOM      7  C   UNL     1       0.029   0.124  -0.036  0.00  0.00    +0.180 C 
ATOM      8  N   UNL     1      -1.066  -0.605   0.097  0.00  0.00    -0.164 NA
ATOM      9  N   UNL     1      -0.039   1.487   0.070  0.00  0.00    -0.258 N 
ATOM     10  C   UNL     1       1.121   2.246   0.011  0.00  0.00    +0.222 A 
ATOM     11  N   UNL     1       2.272   1.648  -0.256  0.00  0.00    -0.219 NA
ATOM     12  C   UNL     1       3.396   2.343  -0.325  0.00  0.00    +0.044 A 
ATOM     13  C   UNL     1       3.359   3.711  -0.102  0.00  0.00    +0.046 A 
ATOM     14  C   UNL     1       2.138   4.303   0.180  0.00  0.00    +0.044 A 
ATOM     15  N   UNL     1       1.052   3.551   0.229  0.00  0.00    -0.219 NA
ATOM     16  C   UNL     1       2.050   5.787   0.430  0.00  0.00    +0.066 C 
ATOM     17  C   UNL     1       4.700   1.656  -0.636  0.00  0.00    +0.066 C 
ATOM     18  H   UNL     1      -0.899   1.922   0.182  0.00  0.00    +0.157 HD
ENDROOT
BRANCH   1  25
ATOM     19  C   UNL     1       5.874  -2.797  -1.125  0.00  0.00    +0.045 C 
ATOM     20  C   UNL     1       4.975  -3.995  -0.955  0.00  0.00    -0.029 A 
ATOM     21  C   UNL     1       5.500  -5.270  -1.038  0.00  0.00    +0.006 A 
ATOM     22  C   UNL     1       4.677  -6.370  -0.882  0.00  0.00    +0.020 A 
ATOM     23  C   UNL     1       3.324  -6.197  -0.643  0.00  0.00    +0.043 A 
ATOM     24  C   UNL     1       2.794  -4.924  -0.554  0.00  0.00    +0.043 A 
ATOM     25  C   UNL     1       3.619  -3.818  -0.715  0.00  0.00    +0.034 A 
ATOM     26 CL   UNL     1       2.295  -7.581  -0.447  0.00  0.00    -0.083 Cl
ENDBRANCH   1  25
BRANCH   8  27
ATOM     27  C   UNL     1      -0.976  -1.940   0.184  0.00  0.00    +0.157 C 
ATOM     28  S   UNL     1      -0.256  -2.661   1.560  0.00  0.00    -0.017 S 
BRANCH  27  29
ATOM     29  N   UNL     1      -1.453  -2.714  -0.810  0.00  0.00    -0.322 N 
ATOM     30  H   UNL     1      -1.862  -2.306  -1.590  0.00  0.00    +0.148 HD
BRANCH  29  31
ATOM     31  C   UNL     1      -1.355  -4.173  -0.715  0.00  0.00    +0.134 C 
BRANCH  31  32
ATOM     32  C   UNL     1      -1.966  -4.808  -1.965  0.00  0.00    +0.135 C 
ATOM     33  C   UNL     1      -1.988  -6.347  -1.831  0.00  0.00    +0.035 C 
ATOM     34  C   UNL     1      -1.674  -6.853  -3.257  0.00  0.00    +0.031 C 
ATOM     35  C   UNL     1      -1.500  -5.559  -4.084  0.00  0.00    +0.160 C 
ATOM     36  O   UNL     1      -1.136  -4.550  -3.118  0.00  0.00    -0.375 OA
ENDBRANCH  31  32
ENDBRANCH  29  31
ENDBRANCH  27  29
ENDBRANCH   8  27
TORSDOF 5
