REMARK  Name = ZINC22057048
REMARK  9 active torsions:
REMARK  status: ('A' for Active; 'I' for Inactive)
REMARK    1  A    between atoms: C_1  and  C_2
REMARK    2  A    between atoms: C_2  and  C_3
REMARK    3  A    between atoms: C_2  and  C_4
REMARK    4  A    between atoms: C_7  and  C_10
REMARK    5  A    between atoms: C_12  and  C_15
REMARK    6  A    between atoms: C_15  and  O_16
REMARK    7  A    between atoms: O_16  and  C_17
REMARK    8  A    between atoms: C_17  and  C_19
REMARK    9  A    between atoms: C_21  and  N_27
REMARK                            x       y       z     vdW  Elec       q    Type
REMARK                         _______ _______ _______ _____ _____    ______ ____
ROOT
ATOM      1  C   UNL     1      -4.033   5.366   7.048  0.00  0.00    +0.331 C 
ENDROOT
BRANCH   1   4
ATOM      2  C   UNL     1      -2.708   2.943   4.747  0.00  0.00    +0.202 A 
ATOM      3  N   UNL     1      -2.914   4.232   5.100  0.00  0.00    -0.188 NA
ATOM      4  C   UNL     1      -3.562   4.186   6.237  0.00  0.00    +0.265 A 
ATOM      5  O   UNL     1      -3.723   2.896   6.546  0.00  0.00    -0.334 OA
ATOM      6  N   UNL     1      -3.230   2.198   5.686  0.00  0.00    -0.056 NA
BRANCH   2  10
ATOM      7  C   UNL     1      -0.718   1.572   1.248  0.00  0.00    -0.045 A 
ATOM      8  C   UNL     1      -0.854   2.929   1.476  0.00  0.00    +0.004 A 
ATOM      9  C   UNL     1      -1.504   3.380   2.607  0.00  0.00    +0.012 A 
ATOM     10  C   UNL     1      -2.013   2.465   3.526  0.00  0.00    +0.022 A 
ATOM     11  C   UNL     1      -1.868   1.098   3.294  0.00  0.00    +0.012 A 
ATOM     12  C   UNL     1      -1.222   0.659   2.157  0.00  0.00    +0.004 A 
BRANCH   7  14
ATOM     13  C   UNL     1       1.423   1.615  -0.003  0.00  0.00    +0.012 C 
ATOM     14  C   UNL     1      -0.013   1.086   0.008  0.00  0.00    +0.013 C 
ATOM     15  C   UNL     1      -0.753   1.593  -1.232  0.00  0.00    +0.012 C 
ENDBRANCH   7  14
ENDBRANCH   2  10
ENDBRANCH   1   4
BRANCH   1  16
ATOM     16  O   UNL     1      -5.376   5.732   6.636  0.00  0.00    -0.450 OA
BRANCH  16  17
ATOM     17  C   UNL     1      -5.947   6.776   7.267  0.00  0.00    +0.360 C 
ATOM     18  O   UNL     1      -5.339   7.364   8.139  0.00  0.00    -0.243 OA
BRANCH  17  19
ATOM     19  C   UNL     1      -7.313   7.206   6.900  0.00  0.00    +0.169 A 
ATOM     20  C   UNL     1      -7.899   8.282   7.561  0.00  0.00    +0.095 A 
ATOM     21  C   UNL     1      -9.187   8.678   7.199  0.00  0.00    +0.067 A 
ATOM     22  C   UNL     1      -9.839   7.968   6.192  0.00  0.00    +0.100 A 
ATOM     23  C   UNL     1      -9.191   6.904   5.585  0.00  0.00    +0.150 A 
ATOM     24  N   UNL     1      -7.973   6.557   5.945  0.00  0.00    -0.226 NA
ATOM     25 CL   UNL     1      -9.998   6.015   4.330  0.00  0.00    -0.060 Cl
ATOM     26 CL   UNL     1     -11.445   8.411   5.705  0.00  0.00    -0.078 Cl
ATOM     27 CL   UNL     1      -7.037   9.122   8.812  0.00  0.00    -0.079 Cl
BRANCH  21  28
ATOM     28  N   UNL     1      -9.808   9.754   7.831  0.00  0.00    -0.356 N 
ATOM     29  H   UNL     1     -10.824  10.054   7.535  0.00  0.00    +0.142 HD
ATOM     30  H   UNL     1      -9.282  10.302   8.627  0.00  0.00    +0.142 HD
ENDBRANCH  21  28
ENDBRANCH  17  19
ENDBRANCH  16  17
ENDBRANCH   1  16
TORSDOF 7
