REMARK  Name = ZINC04411429
REMARK  8 active torsions:
REMARK  status: ('A' for Active; 'I' for Inactive)
REMARK    1  A    between atoms: C_1  and  C_2
REMARK    2  A    between atoms: C_2  and  C_3
REMARK    3  A    between atoms: C_3  and  C_5
REMARK    4  A    between atoms: C_3  and  N_6
REMARK    5  A    between atoms: C_7  and  C_9
REMARK    6  A    between atoms: N_14  and  S_16
REMARK    7  A    between atoms: S_16  and  C_19
REMARK    8  A    between atoms: C_22  and  N_25
REMARK                            x       y       z     vdW  Elec       q    Type
REMARK                         _______ _______ _______ _____ _____    ______ ____
ROOT
ATOM      1  C   UNL     1      -4.140   0.357  -2.544  0.00  0.00    +0.091 C 
ATOM      2  C   UNL     1      -3.826  -0.670  -3.634  0.00  0.00    +0.015 C 
ATOM      3  C   UNL     1      -4.500  -0.251  -4.942  0.00  0.00    +0.018 C 
ATOM      4  C   UNL     1      -6.018  -0.211  -4.739  0.00  0.00    +0.109 C 
ATOM      5  N   UNL     1      -6.319   0.664  -3.597  0.00  0.00    -0.176 NA
ATOM      6  C   UNL     1      -5.653   0.405  -2.313  0.00  0.00    +0.122 C 
ENDROOT
BRANCH   1   8
ATOM      7  N   UNL     1      -2.105  -0.148  -1.230  0.00  0.00    -0.312 N 
ATOM      8  C   UNL     1      -3.448  -0.040  -1.265  0.00  0.00    +0.218 C 
ATOM      9  O   UNL     1      -4.100  -0.261  -0.267  0.00  0.00    -0.275 OA
ATOM     10  H   UNL     1      -1.584   0.029  -2.029  0.00  0.00    +0.149 HD
BRANCH   7  11
ATOM     11  C   UNL     1      -1.433  -0.534   0.013  0.00  0.00    +0.070 C 
ATOM     12  C   UNL     1      -1.413  -2.059   0.130  0.00  0.00    +0.028 C 
BRANCH  11  14
ATOM     13  C   UNL     1      -0.019   1.526   0.010  0.00  0.00    +0.005 C 
ATOM     14  C   UNL     1       0.002  -0.004   0.002  0.00  0.00    +0.018 C 
ENDBRANCH  11  14
ENDBRANCH   7  11
ENDBRANCH   1   8
BRANCH   5  15
ATOM     15  S   UNL     1      -7.389   1.918  -3.754  0.00  0.00    +0.061 S 
ATOM     16  O   UNL     1      -7.058   2.863  -2.745  0.00  0.00    -0.153 OA
ATOM     17  O   UNL     1      -7.418   2.257  -5.134  0.00  0.00    -0.153 OA
BRANCH  15  18
ATOM     18  C   UNL     1      -8.987   1.294  -3.355  0.00  0.00    +0.106 A 
ATOM     19  C   UNL     1      -9.784   0.752  -4.348  0.00  0.00    +0.030 A 
ATOM     20  C   UNL     1     -11.037   0.261  -4.038  0.00  0.00    +0.030 A 
ATOM     21  C   UNL     1     -11.497   0.311  -2.729  0.00  0.00    +0.069 A 
ATOM     22  C   UNL     1     -10.695   0.856  -1.735  0.00  0.00    +0.030 A 
ATOM     23  C   UNL     1      -9.440   1.340  -2.050  0.00  0.00    +0.030 A 
BRANCH  21  24
ATOM     24  N   UNL     1     -12.769  -0.186  -2.411  0.00  0.00    -0.200 N 
ATOM     25  C   UNL     1     -13.362  -0.207  -1.198  0.00  0.00    +0.250 A 
ATOM     26  N   UNL     1     -14.539  -0.755  -1.350  0.00  0.00    -0.116 NA
ATOM     27  N   UNL     1     -14.730  -1.083  -2.577  0.00  0.00    -0.023 NA
ATOM     28  N   UNL     1     -13.703  -0.765  -3.289  0.00  0.00    -0.039 NA
ENDBRANCH  21  24
ENDBRANCH  15  18
ENDBRANCH   5  15
TORSDOF 6
