REMARK  Name = ZINC63515424
REMARK  11 active torsions:
REMARK  status: ('A' for Active; 'I' for Inactive)
REMARK    1  A    between atoms: C_1  and  C_2
REMARK    2  A    between atoms: C_4  and  C_14
REMARK    3  A    between atoms: C_7  and  O_12
REMARK    4  A    between atoms: O_12  and  C_13
REMARK    5  A    between atoms: C_14  and  C_15
REMARK    6  A    between atoms: C_15  and  N_16
REMARK    7  A    between atoms: C_17  and  C_19
REMARK    8  A    between atoms: C_25  and  C_27
REMARK    9  A    between atoms: C_27  and  O_29
REMARK   10  A    between atoms: O_29  and  C_30
REMARK   11  A    between atoms: C_30  and  C_31
REMARK                            x       y       z     vdW  Elec       q    Type
REMARK                         _______ _______ _______ _____ _____    ______ ____
ROOT
ATOM      1  N   UNL     1      -4.819  -0.825  -1.544  0.00  0.00    -0.315 N 
ATOM      2  C   UNL     1      -6.036  -1.378  -1.371  0.00  0.00    +0.217 C 
ATOM      3  O   UNL     1      -6.259  -2.061  -0.394  0.00  0.00    -0.275 OA
ATOM      4  H   UNL     1      -4.641  -0.279  -2.326  0.00  0.00    +0.149 HD
ENDROOT
BRANCH   2   5
ATOM      5  C   UNL     1      -7.120  -1.149  -2.393  0.00  0.00    +0.089 C 
ATOM      6  C   UNL     1      -7.408   0.350  -2.504  0.00  0.00    +0.013 C 
ATOM      7  C   UNL     1      -7.866   0.883  -1.145  0.00  0.00    +0.001 C 
ATOM      8  C   UNL     1      -9.138   0.150  -0.712  0.00  0.00    +0.001 C 
ATOM      9  C   UNL     1      -8.850  -1.349  -0.602  0.00  0.00    +0.015 C 
ATOM     10  C   UNL     1      -8.392  -1.882  -1.961  0.00  0.00    +0.110 C 
BRANCH  10  11
ATOM     11  C   UNL     1      -8.108  -3.358  -1.852  0.00  0.00    +0.311 C 
ATOM     12  O   UNL     1      -7.003  -3.780  -2.095  0.00  0.00    -0.251 OA
BRANCH  11  13
ATOM     13  O   UNL     1      -9.084  -4.203  -1.484  0.00  0.00    -0.455 OA
BRANCH  13  14
ATOM     14  C   UNL     1      -8.745  -5.589  -1.402  0.00  0.00    +0.345 C 
BRANCH  14  15
ATOM     15  C   UNL     1      -9.975  -6.391  -0.972  0.00  0.00    +0.424 C 
ATOM     16  F   UNL     1     -10.997  -6.216  -1.911  0.00  0.00    -0.167 F 
ATOM     17  F   UNL     1      -9.643  -7.747  -0.891  0.00  0.00    -0.167 F 
ATOM     18  F   UNL     1     -10.410  -5.941   0.280  0.00  0.00    -0.167 F 
ENDBRANCH  14  15
ENDBRANCH  13  14
ENDBRANCH  11  13
ENDBRANCH  10  11
ENDBRANCH   2   5
BRANCH   1  19
ATOM     19  C   UNL     1      -3.765  -1.048  -0.551  0.00  0.00    +0.108 C 
BRANCH  19  20
ATOM     20  C   UNL     1      -2.494  -0.315  -0.984  0.00  0.00    +0.052 C 
BRANCH  20  23
ATOM     21  C   UNL     1      -0.019   1.526   0.010  0.00  0.00    +0.035 C 
ATOM     22  C   UNL     1       0.002  -0.004   0.002  0.00  0.00    +0.103 C 
ATOM     23  C   UNL     1      -1.410  -0.545   0.038  0.00  0.00    -0.037 C 
ATOM     24  C   UNL     1      -1.503  -1.275   1.172  0.00  0.00    +0.003 A 
ATOM     25  C   UNL     1      -2.598  -2.045   1.773  0.00  0.00    +0.055 A 
ATOM     26  C   UNL     1      -2.393  -2.691   2.946  0.00  0.00    +0.121 A 
ATOM     27  C   UNL     1      -1.160  -2.651   3.620  0.00  0.00    +0.047 A 
ATOM     28  C   UNL     1      -0.095  -1.970   3.147  0.00  0.00    +0.029 A 
ATOM     29  C   UNL     1      -0.204  -1.234   1.883  0.00  0.00    +0.043 A 
ATOM     30  N   UNL     1       0.658  -0.508   1.214  0.00  0.00    -0.378 N 
ATOM     31  H   UNL     1       1.576  -0.332   1.476  0.00  0.00    +0.160 HD
BRANCH  26  32
ATOM     32  O   UNL     1      -3.416  -3.401   3.491  0.00  0.00    -0.495 OA
ATOM     33  C   UNL     1      -3.157  -4.065   4.729  0.00  0.00    +0.277 C 
ENDBRANCH  26  32
ENDBRANCH  20  23
ENDBRANCH  19  20
ENDBRANCH   1  19
TORSDOF 9
