REMARK  Name = ZINC20611078
REMARK  2 active torsions:
REMARK  status: ('A' for Active; 'I' for Inactive)
REMARK    1  A    between atoms: C_11  and  C_16
REMARK    2  A    between atoms: N_22  and  C_25
REMARK                            x       y       z     vdW  Elec       q    Type
REMARK                         _______ _______ _______ _____ _____    ______ ____
ROOT
ATOM      1  C   UNL     1      -0.016   1.361   0.009  0.00  0.00    +0.001 A 
ATOM      2  C   UNL     1       1.169   2.083   0.002  0.00  0.00    +0.002 A 
ATOM      3  C   UNL     1       2.385   1.435  -0.013  0.00  0.00    +0.026 A 
ATOM      4  C   UNL     1       2.428   0.045  -0.021  0.00  0.00    +0.047 A 
ATOM      5  C   UNL     1       1.222  -0.684  -0.013  0.00  0.00    +0.003 A 
ATOM      6  C   UNL     1       0.002  -0.004   0.002  0.00  0.00    +0.010 A 
ATOM      7  C   UNL     1       1.609  -2.088  -0.025  0.00  0.00    -0.022 A 
ATOM      8  C   UNL     1       2.957  -2.137  -0.037  0.00  0.00    +0.011 A 
ATOM      9  N   UNL     1       3.460  -0.869  -0.036  0.00  0.00    -0.359 N 
ATOM     10  H   UNL     1       4.404  -0.644  -0.045  0.00  0.00    +0.166 HD
ATOM     11  C   UNL     1       3.729  -3.436  -0.046  0.00  0.00    +0.018 C 
ATOM     12  N   UNL     1       2.830  -4.518   0.382  0.00  0.00    +0.388 N 
ATOM     13  C   UNL     1       1.605  -4.511  -0.429  0.00  0.00    -0.076 C 
ATOM     14  C   UNL     1       0.731  -3.313  -0.028  0.00  0.00    +0.018 C 
ATOM     15  H   UNL     1       3.298  -5.405   0.272  0.00  0.00    -0.084 HD
ATOM     16  H   UNL     1       2.589  -4.388   1.353  0.00  0.00    -0.084 HD
ENDROOT
BRANCH  11  17
ATOM     17  C   UNL     1       4.896  -3.337   0.902  0.00  0.00    +0.073 A 
ATOM     18  C   UNL     1       4.682  -3.198   2.285  0.00  0.00    +0.260 A 
ATOM     19  N   UNL     1       5.739  -3.112   3.116  0.00  0.00    -0.275 N 
ATOM     20  H   UNL     1       5.594  -3.016   4.071  0.00  0.00    +0.173 HD
ATOM     21  C   UNL     1       6.994  -3.160   2.632  0.00  0.00    +0.332 A 
ATOM     22  O   UNL     1       7.934  -3.081   3.399  0.00  0.00    -0.246 OA
ATOM     23  N   UNL     1       7.223  -3.293   1.313  0.00  0.00    -0.258 N 
ATOM     24  C   UNL     1       6.175  -3.388   0.432  0.00  0.00    +0.262 A 
ATOM     25  O   UNL     1       6.409  -3.527  -0.890  0.00  0.00    -0.267 OA
ATOM     26  O   UNL     1       3.547  -3.155   2.728  0.00  0.00    -0.267 OA
BRANCH  23  27
ATOM     27  C   UNL     1       8.599  -3.342   0.815  0.00  0.00    +0.095 C 
ATOM     28  C   UNL     1       9.327  -4.533   1.442  0.00  0.00    +0.025 C 
ATOM     29  C   UNL     1      10.765  -4.584   0.921  0.00  0.00    +0.002 C 
ATOM     30  C   UNL     1      11.489  -3.289   1.296  0.00  0.00    +0.000 C 
ATOM     31  C   UNL     1      10.761  -2.098   0.669  0.00  0.00    +0.002 C 
ATOM     32  C   UNL     1       9.323  -2.047   1.190  0.00  0.00    +0.025 C 
ENDBRANCH  23  27
ENDBRANCH  11  17
TORSDOF 2
