REMARK  Name = ZINC04485394
REMARK  5 active torsions:
REMARK  status: ('A' for Active; 'I' for Inactive)
REMARK    1  A    between atoms: C_3  and  C_7
REMARK    2  A    between atoms: C_7  and  C_9
REMARK    3  A    between atoms: C_9  and  S_10
REMARK    4  A    between atoms: S_10  and  C_11
REMARK    5  A    between atoms: C_17  and  C_22
REMARK                            x       y       z     vdW  Elec       q    Type
REMARK                         _______ _______ _______ _____ _____    ______ ____
ROOT
ATOM      1  C   UNL     1       2.363   0.046  -0.021  0.00  0.00    +0.170 A 
ATOM      2  N   UNL     1       1.185  -0.644  -0.013  0.00  0.00    -0.301 N 
ATOM      3  H   UNL     1       1.203  -1.644  -0.018  0.00  0.00    +0.171 HD
ATOM      4  C   UNL     1       0.002  -0.004   0.002  0.00  0.00    +0.261 A 
ATOM      5  O   UNL     1      -1.041  -0.635   0.008  0.00  0.00    -0.267 OA
ATOM      6  C   UNL     1      -0.017   1.424   0.010  0.00  0.00    +0.080 A 
ATOM      7  C   UNL     1      -1.163   2.330   0.020  0.00  0.00    +0.010 A 
ATOM      8  C   UNL     1      -0.935   3.667   0.031  0.00  0.00    +0.057 A 
ATOM      9  S   UNL     1       0.843   3.784   0.014  0.00  0.00    -0.076 S 
ATOM     10  C   UNL     1       1.239   2.054   0.001  0.00  0.00    +0.117 A 
ATOM     11  N   UNL     1       2.373   1.364  -0.013  0.00  0.00    -0.216 NA
ENDROOT
BRANCH   7  12
ATOM     12  C   UNL     1      -2.542   1.801   0.023  0.00  0.00    +0.021 A 
ATOM     13  C   UNL     1      -3.587   2.122   0.848  0.00  0.00    +0.016 A 
ATOM     14  C   UNL     1      -4.799   1.491   0.657  0.00  0.00    +0.008 A 
ATOM     15  C   UNL     1      -4.915   0.569  -0.332  0.00  0.00    +0.046 A 
ATOM     16  S   UNL     1      -3.278   0.572  -1.042  0.00  0.00    -0.097 S 
ENDBRANCH   7  12
BRANCH   1  17
ATOM     17  S   UNL     1       3.888  -0.836  -0.041  0.00  0.00    -0.080 S 
BRANCH  17  18
ATOM     18  C   UNL     1       5.052   0.550  -0.045  0.00  0.00    +0.158 C 
BRANCH  18  19
ATOM     19  C   UNL     1       6.463   0.021  -0.062  0.00  0.00    +0.189 C 
ATOM     20  O   UNL     1       6.662  -1.177  -0.070  0.00  0.00    -0.290 OA
BRANCH  19  23
ATOM     21  C   UNL     1       8.791   2.780  -0.070  0.00  0.00    +0.020 A 
ATOM     22  C   UNL     1       7.479   2.301  -0.066  0.00  0.00    +0.030 A 
ATOM     23  C   UNL     1       7.555   0.918  -0.068  0.00  0.00    +0.083 A 
ATOM     24  N   UNL     1       8.891   0.579  -0.083  0.00  0.00    -0.358 N 
ATOM     25  H   UNL     1       9.245  -0.324  -0.091  0.00  0.00    +0.165 HD
ATOM     26  C   UNL     1       9.625   1.710  -0.084  0.00  0.00    +0.083 A 
ENDBRANCH  19  23
ENDBRANCH  18  19
ENDBRANCH  17  18
ENDBRANCH   1  17
TORSDOF 5
