REMARK  Name = ZINC08918118
REMARK  9 active torsions:
REMARK  status: ('A' for Active; 'I' for Inactive)
REMARK    1  A    between atoms: C_1  and  C_2
REMARK    2  A    between atoms: C_5  and  C_8
REMARK    3  A    between atoms: C_8  and  C_10
REMARK    4  A    between atoms: C_8  and  C_34
REMARK    5  A    between atoms: C_10  and  C_11
REMARK    6  A    between atoms: C_11  and  N_70
REMARK    7  A    between atoms: C_12  and  C_13
REMARK    8  A    between atoms: C_12  and  N_70
REMARK    9  A    between atoms: C_20  and  C_33
REMARK                            x       y       z     vdW  Elec       q    Type
REMARK                         _______ _______ _______ _____ _____    ______ ____
ROOT
ATOM      1  C   UNL     1       2.523   0.119  -1.750  0.00  0.00    -0.068 C 
ENDROOT
BRANCH   1   2
ATOM      2  C   UNL     1       1.769   1.430  -1.516  0.00  0.00    +0.087 C 
ATOM      3  C   UNL     1       1.438   1.605  -0.003  0.00  0.00    +0.042 C 
ATOM      4  C   UNL     1       1.486   3.105   0.298  0.00  0.00    +0.014 C 
ATOM      5  C   UNL     1       0.746   3.420   1.595  0.00  0.00    +0.030 C 
ATOM      6  C   UNL     1      -0.730   3.041   1.409  0.00  0.00    -0.023 C 
ATOM      7  C   UNL     1      -1.521   3.465   2.648  0.00  0.00    +0.007 C 
ATOM      8  C   UNL     1      -1.453   4.981   2.839  0.00  0.00    +0.003 C 
ATOM      9  C   UNL     1       0.001   5.400   3.079  0.00  0.00    +0.037 C 
ATOM     10  C   UNL     1       0.857   4.913   1.907  0.00  0.00    +0.096 C 
ATOM     11  C   UNL     1       2.203   5.597   1.673  0.00  0.00    +0.196 C 
ATOM     12  O   UNL     1       1.075   5.811   0.821  0.00  0.00    -0.368 OA
ATOM     13  C   UNL     1      -0.817   1.560   1.194  0.00  0.00    +0.052 C 
ATOM     14  C   UNL     1      -0.013   1.086   0.008  0.00  0.00    +0.181 C 
ATOM     15  O   UNL     1      -0.554   1.558  -1.259  0.00  0.00    -0.461 OA
ATOM     16  C   UNL     1       0.411   1.389  -2.191  0.00  0.00    +0.309 C 
ATOM     17  O   UNL     1       0.221   1.232  -3.374  0.00  0.00    -0.251 OA
ATOM     18  C   UNL     1      -1.298   3.764   0.186  0.00  0.00    +0.011 C 
ENDBRANCH   1   2
BRANCH   1  19
ATOM     19  N   UNL     1       2.925   0.040  -3.167  0.00  0.00    +0.380 N 
ATOM     20  H   UNL     1       2.087   0.071  -3.760  0.00  0.00    -0.086 HD
ATOM     21  H   UNL     1       3.533   0.837  -3.392  0.00  0.00    -0.086 HD
BRANCH  19  22
ATOM     22  C   UNL     1       3.656  -1.216  -3.423  0.00  0.00    -0.082 C 
BRANCH  22  23
ATOM     23  C   UNL     1       4.060  -1.269  -4.897  0.00  0.00    -0.003 C 
BRANCH  23  24
ATOM     24  C   UNL     1       4.818  -2.570  -5.171  0.00  0.00    +0.083 C 
BRANCH  24  29
ATOM     25  C   UNL     1       5.933  -2.995 -10.825  0.00  0.00    +0.044 C 
ATOM     26  C   UNL     1       5.642  -2.884  -9.351  0.00  0.00    -0.050 A 
ATOM     27  C   UNL     1       4.883  -3.853  -8.722  0.00  0.00    +0.003 A 
ATOM     28  C   UNL     1       4.616  -3.751  -7.369  0.00  0.00    +0.004 A 
ATOM     29  C   UNL     1       5.109  -2.680  -6.646  0.00  0.00    -0.037 A 
ATOM     30  C   UNL     1       5.863  -1.709  -7.277  0.00  0.00    +0.004 A 
ATOM     31  C   UNL     1       6.134  -1.813  -8.628  0.00  0.00    +0.003 A 
ENDBRANCH  24  29
BRANCH  24  32
ATOM     32  C   UNL     1       6.114  -2.567  -4.403  0.00  0.00    +0.112 A 
ATOM     33  C   UNL     1       6.478  -3.465  -3.470  0.00  0.00    +0.045 A 
ATOM     34  C   UNL     1       7.760  -3.083  -3.011  0.00  0.00    +0.041 A 
ATOM     35  C   UNL     1       8.103  -1.975  -3.692  0.00  0.00    +0.195 A 
ATOM     36  O   UNL     1       7.105  -1.670  -4.537  0.00  0.00    -0.467 OA
ENDBRANCH  24  32
ENDBRANCH  23  24
ENDBRANCH  22  23
ENDBRANCH  19  22
ENDBRANCH   1  19
TORSDOF 7
