REMARK  Name = ZINC41026007
REMARK  4 active torsions:
REMARK  status: ('A' for Active; 'I' for Inactive)
REMARK    1  A    between atoms: C_4  and  N_7
REMARK    2  A    between atoms: C_12  and  N_26
REMARK    3  A    between atoms: N_26  and  C_27
REMARK    4  A    between atoms: C_28  and  C_36
REMARK                            x       y       z     vdW  Elec       q    Type
REMARK                         _______ _______ _______ _____ _____    ______ ____
ROOT
ATOM      1  N   UNL     1       3.623  -0.651  -0.037  0.00  0.00    -0.214 N 
ATOM      2  C   UNL     1       3.885  -1.839   0.585  0.00  0.00    +0.170 A 
ATOM      3  C   UNL     1       5.230  -2.150   0.303  0.00  0.00    +0.079 A 
ATOM      4  C   UNL     1       5.737  -1.105  -0.500  0.00  0.00    +0.148 A 
ATOM      5  N   UNL     1       4.786  -0.236  -0.697  0.00  0.00    -0.172 NA
ATOM      6  C   UNL     1       5.767  -3.341   0.830  0.00  0.00    +0.139 A 
ATOM      7  N   UNL     1       4.982  -4.117   1.568  0.00  0.00    -0.198 NA
ATOM      8  C   UNL     1       3.720  -3.785   1.809  0.00  0.00    +0.222 A 
ATOM      9  N   UNL     1       3.174  -2.678   1.335  0.00  0.00    -0.194 NA
ATOM     10  N   UNL     1       2.945  -4.630   2.585  0.00  0.00    -0.295 N 
ATOM     11  C   UNL     1       3.497  -5.875   3.146  0.00  0.00    +0.113 C 
ATOM     12  C   UNL     1       3.484  -5.750   4.668  0.00  0.00    +0.054 C 
ATOM     13  C   UNL     1       2.150  -5.247   5.154  0.00  0.00    -0.041 A 
ATOM     14  C   UNL     1       1.820  -5.476   6.484  0.00  0.00    +0.004 A 
ATOM     15  C   UNL     1       0.618  -5.033   6.995  0.00  0.00    +0.000 A 
ATOM     16  C   UNL     1      -0.268  -4.354   6.180  0.00  0.00    +0.000 A 
ATOM     17  C   UNL     1       0.055  -4.128   4.858  0.00  0.00    +0.005 A 
ATOM     18  C   UNL     1       1.262  -4.579   4.340  0.00  0.00    -0.027 A 
ATOM     19  C   UNL     1       1.544  -4.319   2.886  0.00  0.00    +0.143 C 
ENDROOT
BRANCH   1  23
ATOM     20  C   UNL     1      -0.017   1.379   0.010  0.00  0.00    +0.000 A 
ATOM     21  C   UNL     1       1.170   2.089   0.002  0.00  0.00    +0.002 A 
ATOM     22  C   UNL     1       2.377   1.419  -0.013  0.00  0.00    +0.028 A 
ATOM     23  C   UNL     1       2.400   0.031  -0.021  0.00  0.00    +0.068 A 
ATOM     24  C   UNL     1       1.206  -0.680  -0.013  0.00  0.00    +0.028 A 
ATOM     25  C   UNL     1       0.002  -0.004   0.002  0.00  0.00    +0.002 A 
ENDBRANCH   1  23
BRANCH   6  26
ATOM     26  N   UNL     1       7.081  -3.694   0.584  0.00  0.00    -0.293 N 
ATOM     27  H   UNL     1       7.644  -3.119   0.042  0.00  0.00    +0.154 HD
BRANCH  26  28
ATOM     28  C   UNL     1       7.592  -4.868   1.109  0.00  0.00    +0.083 A 
ATOM     29  C   UNL     1       8.876  -5.376   0.973  0.00  0.00    +0.068 A 
ATOM     30  C   UNL     1       9.163  -6.640   1.630  0.00  0.00    -0.023 A 
ATOM     31  C   UNL     1       8.115  -7.164   2.301  0.00  0.00    -0.004 A 
ATOM     32  S   UNL     1       6.803  -6.002   2.065  0.00  0.00    -0.077 S 
ATOM     33  C   UNL     1       8.093  -8.447   3.073  0.00  0.00    +0.043 C 
ATOM     34  C   UNL     1       9.328  -9.270   2.678  0.00  0.00    +0.005 C 
ATOM     35  C   UNL     1      10.563  -8.365   2.730  0.00  0.00    +0.005 C 
ATOM     36  C   UNL     1      10.511  -7.345   1.591  0.00  0.00    +0.037 C 
BRANCH  29  37
ATOM     37  C   UNL     1       9.899  -4.667   0.199  0.00  0.00    +0.244 C 
ATOM     38  O   UNL     1      10.621  -3.855   0.746  0.00  0.00    -0.270 OA
ATOM     39  N   UNL     1      10.040  -4.916  -1.118  0.00  0.00    -0.325 N 
ATOM     40  H   UNL     1       9.464  -5.564  -1.554  0.00  0.00    +0.145 HD
ATOM     41  H   UNL     1      10.717  -4.447  -1.630  0.00  0.00    +0.145 HD
ENDBRANCH  29  37
ENDBRANCH  26  28
ENDBRANCH   6  26
TORSDOF 4
