REMARK  Name = ZINC14255136
REMARK  4 active torsions:
REMARK  status: ('A' for Active; 'I' for Inactive)
REMARK    1  A    between atoms: C_4  and  S_10
REMARK    2  A    between atoms: C_5  and  N_7
REMARK    3  A    between atoms: S_10  and  N_13
REMARK    4  A    between atoms: N_13  and  C_14
REMARK                            x       y       z     vdW  Elec       q    Type
REMARK                         _______ _______ _______ _____ _____    ______ ____
ROOT
ATOM      1  S   UNL     1      -2.526  -0.509   0.740  0.00  0.00    +0.075 S 
ATOM      2  O   UNL     1      -3.779  -1.150   0.537  0.00  0.00    -0.150 OA
ATOM      3  O   UNL     1      -1.299  -1.082   0.311  0.00  0.00    -0.150 OA
ENDROOT
BRANCH   1   7
ATOM      4  C   UNL     1      -2.140   0.193   5.195  0.00  0.00    +0.002 A 
ATOM      5  C   UNL     1      -1.113  -0.417   4.500  0.00  0.00    +0.002 A 
ATOM      6  C   UNL     1      -1.233  -0.636   3.140  0.00  0.00    +0.031 A 
ATOM      7  C   UNL     1      -2.376  -0.235   2.474  0.00  0.00    +0.139 A 
ATOM      8  C   UNL     1      -3.403   0.375   3.169  0.00  0.00    +0.153 A 
ATOM      9  C   UNL     1      -3.285   0.589   4.530  0.00  0.00    +0.035 A 
BRANCH   8  10
ATOM     10  N   UNL     1      -4.630   0.798   2.457  0.00  0.00    +0.058 N 
ATOM     11  O   UNL     1      -5.580   1.230   3.084  0.00  0.00    -0.126 OA
ATOM     12  O   UNL     1      -4.688   0.715   1.243  0.00  0.00    -0.126 OA
ENDBRANCH   8  10
ENDBRANCH   1   7
BRANCH   1  13
ATOM     13  N   UNL     1      -2.633   0.977   0.017  0.00  0.00    -0.215 N 
ATOM     14  H   UNL     1      -3.418   1.208  -0.504  0.00  0.00    +0.174 HD
BRANCH  13  15
ATOM     15  C   UNL     1      -1.591   1.899   0.158  0.00  0.00    +0.062 A 
ATOM     16  C   UNL     1      -0.275   1.459   0.204  0.00  0.00    +0.027 A 
ATOM     17  C   UNL     1       0.753   2.372   0.338  0.00  0.00    +0.017 A 
ATOM     18  C   UNL     1       0.472   3.724   0.431  0.00  0.00    +0.019 A 
ATOM     19  C   UNL     1      -0.839   4.165   0.391  0.00  0.00    +0.032 A 
ATOM     20  C   UNL     1      -1.871   3.256   0.257  0.00  0.00    +0.041 A 
ATOM     21 BR   UNL     1      -3.663   3.860   0.202  0.00  0.00    -0.048 Br
ATOM     22 BR   UNL     1       1.881   4.971   0.614  0.00  0.00    -0.050 Br
ENDBRANCH  13  15
ENDBRANCH   1  13
TORSDOF 4
