REMARK  Name = ZINC12383823
REMARK  8 active torsions:
REMARK  status: ('A' for Active; 'I' for Inactive)
REMARK    1  A    between atoms: C_1  and  C_2
REMARK    2  A    between atoms: C_2  and  C_4
REMARK    3  A    between atoms: C_2  and  N_10
REMARK    4  A    between atoms: C_11  and  C_13
REMARK    5  A    between atoms: C_13  and  N_29
REMARK    6  A    between atoms: C_14  and  C_15
REMARK    7  A    between atoms: N_27  and  C_28
REMARK    8  A    between atoms: C_30  and  C_32
REMARK                            x       y       z     vdW  Elec       q    Type
REMARK                         _______ _______ _______ _____ _____    ______ ____
ROOT
ATOM      1  C   UNL     1       0.991  -2.301   0.650  0.00  0.00    +0.097 C 
ATOM      2  C   UNL     1       1.987  -3.085   1.123  0.00  0.00    +0.036 C 
ENDROOT
BRANCH   2   3
ATOM      3  C   UNL     1       2.970  -2.535   2.068  0.00  0.00    -0.022 A 
ATOM      4  C   UNL     1       2.590  -1.534   2.974  0.00  0.00    +0.010 A 
ATOM      5  C   UNL     1       3.492  -1.020   3.857  0.00  0.00    +0.027 A 
ATOM      6  C   UNL     1       4.810  -1.476   3.866  0.00  0.00    +0.050 A 
ATOM      7  C   UNL     1       5.204  -2.475   2.959  0.00  0.00    +0.008 A 
ATOM      8  C   UNL     1       4.285  -3.004   2.062  0.00  0.00    +0.018 A 
ATOM      9  C   UNL     1       6.633  -2.734   3.216  0.00  0.00    +0.008 A 
ATOM     10  C   UNL     1       7.567  -3.599   2.651  0.00  0.00    +0.010 A 
ATOM     11  C   UNL     1       8.863  -3.608   3.121  0.00  0.00    +0.001 A 
ATOM     12  C   UNL     1       9.238  -2.760   4.152  0.00  0.00    +0.002 A 
ATOM     13  C   UNL     1       8.323  -1.899   4.720  0.00  0.00    +0.026 A 
ATOM     14  C   UNL     1       7.010  -1.875   4.260  0.00  0.00    +0.050 A 
ATOM     15  N   UNL     1       5.905  -1.131   4.634  0.00  0.00    -0.343 N 
ATOM     16  C   UNL     1       5.898  -0.121   5.695  0.00  0.00    +0.149 C 
ENDBRANCH   2   3
BRANCH   1  18
ATOM     17  N   UNL     1       1.864  -0.040   0.367  0.00  0.00    -0.304 N 
ATOM     18  C   UNL     1       0.977  -0.865   0.958  0.00  0.00    +0.259 C 
ATOM     19  O   UNL     1       0.164  -0.420   1.746  0.00  0.00    -0.269 OA
ATOM     20  H   UNL     1       2.558  -0.404  -0.206  0.00  0.00    +0.150 HD
BRANCH  17  22
ATOM     21  C   UNL     1       0.781   2.017  -0.393  0.00  0.00    +0.033 C 
ATOM     22  C   UNL     1       1.782   1.405   0.590  0.00  0.00    +0.100 C 
BRANCH  22  23
ATOM     23  C   UNL     1       3.139   2.025   0.375  0.00  0.00    -0.027 A 
ATOM     24  C   UNL     1       3.945   1.583  -0.658  0.00  0.00    +0.005 A 
ATOM     25  C   UNL     1       5.188   2.154  -0.857  0.00  0.00    +0.000 A 
ATOM     26  C   UNL     1       5.629   3.160  -0.017  0.00  0.00    +0.000 A 
ATOM     27  C   UNL     1       4.825   3.598   1.018  0.00  0.00    +0.000 A 
ATOM     28  C   UNL     1       3.580   3.030   1.215  0.00  0.00    +0.005 A 
ENDBRANCH  22  23
ENDBRANCH  17  22
ENDBRANCH   1  18
BRANCH   1  29
ATOM     29  N   UNL     1      -0.026  -2.858  -0.134  0.00  0.00    -0.277 N 
ATOM     30  C   UNL     1      -1.007  -2.073  -0.623  0.00  0.00    +0.248 C 
ATOM     31  O   UNL     1      -0.958  -0.869  -0.463  0.00  0.00    -0.270 OA
ATOM     32  H   UNL     1      -0.026  -3.809  -0.324  0.00  0.00    +0.155 HD
BRANCH  30  33
ATOM     33  C   UNL     1      -2.141  -2.677  -1.354  0.00  0.00    +0.037 A 
ATOM     34  C   UNL     1      -2.197  -4.058  -1.544  0.00  0.00    +0.013 A 
ATOM     35  C   UNL     1      -3.260  -4.615  -2.224  0.00  0.00    +0.001 A 
ATOM     36  C   UNL     1      -4.265  -3.807  -2.725  0.00  0.00    +0.000 A 
ATOM     37  C   UNL     1      -4.213  -2.436  -2.544  0.00  0.00    +0.001 A 
ATOM     38  C   UNL     1      -3.158  -1.867  -1.862  0.00  0.00    +0.013 A 
ENDBRANCH  30  33
ENDBRANCH   1  29
TORSDOF 6
