REMARK  Name = ZINC08967954
REMARK  9 active torsions:
REMARK  status: ('A' for Active; 'I' for Inactive)
REMARK    1  A    between atoms: C_1  and  C_2
REMARK    2  A    between atoms: C_5  and  C_8
REMARK    3  A    between atoms: C_8  and  C_10
REMARK    4  A    between atoms: C_8  and  S_27
REMARK    5  A    between atoms: C_10  and  N_11
REMARK    6  A    between atoms: N_11  and  S_12
REMARK    7  A    between atoms: S_12  and  C_15
REMARK    8  A    between atoms: C_21  and  C_26
REMARK    9  A    between atoms: S_27  and  C_30
REMARK                            x       y       z     vdW  Elec       q    Type
REMARK                         _______ _______ _______ _____ _____    ______ ____
ROOT
ATOM      1  C   UNL     1       1.319  -4.773   0.690  0.00  0.00    +0.137 C 
ENDROOT
BRANCH   1   2
ATOM      2  N   UNL     1       1.338  -6.238   0.682  0.00  0.00    -0.188 NA
ATOM      3  H   UNL     1       0.532  -6.732   0.466  0.00  0.00    +0.148 HD
BRANCH   2   4
ATOM      4  S   UNL     1       2.736  -7.050   1.041  0.00  0.00    +0.058 S 
ATOM      5  O   UNL     1       2.429  -8.436   0.976  0.00  0.00    -0.153 OA
ATOM      6  O   UNL     1       3.762  -6.460   0.255  0.00  0.00    -0.153 OA
BRANCH   4   7
ATOM      7  C   UNL     1       3.125  -6.699   2.723  0.00  0.00    +0.106 A 
ATOM      8  C   UNL     1       3.914  -5.607   3.039  0.00  0.00    +0.030 A 
ATOM      9  C   UNL     1       4.223  -5.327   4.354  0.00  0.00    +0.025 A 
ATOM     10  C   UNL     1       3.740  -6.143   5.375  0.00  0.00    +0.037 A 
ATOM     11  C   UNL     1       2.948  -7.235   5.045  0.00  0.00    -0.013 A 
ATOM     12  C   UNL     1       2.637  -7.510   3.732  0.00  0.00    +0.034 A 
ATOM     13  C   UNL     1       2.588  -7.909   6.349  0.00  0.00    +0.104 C 
ATOM     14  C   UNL     1       3.270  -7.061   7.402  0.00  0.00    +0.224 C 
ATOM     15  O   UNL     1       3.245  -7.243   8.601  0.00  0.00    -0.275 OA
ATOM     16  N   UNL     1       3.909  -6.070   6.758  0.00  0.00    -0.285 N 
ATOM     17  C   UNL     1       1.072  -7.906   6.554  0.00  0.00    +0.022 C 
ATOM     18  H   UNL     1       4.427  -5.382   7.204  0.00  0.00    +0.155 HD
ENDBRANCH   4   7
ENDBRANCH   2   4
ENDBRANCH   1   2
BRANCH   1  19
ATOM     19  C   UNL     1       0.059  -4.275  -0.021  0.00  0.00    +0.182 C 
BRANCH  19  24
ATOM     20  C   UNL     1      -0.018   1.503   0.010  0.00  0.00    +0.044 C 
ATOM     21  C   UNL     1       0.002  -0.004   0.002  0.00  0.00    -0.050 A 
ATOM     22  C   UNL     1       0.006  -0.689  -1.199  0.00  0.00    +0.004 A 
ATOM     23  C   UNL     1       0.025  -2.071  -1.206  0.00  0.00    +0.006 A 
ATOM     24  C   UNL     1       0.040  -2.768  -0.013  0.00  0.00    -0.022 A 
ATOM     25  C   UNL     1       0.037  -2.084   1.188  0.00  0.00    +0.006 A 
ATOM     26  C   UNL     1       0.023  -0.702   1.195  0.00  0.00    +0.004 A 
ENDBRANCH  19  24
BRANCH  19  27
ATOM     27  S   UNL     1      -1.409  -4.904   0.838  0.00  0.00    +0.011 S 
ATOM     28  O   UNL     1      -2.583  -4.309   0.301  0.00  0.00    -0.168 OA
ATOM     29  O   UNL     1      -1.318  -6.313   0.996  0.00  0.00    -0.168 OA
BRANCH  27  30
ATOM     30  C   UNL     1      -1.286  -4.259   2.474  0.00  0.00    +0.126 A 
ATOM     31  C   UNL     1      -1.771  -3.095   2.971  0.00  0.00    +0.035 A 
ATOM     32  C   UNL     1      -1.553  -2.792   4.302  0.00  0.00    +0.009 A 
ATOM     33  C   UNL     1      -0.861  -3.668   5.071  0.00  0.00    +0.047 A 
ATOM     34  S   UNL     1      -0.499  -4.974   3.908  0.00  0.00    -0.078 S 
ENDBRANCH  27  30
ENDBRANCH  19  27
ENDBRANCH   1  19
TORSDOF 7
