REMARK  Name = ZINC27740601
REMARK  6 active torsions:
REMARK  status: ('A' for Active; 'I' for Inactive)
REMARK    1  A    between atoms: C_1  and  C_2
REMARK    2  A    between atoms: N_11  and  C_14
REMARK    3  A    between atoms: C_14  and  C_15
REMARK    4  A    between atoms: C_15  and  C_16
REMARK    5  A    between atoms: C_17  and  C_29
REMARK    6  A    between atoms: C_22  and  C_28
REMARK                            x       y       z     vdW  Elec       q    Type
REMARK                         _______ _______ _______ _____ _____    ______ ____
ROOT
ATOM      1  C   UNL     1       3.459  -0.314  -1.469  0.00  0.00    +0.089 C 
ENDROOT
BRANCH   1  12
ATOM      2  C   UNL     1       9.886  -6.469  -1.286  0.00  0.00    +0.044 C 
ATOM      3  C   UNL     1       8.483  -6.256  -1.791  0.00  0.00    -0.046 A 
ATOM      4  C   UNL     1       7.736  -7.319  -2.281  0.00  0.00    +0.021 A 
ATOM      5  C   UNL     1       6.453  -7.091  -2.737  0.00  0.00    +0.084 A 
ATOM      6  N   UNL     1       5.931  -5.879  -2.711  0.00  0.00    -0.350 N 
ATOM      7  C   UNL     1       6.611  -4.840  -2.252  0.00  0.00    +0.099 A 
ATOM      8  C   UNL     1       7.912  -4.997  -1.782  0.00  0.00    +0.045 A 
ATOM      9  N   UNL     1       6.023  -3.581  -2.243  0.00  0.00    -0.314 N 
ATOM     10  C   UNL     1       4.657  -3.634  -2.783  0.00  0.00    +0.122 C 
ATOM     11  C   UNL     1       4.075  -2.219  -2.831  0.00  0.00    +0.103 C 
ATOM     12  N   UNL     1       4.081  -1.644  -1.478  0.00  0.00    -0.299 NA
ATOM     13  C   UNL     1       5.446  -1.591  -0.938  0.00  0.00    +0.103 C 
ATOM     14  C   UNL     1       6.029  -3.006  -0.891  0.00  0.00    +0.122 C 
ATOM     15  H   UNL     1       4.907  -5.713  -3.078  0.00  0.00    +0.166 HD
ENDBRANCH   1  12
BRANCH   1  16
ATOM     16  C   UNL     1       3.257   0.145  -0.024  0.00  0.00    +0.053 C 
BRANCH  16  17
ATOM     17  C   UNL     1       2.619   1.511  -0.014  0.00  0.00    -0.018 A 
ATOM     18  C   UNL     1       3.268   2.698  -0.018  0.00  0.00    +0.020 A 
ATOM     19  N   UNL     1       2.378   3.719  -0.007  0.00  0.00    -0.344 N 
ATOM     20  C   UNL     1       1.100   3.184   0.008  0.00  0.00    +0.053 A 
ATOM     21  C   UNL     1       1.184   1.796   0.000  0.00  0.00    +0.004 A 
ATOM     22  C   UNL     1      -0.013   1.076   0.008  0.00  0.00    +0.013 A 
ATOM     23  C   UNL     1      -1.205   1.750   0.017  0.00  0.00    -0.049 A 
ATOM     24  C   UNL     1      -1.270   3.143   0.033  0.00  0.00    +0.009 A 
ATOM     25  C   UNL     1      -0.112   3.870   0.026  0.00  0.00    -0.023 A 
ATOM     26  C   UNL     1      -0.008   5.372   0.041  0.00  0.00    +0.039 C 
ATOM     27  C   UNL     1       1.289   5.801  -0.653  0.00  0.00    +0.026 C 
ATOM     28  C   UNL     1       2.535   5.180  -0.009  0.00  0.00    +0.122 C 
ATOM     29  C   UNL     1      -2.489   0.960   0.018  0.00  0.00    +0.044 C 
ATOM     30  C   UNL     1       4.767   2.861  -0.032  0.00  0.00    +0.064 C 
ENDBRANCH  16  17
ENDBRANCH   1  16
TORSDOF 3
