REMARK  Name = ZINC12577686
REMARK  9 active torsions:
REMARK  status: ('A' for Active; 'I' for Inactive)
REMARK    1  A    between atoms: C_1  and  C_2
REMARK    2  A    between atoms: C_2  and  N_3
REMARK    3  A    between atoms: C_7  and  S_24
REMARK    4  A    between atoms: C_11  and  C_12
REMARK    5  A    between atoms: C_12  and  S_13
REMARK    6  A    between atoms: S_13  and  C_14
REMARK    7  A    between atoms: C_17  and  C_20
REMARK    8  A    between atoms: N_18  and  C_19
REMARK    9  A    between atoms: S_24  and  N_27
REMARK                            x       y       z     vdW  Elec       q    Type
REMARK                         _______ _______ _______ _____ _____    ______ ____
ROOT
ATOM      1  N   UNL     1      -6.747   1.020   0.019  0.00  0.00    -0.327 N 
ATOM      2  C   UNL     1      -7.744   1.360  -0.873  0.00  0.00    +0.069 A 
ATOM      3  C   UNL     1      -8.835   0.686  -1.407  0.00  0.00    +0.030 A 
ATOM      4  C   UNL     1      -9.664   1.330  -2.301  0.00  0.00    +0.030 A 
ATOM      5  C   UNL     1      -9.415   2.645  -2.669  0.00  0.00    +0.108 A 
ATOM      6  C   UNL     1      -8.348   3.323  -2.153  0.00  0.00    +0.058 A 
ATOM      7  C   UNL     1      -7.494   2.691  -1.246  0.00  0.00    +0.091 A 
ATOM      8  N   UNL     1      -6.383   3.088  -0.573  0.00  0.00    -0.231 NA
ATOM      9  C   UNL     1      -5.944   2.108   0.163  0.00  0.00    +0.121 A 
ENDROOT
BRANCH   5  10
ATOM     10  S   UNL     1     -10.489   3.448  -3.813  0.00  0.00    +0.061 S 
ATOM     11  O   UNL     1      -9.734   4.492  -4.414  0.00  0.00    -0.153 OA
ATOM     12  O   UNL     1     -11.111   2.422  -4.574  0.00  0.00    -0.153 OA
BRANCH  10  13
ATOM     13  N   UNL     1     -11.687   4.176  -2.932  0.00  0.00    -0.177 NA
ATOM     14  C   UNL     1     -12.930   3.457  -2.620  0.00  0.00    +0.109 C 
ATOM     15  C   UNL     1     -13.154   3.506  -1.101  0.00  0.00    +0.017 C 
ATOM     16  C   UNL     1     -13.138   4.963  -0.635  0.00  0.00    +0.003 C 
ATOM     17  C   UNL     1     -11.772   5.583  -0.940  0.00  0.00    +0.017 C 
ATOM     18  C   UNL     1     -11.529   5.556  -2.452  0.00  0.00    +0.109 C 
ENDBRANCH  10  13
ENDBRANCH   5  10
BRANCH   1  20
ATOM     19  C   UNL     1      -7.347  -0.263   2.013  0.00  0.00    +0.027 C 
ATOM     20  C   UNL     1      -6.584  -0.274   0.687  0.00  0.00    +0.120 C 
ENDBRANCH   1  20
BRANCH   9  21
ATOM     21  C   UNL     1      -4.727   2.173   1.050  0.00  0.00    +0.151 C 
BRANCH  21  22
ATOM     22  S   UNL     1      -3.269   1.653   0.112  0.00  0.00    -0.078 S 
BRANCH  22  23
ATOM     23  C   UNL     1      -2.031   1.820   1.355  0.00  0.00    +0.192 A 
ATOM     24  N   UNL     1      -2.216   2.217   2.592  0.00  0.00    -0.122 NA
ATOM     25  N   UNL     1      -1.094   2.227   3.220  0.00  0.00    -0.124 NA
ATOM     26  C   UNL     1      -0.136   1.835   2.429  0.00  0.00    +0.238 A 
ATOM     27  N   UNL     1      -0.698   1.558   1.213  0.00  0.00    -0.302 N 
ATOM     28  C   UNL     1      -0.013   1.086   0.008  0.00  0.00    +0.153 C 
BRANCH  26  29
ATOM     29  C   UNL     1       1.323   1.709   2.787  0.00  0.00    +0.452 C 
ATOM     30  F   UNL     1       1.466   1.745   4.178  0.00  0.00    -0.163 F 
ATOM     31  F   UNL     1       1.821   0.497   2.298  0.00  0.00    -0.163 F 
ATOM     32  F   UNL     1       2.035   2.770   2.217  0.00  0.00    -0.163 F 
ENDBRANCH  26  29
ENDBRANCH  22  23
ENDBRANCH  21  22
ENDBRANCH   9  21
TORSDOF 7
