REMARK  Name = ZINC12587735
REMARK  7 active torsions:
REMARK  status: ('A' for Active; 'I' for Inactive)
REMARK    1  A    between atoms: C_1  and  C_2
REMARK    2  A    between atoms: C_2  and  N_3
REMARK    3  A    between atoms: C_5  and  C_9
REMARK    4  A    between atoms: C_6  and  C_8
REMARK    5  A    between atoms: N_15  and  C_22
REMARK    6  A    between atoms: C_26  and  O_28
REMARK    7  A    between atoms: O_28  and  C_29
REMARK                            x       y       z     vdW  Elec       q    Type
REMARK                         _______ _______ _______ _____ _____    ______ ____
ROOT
ATOM      1  C   UNL     1      -4.844  -1.007  -1.776  0.00  0.00    -0.033 C 
ATOM      2  C   UNL     1      -4.473  -1.882  -0.554  0.00  0.00    -0.007 C 
ATOM      3  C   UNL     1      -3.894  -0.844   0.438  0.00  0.00    +0.004 C 
ATOM      4  C   UNL     1      -2.484  -0.430  -0.035  0.00  0.00    +0.116 C 
ATOM      5  N   UNL     1      -2.451   1.036   0.054  0.00  0.00    -0.272 N 
ATOM      6  C   UNL     1      -3.695   1.547   0.142  0.00  0.00    +0.210 C 
ATOM      7  O   UNL     1      -3.958   2.729   0.221  0.00  0.00    -0.277 OA
ATOM      8  C   UNL     1      -4.706   0.439   0.123  0.00  0.00    +0.018 C 
ATOM      9  C   UNL     1      -6.794   0.227  -1.010  0.00  0.00    -0.077 C 
ATOM     10  C   UNL     1      -7.040   1.048   0.282  0.00  0.00    -0.019 C 
ATOM     11  C   UNL     1      -5.822   0.639   1.155  0.00  0.00    -0.004 C 
ATOM     12  N   UNL     1      -5.325   0.262  -1.185  0.00  0.00    +0.394 N 
ATOM     13  H   UNL     1      -5.071   1.044  -1.800  0.00  0.00    -0.079 HD
ENDROOT
BRANCH   1  16
ATOM     14  N   UNL     1      -7.530  -3.023  -3.198  0.00  0.00    -0.271 N 
ATOM     15  C   UNL     1      -6.656  -2.749  -2.207  0.00  0.00    +0.110 A 
ATOM     16  C   UNL     1      -5.935  -1.666  -2.580  0.00  0.00    -0.020 A 
ATOM     17  C   UNL     1      -6.378  -1.270  -3.846  0.00  0.00    +0.062 A 
ATOM     18  N   UNL     1      -7.334  -2.082  -4.218  0.00  0.00    -0.176 NA
ATOM     19  C   UNL     1      -5.846  -0.108  -4.644  0.00  0.00    +0.068 C 
BRANCH  14  21
ATOM     20  C   UNL     1      -9.905  -3.545  -3.460  0.00  0.00    +0.029 C 
ATOM     21  C   UNL     1      -8.507  -4.114  -3.209  0.00  0.00    +0.140 C 
ENDBRANCH  14  21
ENDBRANCH   1  16
BRANCH   5  22
ATOM     22  C   UNL     1      -1.280   1.802   0.053  0.00  0.00    +0.040 A 
ATOM     23  C   UNL     1      -0.042   1.178  -0.036  0.00  0.00    +0.024 A 
ATOM     24  C   UNL     1       1.114   1.935  -0.043  0.00  0.00    +0.005 A 
ATOM     25  C   UNL     1       1.042   3.312   0.045  0.00  0.00    +0.046 A 
ATOM     26  C   UNL     1      -0.192   3.940   0.139  0.00  0.00    +0.122 A 
ATOM     27  C   UNL     1      -1.354   3.184   0.146  0.00  0.00    +0.069 A 
BRANCH  26  28
ATOM     28  O   UNL     1      -0.261   5.294   0.225  0.00  0.00    -0.495 OA
ATOM     29  C   UNL     1       0.976   6.009   0.213  0.00  0.00    +0.277 C 
ENDBRANCH  26  28
ENDBRANCH   5  22
TORSDOF 4
