REMARK  Name = ZINC63097974
REMARK  13 active torsions:
REMARK  status: ('A' for Active; 'I' for Inactive)
REMARK    1  A    between atoms: C_1  and  C_2
REMARK    2  A    between atoms: C_2  and  C_3
REMARK    3  A    between atoms: C_6  and  C_9
REMARK    4  A    between atoms: C_9  and  C_11
REMARK    5  A    between atoms: C_9  and  N_31
REMARK    6  A    between atoms: C_11  and  N_12
REMARK    7  A    between atoms: C_13  and  C_15
REMARK    8  A    between atoms: C_15  and  C_17
REMARK    9  A    between atoms: C_15  and  N_27
REMARK   10  A    between atoms: C_17  and  C_18
REMARK   11  A    between atoms: C_28  and  C_30
REMARK   12  A    between atoms: N_31  and  C_32
REMARK   13  A    between atoms: N_31  and  C_33
REMARK                            x       y       z     vdW  Elec       q    Type
REMARK                         _______ _______ _______ _____ _____    ______ ____
ROOT
ATOM      1  N   UNL     1      -7.650  -2.098  -0.485  0.00  0.00    -0.315 N 
ATOM      2  C   UNL     1      -8.803  -1.476  -0.803  0.00  0.00    +0.234 C 
ATOM      3  O   UNL     1      -8.843  -0.265  -0.861  0.00  0.00    -0.274 OA
ATOM      4  H   UNL     1      -7.618  -3.066  -0.439  0.00  0.00    +0.149 HD
ENDROOT
BRANCH   1   5
ATOM      5  C   UNL     1      -6.445  -1.311  -0.210  0.00  0.00    +0.093 C 
BRANCH   5   6
ATOM      6  C   UNL     1      -5.264  -2.254   0.029  0.00  0.00    -0.021 C 
BRANCH   6  10
ATOM      7  C   UNL     1      -5.975  -4.569   3.547  0.00  0.00    -0.048 A 
ATOM      8  C   UNL     1      -6.208  -5.118   2.300  0.00  0.00    +0.004 A 
ATOM      9  C   UNL     1      -5.978  -4.369   1.161  0.00  0.00    +0.002 A 
ATOM     10  C   UNL     1      -5.516  -3.071   1.270  0.00  0.00    -0.059 A 
ATOM     11  C   UNL     1      -5.284  -2.521   2.517  0.00  0.00    +0.002 A 
ATOM     12  C   UNL     1      -5.518  -3.269   3.656  0.00  0.00    +0.004 A 
BRANCH   7  14
ATOM     13  C   UNL     1      -7.672  -5.187   5.247  0.00  0.00    +0.009 C 
ATOM     14  C   UNL     1      -6.226  -5.386   4.789  0.00  0.00    +0.032 C 
ENDBRANCH   7  14
ENDBRANCH   6  10
BRANCH   6  15
ATOM     15  N   UNL     1      -4.036  -1.467   0.201  0.00  0.00    +0.382 N 
ATOM     16  C   UNL     1      -2.910  -2.369   0.475  0.00  0.00    -0.096 C 
ATOM     17  C   UNL     1      -3.766  -0.705  -1.026  0.00  0.00    -0.096 C 
ATOM     18  H   UNL     1      -4.151  -0.829   0.974  0.00  0.00    -0.082 HD
ENDBRANCH   6  15
ENDBRANCH   5   6
ENDBRANCH   1   5
BRANCH   2  19
ATOM     19  C   UNL     1     -10.042  -2.285  -1.086  0.00  0.00    +0.163 C 
BRANCH  19  20
ATOM     20  N   UNL     1     -11.226  -1.435  -0.933  0.00  0.00    -0.304 N 
ATOM     21  C   UNL     1     -11.371  -0.337  -1.701  0.00  0.00    +0.211 C 
ATOM     22  O   UNL     1     -10.522  -0.053  -2.519  0.00  0.00    -0.276 OA
ATOM     23  C   UNL     1     -12.589   0.537  -1.543  0.00  0.00    +0.109 C 
ATOM     24  H   UNL     1     -11.905  -1.663  -0.279  0.00  0.00    +0.149 HD
ENDBRANCH  19  20
BRANCH  19  25
ATOM     25  C   UNL     1      -9.983  -2.824  -2.517  0.00  0.00    +0.065 C 
BRANCH  25  26
ATOM     26  C   UNL     1     -11.161  -3.733  -2.760  0.00  0.00    -0.039 C 
ATOM     27  C   UNL     1     -12.343  -3.398  -3.325  0.00  0.00    -0.001 A 
ATOM     28  C   UNL     1     -12.867  -2.136  -3.861  0.00  0.00    +0.010 A 
ATOM     29  C   UNL     1     -14.118  -2.110  -4.374  0.00  0.00    +0.001 A 
ATOM     30  C   UNL     1     -14.925  -3.256  -4.406  0.00  0.00    +0.002 A 
ATOM     31  C   UNL     1     -14.514  -4.451  -3.933  0.00  0.00    +0.026 A 
ATOM     32  C   UNL     1     -13.215  -4.594  -3.372  0.00  0.00    +0.043 A 
ATOM     33  N   UNL     1     -12.596  -5.627  -2.855  0.00  0.00    -0.380 N 
ATOM     34  C   UNL     1     -11.257  -5.205  -2.428  0.00  0.00    +0.144 C 
ATOM     35  H   UNL     1     -12.960  -6.522  -2.773  0.00  0.00    +0.160 HD
ENDBRANCH  25  26
ENDBRANCH  19  25
ENDBRANCH   2  19
TORSDOF 9
