REMARK  Name = ZINC39221707
REMARK  8 active torsions:
REMARK  status: ('A' for Active; 'I' for Inactive)
REMARK    1  A    between atoms: C_1  and  C_2
REMARK    2  A    between atoms: C_9  and  C_16
REMARK    3  A    between atoms: C_11  and  O_12
REMARK    4  A    between atoms: C_16  and  S_17
REMARK    5  A    between atoms: S_17  and  C_18
REMARK    6  A    between atoms: C_21  and  C_26
REMARK    7  A    between atoms: N_22  and  C_23
REMARK    8  A    between atoms: C_23  and  C_24
REMARK                            x       y       z     vdW  Elec       q    Type
REMARK                         _______ _______ _______ _____ _____    ______ ____
ROOT
ATOM      1  C   UNL     1      -0.266   1.324  -0.041  0.00  0.00    +0.109 C 
ATOM      2  C   UNL     1       0.014  -0.152  -0.151  0.00  0.00    +0.214 C 
ATOM      3  O   UNL     1       0.428  -0.768   0.815  0.00  0.00    -0.276 OA
ATOM      4  N   UNL     1      -0.190  -0.778  -1.294  0.00  0.00    -0.286 N 
ATOM      5  C   UNL     1      -0.070  -2.133  -1.359  0.00  0.00    +0.037 A 
ATOM      6  C   UNL     1       0.073  -2.763  -2.608  0.00  0.00    +0.024 A 
ATOM      7  C   UNL     1       0.193  -4.114  -2.686  0.00  0.00    +0.013 A 
ATOM      8  C   UNL     1       0.176  -4.889  -1.513  0.00  0.00    +0.022 A 
ATOM      9  C   UNL     1       0.300  -6.293  -1.573  0.00  0.00    -0.020 A 
ATOM     10  C   UNL     1       0.277  -7.008  -0.392  0.00  0.00    +0.092 A 
ATOM     11  C   UNL     1       0.134  -6.343   0.817  0.00  0.00    +0.285 A 
ATOM     12  O   UNL     1       0.016  -5.011   0.870  0.00  0.00    -0.425 OA
ATOM     13  C   UNL     1       0.032  -4.265  -0.254  0.00  0.00    +0.141 A 
ATOM     14  C   UNL     1      -0.084  -2.888  -0.185  0.00  0.00    +0.070 A 
ATOM     15  H   UNL     1      -0.425  -0.273  -2.088  0.00  0.00    +0.155 HD
ENDROOT
BRANCH  11  16
ATOM     16  O   UNL     1       0.113  -7.052   1.962  0.00  0.00    -0.480 OA
ATOM     17  H   UNL     1       0.010  -6.512   2.757  0.00  0.00    +0.295 HD
ENDBRANCH  11  16
BRANCH   9  18
ATOM     18  C   UNL     1       0.454  -6.997  -2.896  0.00  0.00    +0.113 C 
BRANCH  18  19
ATOM     19  S   UNL     1       2.176  -7.529  -3.101  0.00  0.00    -0.081 S 
BRANCH  19  20
ATOM     20  C   UNL     1       2.193  -8.323  -4.674  0.00  0.00    +0.192 A 
ATOM     21  N   UNL     1       1.168  -8.470  -5.484  0.00  0.00    -0.122 NA
ATOM     22  N   UNL     1       1.531  -9.096  -6.546  0.00  0.00    -0.128 NA
ATOM     23  C   UNL     1       2.809  -9.388  -6.479  0.00  0.00    +0.165 A 
ATOM     24  N   UNL     1       3.273  -8.897  -5.280  0.00  0.00    -0.298 N 
BRANCH  23  25
ATOM     25  C   UNL     1       3.602 -10.104  -7.501  0.00  0.00    +0.019 A 
ATOM     26  C   UNL     1       4.815 -10.702  -7.156  0.00  0.00    +0.011 A 
ATOM     27  C   UNL     1       5.550 -11.369  -8.114  0.00  0.00    +0.001 A 
ATOM     28  C   UNL     1       5.086 -11.446  -9.415  0.00  0.00    +0.000 A 
ATOM     29  C   UNL     1       3.884 -10.856  -9.765  0.00  0.00    +0.001 A 
ATOM     30  C   UNL     1       3.137 -10.191  -8.814  0.00  0.00    +0.011 A 
ENDBRANCH  23  25
BRANCH  24  31
ATOM     31  C   UNL     1       4.641  -8.976  -4.762  0.00  0.00    +0.152 C 
BRANCH  31  32
ATOM     32  C   UNL     1       4.763 -10.165  -3.844  0.00  0.00    -0.013 C 
ATOM     33  C   UNL     1       5.706 -11.052  -4.043  0.00  0.00    +0.005 C 
ENDBRANCH  31  32
ENDBRANCH  24  31
ENDBRANCH  19  20
ENDBRANCH  18  19
ENDBRANCH   9  18
TORSDOF 7
