REMARK  Name = ZINC39637230
REMARK  6 active torsions:
REMARK  status: ('A' for Active; 'I' for Inactive)
REMARK    1  A    between atoms: C_1  and  C_2
REMARK    2  A    between atoms: C_7  and  N_12
REMARK    3  A    between atoms: C_9  and  C_11
REMARK    4  A    between atoms: C_13  and  C_15
REMARK    5  A    between atoms: C_26  and  C_28
REMARK    6  A    between atoms: C_31  and  C_35
REMARK                            x       y       z     vdW  Elec       q    Type
REMARK                         _______ _______ _______ _____ _____    ______ ____
ROOT
ATOM      1  C   UNL     1      -2.011  -4.098   2.300  0.00  0.00    +0.100 C 
ATOM      2  C   UNL     1      -3.118  -3.321   3.047  0.00  0.00    +0.121 C 
ATOM      3  N   UNL     1      -4.007  -4.371   3.596  0.00  0.00    -0.296 N 
ATOM      4  C   UNL     1      -3.082  -5.439   4.045  0.00  0.00    +0.115 C 
ATOM      5  C   UNL     1      -1.990  -5.487   2.958  0.00  0.00    -0.004 C 
ATOM      6  C   UNL     1      -0.627  -5.751   3.592  0.00  0.00    -0.010 C 
ATOM      7  C   UNL     1      -0.612  -7.161   4.189  0.00  0.00    -0.082 C 
ATOM      8  N   UNL     1      -0.883  -8.145   3.134  0.00  0.00    +0.379 N 
ATOM      9  C   UNL     1      -2.232  -7.942   2.594  0.00  0.00    -0.082 C 
ATOM     10  C   UNL     1      -2.316  -6.565   1.929  0.00  0.00    -0.010 C 
ATOM     11  C   UNL     1      -5.353  -4.359   3.670  0.00  0.00    +0.247 C 
ATOM     12  O   UNL     1      -5.981  -3.454   3.156  0.00  0.00    -0.270 OA
ATOM     13  H   UNL     1      -0.206  -8.037   2.393  0.00  0.00    -0.086 HD
ATOM     14  H   UNL     1      -0.812  -9.076   3.517  0.00  0.00    -0.086 HD
ENDROOT
BRANCH  11  15
ATOM     15  C   UNL     1      -6.064  -5.445   4.376  0.00  0.00    +0.040 A 
ATOM     16  C   UNL     1      -5.396  -6.218   5.327  0.00  0.00    +0.014 A 
ATOM     17  C   UNL     1      -6.065  -7.230   5.984  0.00  0.00    +0.016 A 
ATOM     18  C   UNL     1      -7.396  -7.481   5.702  0.00  0.00    +0.090 A 
ATOM     19  C   UNL     1      -8.066  -6.719   4.759  0.00  0.00    +0.136 A 
ATOM     20  C   UNL     1      -7.408  -5.698   4.099  0.00  0.00    +0.052 A 
ATOM     21  F   UNL     1      -9.366  -6.970   4.489  0.00  0.00    -0.205 F 
BRANCH  18  22
ATOM     22  C   UNL     1      -8.120  -8.589   6.423  0.00  0.00    +0.420 C 
ATOM     23  F   UNL     1      -7.244  -9.212   7.319  0.00  0.00    -0.166 F 
ATOM     24  F   UNL     1      -9.205  -8.056   7.127  0.00  0.00    -0.166 F 
ATOM     25  F   UNL     1      -8.582  -9.527   5.494  0.00  0.00    -0.166 F 
ENDBRANCH  18  22
ENDBRANCH  11  15
BRANCH   1  27
ATOM     26  N   UNL     1       0.250  -3.488   1.502  0.00  0.00    -0.312 N 
ATOM     27  C   UNL     1      -0.679  -3.414   2.475  0.00  0.00    +0.218 C 
ATOM     28  O   UNL     1      -0.445  -2.796   3.492  0.00  0.00    -0.275 OA
ATOM     29  H   UNL     1       0.062  -3.982   0.689  0.00  0.00    +0.149 HD
BRANCH  26  35
ATOM     30  C   UNL     1       2.937  -3.505  -1.851  0.00  0.00    +0.008 C 
ATOM     31  C   UNL     1       2.338  -3.816  -0.478  0.00  0.00    -0.009 C 
ATOM     32  C   UNL     1       3.285  -4.735   0.295  0.00  0.00    +0.003 C 
ATOM     33  C   UNL     1       2.687  -5.046   1.669  0.00  0.00    +0.002 C 
ATOM     34  C   UNL     1       2.492  -3.743   2.446  0.00  0.00    +0.022 C 
ATOM     35  C   UNL     1       1.544  -2.824   1.673  0.00  0.00    +0.076 C 
ATOM     36  C   UNL     1       2.143  -2.513   0.300  0.00  0.00    +0.009 C 
ATOM     37  C   UNL     1       1.196  -1.594  -0.474  0.00  0.00    +0.009 C 
ENDBRANCH  26  35
ENDBRANCH   1  27
TORSDOF 4
