REMARK  Name = ZINC20083180
REMARK  13 active torsions:
REMARK  status: ('A' for Active; 'I' for Inactive)
REMARK    1  A    between atoms: C_1  and  C_2
REMARK    2  A    between atoms: C_4  and  C_41
REMARK    3  A    between atoms: C_9  and  C_14
REMARK    4  A    between atoms: C_14  and  C_16
REMARK    5  A    between atoms: C_14  and  N_25
REMARK    6  A    between atoms: N_20  and  C_21
REMARK    7  A    between atoms: C_21  and  C_22
REMARK    8  A    between atoms: C_21  and  C_23
REMARK    9  A    between atoms: C_21  and  C_24
REMARK   10  A    between atoms: N_25  and  C_26
REMARK   11  A    between atoms: N_25  and  C_33
REMARK   12  A    between atoms: C_26  and  C_27
REMARK   13  A    between atoms: C_33  and  C_34
REMARK                            x       y       z     vdW  Elec       q    Type
REMARK                         _______ _______ _______ _____ _____    ______ ____
ROOT
ATOM      1  C   UNL     1       2.856  -1.899  -2.142  0.00  0.00    +0.163 C 
ENDROOT
BRANCH   1  10
ATOM      2  C   UNL     1      -4.449  -0.820  -1.101  0.00  0.00    +0.044 C 
ATOM      3  C   UNL     1      -3.121  -0.375  -1.657  0.00  0.00    -0.050 A 
ATOM      4  C   UNL     1      -3.035   0.819  -2.360  0.00  0.00    +0.008 A 
ATOM      5  C   UNL     1      -1.831   1.246  -2.877  0.00  0.00    -0.026 A 
ATOM      6  C   UNL     1      -0.689   0.473  -2.694  0.00  0.00    +0.052 A 
ATOM      7  C   UNL     1      -0.780  -0.738  -1.982  0.00  0.00    -0.001 A 
ATOM      8  C   UNL     1      -2.013  -1.151  -1.466  0.00  0.00    +0.013 A 
ATOM      9  C   UNL     1       0.427  -1.544  -1.795  0.00  0.00    +0.021 A 
ATOM     10  C   UNL     1       1.595  -1.093  -2.317  0.00  0.00    +0.042 A 
ATOM     11  C   UNL     1       1.633   0.130  -3.019  0.00  0.00    +0.254 A 
ATOM     12  O   UNL     1       2.694   0.520  -3.476  0.00  0.00    -0.268 OA
ATOM     13  N   UNL     1       0.529   0.875  -3.201  0.00  0.00    -0.322 N 
ATOM     14  H   UNL     1       0.606   1.817  -3.763  0.00  0.00    +0.169 HD
ATOM     15  C   UNL     1      -1.752   2.545  -3.637  0.00  0.00    +0.046 C 
ENDBRANCH   1  10
BRANCH   1  16
ATOM     16  C   UNL     1       3.255  -2.501  -3.465  0.00  0.00    +0.174 A 
ATOM     17  N   UNL     1       3.630  -1.851  -4.540  0.00  0.00    -0.111 NA
ATOM     18  N   UNL     1       3.888  -2.716  -5.459  0.00  0.00    -0.023 NA
ATOM     19  N   UNL     1       3.687  -3.901  -4.998  0.00  0.00    -0.043 NA
ATOM     20  N   UNL     1       3.301  -3.811  -3.771  0.00  0.00    -0.222 N 
BRANCH  20  21
ATOM     21  C   UNL     1       2.971  -4.925  -2.878  0.00  0.00    +0.059 C 
ATOM     22  C   UNL     1       1.527  -4.781  -2.395  0.00  0.00    +0.036 C 
ATOM     23  C   UNL     1       3.127  -6.247  -3.632  0.00  0.00    +0.036 C 
ATOM     24  C   UNL     1       3.916  -4.910  -1.674  0.00  0.00    +0.036 C 
ENDBRANCH  20  21
ENDBRANCH   1  16
BRANCH   1  25
ATOM     25  N   UNL     1       3.933  -1.024  -1.658  0.00  0.00    -0.280 NA
BRANCH  25  26
ATOM     26  C   UNL     1       3.793  -0.766  -0.218  0.00  0.00    +0.121 C 
BRANCH  26  27
ATOM     27  C   UNL     1       2.657   0.196   0.012  0.00  0.00    -0.033 A 
ATOM     28  C   UNL     1       1.414  -0.280   0.387  0.00  0.00    +0.005 A 
ATOM     29  C   UNL     1       0.371   0.603   0.598  0.00  0.00    +0.000 A 
ATOM     30  C   UNL     1       0.571   1.960   0.434  0.00  0.00    +0.000 A 
ATOM     31  C   UNL     1       1.813   2.436   0.059  0.00  0.00    +0.000 A 
ATOM     32  C   UNL     1       2.856   1.554  -0.152  0.00  0.00    +0.005 A 
ENDBRANCH  26  27
ENDBRANCH  25  26
BRANCH  25  33
ATOM     33  C   UNL     1       5.252  -1.593  -1.966  0.00  0.00    +0.121 C 
BRANCH  33  34
ATOM     34  C   UNL     1       6.319  -0.568  -1.680  0.00  0.00    -0.033 A 
ATOM     35  C   UNL     1       6.725   0.302  -2.675  0.00  0.00    +0.008 A 
ATOM     36  C   UNL     1       7.700   1.245  -2.413  0.00  0.00    +0.038 A 
ATOM     37  C   UNL     1       8.279   1.311  -1.157  0.00  0.00    +0.123 A 
ATOM     38  C   UNL     1       7.876   0.435  -0.163  0.00  0.00    +0.038 A 
ATOM     39  C   UNL     1       6.896  -0.503  -0.426  0.00  0.00    +0.008 A 
ATOM     40  F   UNL     1       9.236   2.230  -0.901  0.00  0.00    -0.205 F 
ENDBRANCH  33  34
ENDBRANCH  25  33
ENDBRANCH   1  25
TORSDOF 8
