REMARK  Name = ZINC37638529
REMARK  3 active torsions:
REMARK  status: ('A' for Active; 'I' for Inactive)
REMARK    1  A    between atoms: C_4  and  N_7
REMARK    2  A    between atoms: C_8  and  C_19
REMARK    3  A    between atoms: C_24  and  N_25
REMARK                            x       y       z     vdW  Elec       q    Type
REMARK                         _______ _______ _______ _____ _____    ______ ____
ROOT
ATOM      1  N   UNL     1       3.462  -0.647  -0.112  0.00  0.00    -0.197 N 
ATOM      2  C   UNL     1       3.602  -2.100   0.044  0.00  0.00    +0.235 C 
ATOM      3  N   UNL     1       4.960  -2.669   0.061  0.00  0.00    -0.220 NA
ATOM      4  C   UNL     1       5.976  -1.832  -0.065  0.00  0.00    +0.079 C 
ATOM      5  C   UNL     1       7.305  -2.299  -0.059  0.00  0.00    +0.052 C 
ATOM      6  C   UNL     1       8.338  -1.400  -0.193  0.00  0.00    +0.035 C 
ATOM      7  C   UNL     1       8.095  -0.022  -0.336  0.00  0.00    +0.027 C 
ATOM      8  C   UNL     1       6.840   0.483  -0.349  0.00  0.00    +0.033 C 
ATOM      9  C   UNL     1       5.725  -0.386  -0.216  0.00  0.00    +0.105 C 
ATOM     10  N   UNL     1       4.503   0.098  -0.234  0.00  0.00    -0.176 NA
ATOM     11  N   UNL     1       9.648  -1.862  -0.186  0.00  0.00    -0.398 N 
ATOM     12  H   UNL     1       9.827  -2.811  -0.087  0.00  0.00    +0.156 HD
ATOM     13  H   UNL     1      10.383  -1.237  -0.280  0.00  0.00    +0.156 HD
ENDROOT
BRANCH   1  17
ATOM     14  C   UNL     1      -0.329   1.070  -0.177  0.00  0.00    +0.000 A 
ATOM     15  C   UNL     1       0.793   1.877  -0.130  0.00  0.00    +0.002 A 
ATOM     16  C   UNL     1       2.052   1.311  -0.108  0.00  0.00    +0.025 A 
ATOM     17  C   UNL     1       2.192  -0.072  -0.133  0.00  0.00    +0.054 A 
ATOM     18  C   UNL     1       1.061  -0.880  -0.180  0.00  0.00    +0.025 A 
ATOM     19  C   UNL     1      -0.195  -0.307  -0.202  0.00  0.00    +0.002 A 
ENDBRANCH   1  17
BRANCH   2  20
ATOM     20  C   UNL     1       2.926  -2.490   1.333  0.00  0.00    +0.024 A 
ATOM     21  C   UNL     1       2.782  -1.561   2.347  0.00  0.00    +0.009 A 
ATOM     22  C   UNL     1       2.162  -1.919   3.529  0.00  0.00    +0.001 A 
ATOM     23  C   UNL     1       1.685  -3.206   3.697  0.00  0.00    +0.002 A 
ATOM     24  C   UNL     1       1.828  -4.134   2.683  0.00  0.00    +0.033 A 
ATOM     25  C   UNL     1       2.445  -3.775   1.499  0.00  0.00    +0.133 A 
BRANCH  25  26
ATOM     26  N   UNL     1       2.593  -4.767   0.411  0.00  0.00    +0.057 N 
ATOM     27  O   UNL     1       2.079  -5.857   0.512  0.00  0.00    -0.126 OA
ATOM     28  O   UNL     1       3.228  -4.489  -0.579  0.00  0.00    -0.126 OA
ENDBRANCH  25  26
ENDBRANCH   2  20
TORSDOF 3
