REMARK  Name = ZINC33158949
REMARK  8 active torsions:
REMARK  status: ('A' for Active; 'I' for Inactive)
REMARK    1  A    between atoms: C_1  and  C_2
REMARK    2  A    between atoms: C_9  and  C_25
REMARK    3  A    between atoms: C_10  and  N_11
REMARK    4  A    between atoms: C_12  and  C_14
REMARK    5  A    between atoms: C_14  and  C_15
REMARK    6  A    between atoms: C_15  and  N_16
REMARK    7  A    between atoms: C_17  and  C_19
REMARK    8  A    between atoms: C_22  and  C_24
REMARK                            x       y       z     vdW  Elec       q    Type
REMARK                         _______ _______ _______ _____ _____    ______ ____
ROOT
ATOM      1  C   UNL     1      -6.082  -1.169  13.401  0.00  0.00    +0.047 C 
ATOM      2  C   UNL     1      -5.493  -0.938  12.034  0.00  0.00    -0.008 A 
ATOM      3  C   UNL     1      -6.303  -0.685  10.971  0.00  0.00    +0.008 A 
ATOM      4  C   UNL     1      -5.741  -0.472   9.700  0.00  0.00    +0.018 A 
ATOM      5  C   UNL     1      -4.404  -0.517   9.530  0.00  0.00    +0.094 A 
ATOM      6  N   UNL     1      -3.576  -0.770  10.589  0.00  0.00    -0.287 N 
ATOM      7  C   UNL     1      -4.096  -0.983  11.844  0.00  0.00    +0.143 A 
ATOM      8  N   UNL     1      -3.096  -1.203  12.682  0.00  0.00    -0.226 NA
ATOM      9  C   UNL     1      -1.933  -1.147  12.011  0.00  0.00    +0.112 A 
ATOM     10  C   UNL     1      -2.215  -0.868  10.690  0.00  0.00    +0.137 A 
ENDROOT
BRANCH   9  11
ATOM     11  C   UNL     1      -0.583  -1.345  12.590  0.00  0.00    +0.004 A 
ATOM     12  C   UNL     1       0.414  -1.971  11.842  0.00  0.00    +0.010 A 
ATOM     13  C   UNL     1       1.671  -2.148  12.385  0.00  0.00    +0.001 A 
ATOM     14  C   UNL     1       1.939  -1.716  13.671  0.00  0.00    +0.000 A 
ATOM     15  C   UNL     1       0.953  -1.099  14.420  0.00  0.00    +0.001 A 
ATOM     16  C   UNL     1      -0.306  -0.912  13.886  0.00  0.00    +0.010 A 
ENDBRANCH   9  11
BRANCH  10  17
ATOM     17  N   UNL     1      -1.290  -0.722   9.655  0.00  0.00    -0.270 N 
ATOM     18  C   UNL     1      -1.627  -1.068   8.396  0.00  0.00    +0.220 C 
ATOM     19  O   UNL     1      -2.690  -1.611   8.181  0.00  0.00    -0.275 OA
ATOM     20  H   UNL     1      -0.287  -0.323   9.866  0.00  0.00    +0.156 HD
BRANCH  18  21
ATOM     21  C   UNL     1      -0.683  -0.780   7.258  0.00  0.00    +0.115 C 
BRANCH  21  22
ATOM     22  C   UNL     1      -1.302  -1.270   5.947  0.00  0.00    +0.113 C 
BRANCH  22  23
ATOM     23  N   UNL     1      -0.384  -0.990   4.839  0.00  0.00    -0.315 N 
ATOM     24  C   UNL     1      -0.721  -1.337   3.581  0.00  0.00    +0.216 C 
ATOM     25  O   UNL     1      -1.784  -1.880   3.366  0.00  0.00    -0.276 OA
ATOM     26  H   UNL     1       0.580  -0.497   5.035  0.00  0.00    +0.149 HD
BRANCH  24  27
ATOM     27  C   UNL     1       0.223  -1.049   2.442  0.00  0.00    +0.078 C 
ATOM     28  C   UNL     1      -0.200   0.013   1.425  0.00  0.00    +0.017 C 
ATOM     29  C   UNL     1      -0.217  -1.466   1.037  0.00  0.00    -0.002 C 
ATOM     30  C   UNL     1       0.866  -1.957   0.074  0.00  0.00    +0.008 C 
ENDBRANCH  24  27
ENDBRANCH  22  23
ENDBRANCH  21  22
ENDBRANCH  18  21
ENDBRANCH  10  17
TORSDOF 6
