REMARK  Name = ZINC12344179
REMARK  11 active torsions:
REMARK  status: ('A' for Active; 'I' for Inactive)
REMARK    1  A    between atoms: C_1  and  C_2
REMARK    2  A    between atoms: C_2  and  O_3
REMARK    3  A    between atoms: O_3  and  C_4
REMARK    4  A    between atoms: C_4  and  C_6
REMARK    5  A    between atoms: C_10  and  N_11
REMARK    6  A    between atoms: C_12  and  C_14
REMARK    7  A    between atoms: N_19  and  S_20
REMARK    8  A    between atoms: S_20  and  C_23
REMARK    9  A    between atoms: C_26  and  O_29
REMARK   10  A    between atoms: O_29  and  C_30
REMARK   11  A    between atoms: C_32  and  C_36
REMARK                            x       y       z     vdW  Elec       q    Type
REMARK                         _______ _______ _______ _____ _____    ______ ____
ROOT
ATOM      1  N   UNL     1      -1.472   6.400   2.404  0.00  0.00    -0.278 N 
ATOM      2  C   UNL     1      -1.923   7.654   2.204  0.00  0.00    +0.236 C 
ATOM      3  O   UNL     1      -2.235   8.016   1.090  0.00  0.00    -0.274 OA
ATOM      4  H   UNL     1      -1.223   6.110   3.296  0.00  0.00    +0.155 HD
ENDROOT
BRANCH   1   9
ATOM      5  C   UNL     1      -0.927   4.206   1.341  0.00  0.00    +0.091 A 
ATOM      6  C   UNL     1      -0.910   3.499   0.071  0.00  0.00    -0.021 A 
ATOM      7  C   UNL     1      -1.331   4.217  -0.992  0.00  0.00    -0.004 A 
ATOM      8  S   UNL     1      -1.745   5.806  -0.331  0.00  0.00    -0.077 S 
ATOM      9  C   UNL     1      -1.365   5.523   1.336  0.00  0.00    +0.086 A 
ATOM     10  C   UNL     1      -1.423   3.756  -2.414  0.00  0.00    +0.046 C 
ATOM     11  C   UNL     1      -1.322   2.224  -2.433  0.00  0.00    -0.009 C 
ATOM     12  C   UNL     1      -0.137   1.797  -1.562  0.00  0.00    +0.008 C 
ATOM     13  C   UNL     1      -0.458   2.053  -0.088  0.00  0.00    +0.037 C 
ATOM     14  C   UNL     1      -1.103   1.742  -3.869  0.00  0.00    +0.008 C 
BRANCH   5  15
ATOM     15  C   UNL     1      -0.497   3.553   2.579  0.00  0.00    +0.342 C 
ATOM     16  O   UNL     1       0.668   3.610   2.924  0.00  0.00    -0.245 OA
BRANCH  15  17
ATOM     17  O   UNL     1      -1.393   2.889   3.338  0.00  0.00    -0.461 OA
BRANCH  17  19
ATOM     18  C   UNL     1      -2.049   1.565   5.274  0.00  0.00    +0.048 C 
ATOM     19  C   UNL     1      -0.897   2.266   4.552  0.00  0.00    +0.229 C 
ENDBRANCH  17  19
ENDBRANCH  15  17
ENDBRANCH   5  15
ENDBRANCH   1   9
BRANCH   2  20
ATOM     20  C   UNL     1      -2.039   8.607   3.366  0.00  0.00    +0.166 C 
ATOM     21  C   UNL     1      -3.426   8.461   4.028  0.00  0.00    +0.031 C 
ATOM     22  C   UNL     1      -3.793   9.928   4.387  0.00  0.00    +0.019 C 
ATOM     23  C   UNL     1      -3.176  10.705   3.197  0.00  0.00    +0.110 C 
ATOM     24  N   UNL     1      -1.923   9.993   2.890  0.00  0.00    -0.165 NA
BRANCH  24  25
ATOM     25  S   UNL     1      -0.603  10.645   2.132  0.00  0.00    +0.062 S 
ATOM     26  O   UNL     1       0.177   9.554   1.663  0.00  0.00    -0.153 OA
ATOM     27  O   UNL     1      -1.092  11.660   1.266  0.00  0.00    -0.153 OA
BRANCH  25  28
ATOM     28  C   UNL     1       0.358  11.457   3.366  0.00  0.00    +0.106 A 
ATOM     29  C   UNL     1       0.061  12.758   3.726  0.00  0.00    +0.032 A 
ATOM     30  C   UNL     1       0.810  13.395   4.698  0.00  0.00    +0.047 A 
ATOM     31  C   UNL     1       1.867  12.731   5.303  0.00  0.00    +0.120 A 
ATOM     32  C   UNL     1       2.166  11.427   4.936  0.00  0.00    +0.047 A 
ATOM     33  C   UNL     1       1.411  10.793   3.969  0.00  0.00    +0.032 A 
BRANCH  31  34
ATOM     34  O   UNL     1       2.608  13.358   6.255  0.00  0.00    -0.495 OA
ATOM     35  C   UNL     1       2.243  14.700   6.582  0.00  0.00    +0.277 C 
ENDBRANCH  31  34
ENDBRANCH  25  28
ENDBRANCH  24  25
ENDBRANCH   2  20
TORSDOF 8
