REMARK  Name = ZINC24897766
REMARK  10 active torsions:
REMARK  status: ('A' for Active; 'I' for Inactive)
REMARK    1  A    between atoms: C_1  and  C_2
REMARK    2  A    between atoms: C_2  and  O_3
REMARK    3  A    between atoms: O_3  and  C_4
REMARK    4  A    between atoms: C_4  and  C_6
REMARK    5  A    between atoms: C_6  and  N_7
REMARK    6  A    between atoms: C_13  and  N_16
REMARK    7  A    between atoms: C_25  and  C_27
REMARK    8  A    between atoms: C_27  and  C_28
REMARK    9  A    between atoms: N_30  and  C_31
REMARK   10  A    between atoms: C_31  and  C_32
REMARK                            x       y       z     vdW  Elec       q    Type
REMARK                         _______ _______ _______ _____ _____    ______ ____
ROOT
ATOM      1  N   UNL     1      -0.052  -3.471   1.510  0.00  0.00    +0.387 N 
ATOM      2  C   UNL     1      -1.234  -4.339   1.391  0.00  0.00    -0.073 C 
ATOM      3  C   UNL     1      -1.010  -5.584   2.252  0.00  0.00    +0.017 C 
ATOM      4  C   UNL     1      -0.583  -5.180   3.639  0.00  0.00    -0.047 A 
ATOM      5  C   UNL     1      -0.673  -6.116   4.658  0.00  0.00    +0.004 A 
ATOM      6  C   UNL     1      -0.289  -5.789   5.943  0.00  0.00    +0.000 A 
ATOM      7  C   UNL     1       0.188  -4.520   6.216  0.00  0.00    +0.000 A 
ATOM      8  C   UNL     1       0.277  -3.587   5.203  0.00  0.00    +0.002 A 
ATOM      9  C   UNL     1      -0.111  -3.914   3.911  0.00  0.00    -0.057 A 
ATOM     10  C   UNL     1      -0.003  -2.859   2.842  0.00  0.00    -0.028 C 
ATOM     11  H   UNL     1       0.851  -4.087   1.381  0.00  0.00    -0.081 HD
ENDROOT
BRANCH   1  18
ATOM     12  N   UNL     1      -1.660  -1.423  -4.080  0.00  0.00    -0.289 N 
ATOM     13  C   UNL     1      -1.925  -0.917  -2.859  0.00  0.00    +0.303 C 
ATOM     14  O   UNL     1      -2.926  -0.252  -2.680  0.00  0.00    -0.253 OA
ATOM     15  N   UNL     1      -1.081  -1.154  -1.834  0.00  0.00    -0.286 N 
ATOM     16  C   UNL     1      -1.294  -0.517  -0.527  0.00  0.00    +0.108 C 
ATOM     17  C   UNL     1      -1.325  -1.612   0.550  0.00  0.00    +0.004 C 
ATOM     18  C   UNL     1      -0.044  -2.445   0.459  0.00  0.00    -0.065 C 
ATOM     19  C   UNL     1       0.029  -3.121  -0.912  0.00  0.00    +0.004 C 
ATOM     20  C   UNL     1       0.072  -2.048  -2.005  0.00  0.00    +0.108 C 
ATOM     21  H   UNL     1      -0.802  -2.097  -4.222  0.00  0.00    +0.151 HD
BRANCH  12  22
ATOM     22  C   UNL     1      -2.514  -1.075  -5.218  0.00  0.00    +0.226 C 
BRANCH  22  23
ATOM     23  C   UNL     1      -2.007  -1.766  -6.457  0.00  0.00    +0.324 C 
ATOM     24  O   UNL     1      -1.032  -2.477  -6.396  0.00  0.00    -0.249 OA
BRANCH  23  25
ATOM     25  O   UNL     1      -2.639  -1.592  -7.628  0.00  0.00    -0.464 OA
BRANCH  25  27
ATOM     26  C   UNL     1      -2.941  -1.972 -10.015  0.00  0.00    +0.048 C 
ATOM     27  C   UNL     1      -2.095  -2.289  -8.780  0.00  0.00    +0.229 C 
ENDBRANCH  25  27
ENDBRANCH  23  25
ENDBRANCH  22  23
ENDBRANCH  12  22
ENDBRANCH   1  18
BRANCH  10  28
ATOM     28  C   UNL     1       1.319  -2.106   3.005  0.00  0.00    +0.085 C 
BRANCH  28  29
ATOM     29  C   UNL     1       2.467  -3.072   2.868  0.00  0.00    +0.212 C 
ATOM     30  O   UNL     1       2.256  -4.223   2.551  0.00  0.00    -0.276 OA
ATOM     31  N   UNL     1       3.728  -2.656   3.099  0.00  0.00    -0.308 N 
ATOM     32  H   UNL     1       3.913  -1.636   3.466  0.00  0.00    +0.149 HD
BRANCH  31  33
ATOM     33  C   UNL     1       4.854  -3.564   2.860  0.00  0.00    +0.178 C 
BRANCH  33  34
ATOM     34  C   UNL     1       6.133  -2.905   3.307  0.00  0.00    +0.122 A 
ATOM     35  C   UNL     1       6.671  -2.984   4.537  0.00  0.00    +0.046 A 
ATOM     36  C   UNL     1       7.862  -2.221   4.513  0.00  0.00    +0.041 A 
ATOM     37  C   UNL     1       7.980  -1.722   3.270  0.00  0.00    +0.195 A 
ATOM     38  O   UNL     1       6.933  -2.144   2.542  0.00  0.00    -0.466 OA
ENDBRANCH  33  34
ENDBRANCH  31  33
ENDBRANCH  28  29
ENDBRANCH  10  28
TORSDOF 9
