REMARK  Name = ZINC57993002
REMARK  5 active torsions:
REMARK  status: ('A' for Active; 'I' for Inactive)
REMARK    1  A    between atoms: C_6  and  C_11
REMARK    2  A    between atoms: C_11  and  N_12
REMARK    3  A    between atoms: N_12  and  C_13
REMARK    4  A    between atoms: N_12  and  C_23
REMARK    5  A    between atoms: C_13  and  N_14
REMARK                            x       y       z     vdW  Elec       q    Type
REMARK                         _______ _______ _______ _____ _____    ______ ____
ROOT
ATOM      1  N   UNL     1       5.483  -2.890   1.437  0.00  0.00    +0.397 N 
ATOM      2  H   UNL     1       5.599  -2.007   1.910  0.00  0.00    -0.078 HD
ENDROOT
BRANCH   1   3
ATOM      3  C   UNL     1       4.577  -3.747   2.214  0.00  0.00    -0.066 C 
ATOM      4  C   UNL     1       3.762  -3.086   3.328  0.00  0.00    -0.017 C 
ATOM      5  C   UNL     1       4.933  -4.006   3.679  0.00  0.00    -0.017 C 
ENDBRANCH   1   3
BRANCH   1   6
ATOM      6  C   UNL     1       4.913  -2.659   0.102  0.00  0.00    -0.040 C 
BRANCH   6  12
ATOM      7  C   UNL     1       0.109   1.632   0.565  0.00  0.00    +0.001 A 
ATOM      8  C   UNL     1       1.319   2.309   0.418  0.00  0.00    +0.001 A 
ATOM      9  C   UNL     1       2.491   1.629   0.299  0.00  0.00    +0.008 A 
ATOM     10  C   UNL     1       2.486   0.224   0.323  0.00  0.00    -0.018 A 
ATOM     11  C   UNL     1       3.677  -0.512   0.203  0.00  0.00    +0.010 A 
ATOM     12  C   UNL     1       3.634  -1.872   0.232  0.00  0.00    -0.063 A 
ATOM     13  C   UNL     1       2.424  -2.549   0.378  0.00  0.00    +0.002 A 
ATOM     14  C   UNL     1       1.251  -1.869   0.497  0.00  0.00    +0.009 A 
ATOM     15  C   UNL     1       1.256  -0.464   0.472  0.00  0.00    -0.018 A 
ATOM     16  C   UNL     1       0.065   0.272   0.592  0.00  0.00    +0.008 A 
ENDBRANCH   6  12
ENDBRANCH   1   6
BRANCH   1  17
ATOM     17  C   UNL     1       6.788  -3.551   1.304  0.00  0.00    +0.074 C 
BRANCH  17  18
ATOM     18  N   UNL     1       7.730  -2.643   0.644  0.00  0.00    -0.245 N 
ATOM     19  C   UNL     1       8.061  -2.863  -0.642  0.00  0.00    +0.285 A 
ATOM     20  O   UNL     1       7.582  -3.807  -1.250  0.00  0.00    -0.265 OA
ATOM     21  C   UNL     1       8.968  -1.991  -1.281  0.00  0.00    +0.126 A 
ATOM     22  C   UNL     1       9.473  -0.949  -0.550  0.00  0.00    +0.084 A 
ATOM     23  C   UNL     1       9.060  -0.812   0.786  0.00  0.00    +0.154 A 
ATOM     24  N   UNL     1       8.214  -1.656   1.307  0.00  0.00    -0.177 NA
ATOM     25 CL   UNL     1      10.595   0.172  -1.256  0.00  0.00    -0.080 Cl
ATOM     26 CL   UNL     1       9.428  -2.231  -2.938  0.00  0.00    -0.076 Cl
ENDBRANCH  17  18
ENDBRANCH   1  17
TORSDOF 5
