REMARK  Name = ZINC22987135
REMARK  5 active torsions:
REMARK  status: ('A' for Active; 'I' for Inactive)
REMARK    1  A    between atoms: C_6  and  C_7
REMARK    2  A    between atoms: C_10  and  C_12
REMARK    3  A    between atoms: C_12  and  N_13
REMARK    4  A    between atoms: C_14  and  C_16
REMARK    5  A    between atoms: C_16  and  N_17
REMARK                            x       y       z     vdW  Elec       q    Type
REMARK                         _______ _______ _______ _____ _____    ______ ____
ROOT
ATOM      1  N   UNL     1      -0.011   0.966   0.007  0.00  0.00    -0.307 N 
ATOM      2  C   UNL     1       1.147   1.655   0.000  0.00  0.00    +0.233 C 
ATOM      3  O   UNL     1       1.130   2.868   0.007  0.00  0.00    -0.274 OA
ATOM      4  H   UNL     1       0.004  -0.134   0.006  0.00  0.00    +0.149 HD
ENDROOT
BRANCH   1   5
ATOM      5  C   UNL     1      -1.290   1.681   0.017  0.00  0.00    +0.178 C 
BRANCH   5   9
ATOM      6  C   UNL     1      -3.985  -0.680  -0.697  0.00  0.00    +0.135 A 
ATOM      7  C   UNL     1      -4.012  -0.717   0.661  0.00  0.00    +0.050 A 
ATOM      8  C   UNL     1      -3.006   0.162   1.112  0.00  0.00    +0.047 A 
ATOM      9  C   UNL     1      -2.422   0.686   0.017  0.00  0.00    +0.123 A 
ATOM     10  O   UNL     1      -3.019   0.180  -1.074  0.00  0.00    -0.458 OA
BRANCH   6  16
ATOM     11  C   UNL     1      -5.833  -2.305  -1.080  0.00  0.00    +0.013 A 
ATOM     12  C   UNL     1      -6.656  -3.013  -1.931  0.00  0.00    +0.021 A 
ATOM     13  C   UNL     1      -6.519  -2.879  -3.302  0.00  0.00    +0.041 A 
ATOM     14  C   UNL     1      -5.559  -2.030  -3.828  0.00  0.00    +0.021 A 
ATOM     15  C   UNL     1      -4.733  -1.314  -2.987  0.00  0.00    +0.013 A 
ATOM     16  C   UNL     1      -4.867  -1.445  -1.603  0.00  0.00    +0.017 A 
ATOM     17 CL   UNL     1      -7.555  -3.778  -4.367  0.00  0.00    -0.084 Cl
ENDBRANCH   6  16
ENDBRANCH   5   9
ENDBRANCH   1   5
BRANCH   2  18
ATOM     18  C   UNL     1       2.462   0.920  -0.017  0.00  0.00    +0.221 C 
BRANCH  18  19
ATOM     19  N   UNL     1       3.562   1.887  -0.022  0.00  0.00    -0.290 N 
ATOM     20  C   UNL     1       4.061   2.333  -1.204  0.00  0.00    +0.203 A 
ATOM     21  N   UNL     1       5.030   3.193  -1.292  0.00  0.00    -0.237 NA
ATOM     22  C   UNL     1       5.629   3.704  -0.188  0.00  0.00    +0.078 A 
ATOM     23  C   UNL     1       6.676   4.624  -0.282  0.00  0.00    +0.029 A 
ATOM     24  C   UNL     1       7.255   5.117   0.865  0.00  0.00    +0.017 A 
ATOM     25  C   UNL     1       6.812   4.711   2.118  0.00  0.00    +0.019 A 
ATOM     26  C   UNL     1       5.781   3.804   2.236  0.00  0.00    +0.030 A 
ATOM     27  C   UNL     1       5.181   3.293   1.087  0.00  0.00    +0.066 A 
ATOM     28  C   UNL     1       4.077   2.323   1.151  0.00  0.00    +0.262 A 
ATOM     29  O   UNL     1       3.644   1.928   2.218  0.00  0.00    -0.267 OA
ATOM     30 BR   UNL     1       7.630   5.408   3.674  0.00  0.00    -0.050 Br
ENDBRANCH  18  19
ENDBRANCH   2  18
TORSDOF 5
