REMARK  Name = ZINC09052871
REMARK  8 active torsions:
REMARK  status: ('A' for Active; 'I' for Inactive)
REMARK    1  A    between atoms: C_4  and  C_7
REMARK    2  A    between atoms: C_7  and  C_8
REMARK    3  A    between atoms: C_11  and  S_19
REMARK    4  A    between atoms: N_12  and  C_13
REMARK    5  A    between atoms: S_19  and  C_20
REMARK    6  A    between atoms: C_20  and  C_21
REMARK    7  A    between atoms: N_23  and  C_24
REMARK    8  A    between atoms: C_29  and  N_30
REMARK                            x       y       z     vdW  Elec       q    Type
REMARK                         _______ _______ _______ _____ _____    ______ ____
ROOT
ATOM      1  C   UNL     1       4.247  -0.971   1.355  0.00  0.00    +0.139 A 
ATOM      2  N   UNL     1       4.990  -0.187   2.083  0.00  0.00    -0.133 NA
ATOM      3  N   UNL     1       5.173  -0.704   3.245  0.00  0.00    -0.122 NA
ATOM      4  C   UNL     1       4.550  -1.857   3.322  0.00  0.00    +0.192 A 
ATOM      5  N   UNL     1       3.935  -2.061   2.120  0.00  0.00    -0.303 N 
ENDROOT
BRANCH   5   6
ATOM      6  C   UNL     1       3.115  -3.211   1.730  0.00  0.00    +0.091 C 
ATOM      7  C   UNL     1       1.909  -3.317   2.664  0.00  0.00    +0.025 C 
ATOM      8  C   UNL     1       1.052  -4.518   2.256  0.00  0.00    +0.002 C 
ATOM      9  C   UNL     1       1.887  -5.796   2.353  0.00  0.00    +0.000 C 
ATOM     10  C   UNL     1       3.093  -5.690   1.418  0.00  0.00    +0.002 C 
ATOM     11  C   UNL     1       3.950  -4.489   1.826  0.00  0.00    +0.025 C 
ENDBRANCH   5   6
BRANCH   1  12
ATOM     12  C   UNL     1       3.807  -0.721  -0.064  0.00  0.00    +0.111 C 
BRANCH  12  16
ATOM     13  C   UNL     1       0.102   1.406  -0.054  0.00  0.00    +0.000 A 
ATOM     14  C   UNL     1       1.298   2.100  -0.056  0.00  0.00    +0.000 A 
ATOM     15  C   UNL     1       2.496   1.412  -0.059  0.00  0.00    +0.004 A 
ATOM     16  C   UNL     1       2.500   0.029  -0.060  0.00  0.00    -0.040 A 
ATOM     17  C   UNL     1       1.304  -0.665  -0.057  0.00  0.00    +0.004 A 
ATOM     18  C   UNL     1       0.105   0.023  -0.055  0.00  0.00    +0.000 A 
ENDBRANCH  12  16
ENDBRANCH   1  12
BRANCH   4  19
ATOM     19  S   UNL     1       4.509  -2.935   4.716  0.00  0.00    -0.077 S 
BRANCH  19  20
ATOM     20  C   UNL     1       5.507  -2.076   5.964  0.00  0.00    +0.173 C 
BRANCH  20  21
ATOM     21  C   UNL     1       5.554  -2.902   7.224  0.00  0.00    +0.228 C 
ATOM     22  O   UNL     1       4.972  -3.965   7.275  0.00  0.00    -0.275 OA
ATOM     23  N   UNL     1       6.243  -2.459   8.294  0.00  0.00    -0.283 N 
ATOM     24  H   UNL     1       6.762  -1.641   8.233  0.00  0.00    +0.155 HD
BRANCH  23  25
ATOM     25  C   UNL     1       6.211  -3.178   9.494  0.00  0.00    +0.064 A 
ATOM     26  C   UNL     1       6.155  -4.566   9.472  0.00  0.00    +0.025 A 
ATOM     27  C   UNL     1       6.123  -5.273  10.658  0.00  0.00    +0.002 A 
ATOM     28  C   UNL     1       6.147  -4.601  11.866  0.00  0.00    +0.002 A 
ATOM     29  C   UNL     1       6.202  -3.219  11.891  0.00  0.00    +0.034 A 
ATOM     30  C   UNL     1       6.240  -2.506  10.709  0.00  0.00    +0.147 A 
BRANCH  30  31
ATOM     31  N   UNL     1       6.307  -1.028  10.737  0.00  0.00    +0.058 N 
ATOM     32  O   UNL     1       6.430  -0.448  11.790  0.00  0.00    -0.126 OA
ATOM     33  O   UNL     1       6.237  -0.400   9.706  0.00  0.00    -0.126 OA
ENDBRANCH  30  31
ENDBRANCH  23  25
ENDBRANCH  20  21
ENDBRANCH  19  20
ENDBRANCH   4  19
TORSDOF 8
