REMARK  Name = ZINC63479973
REMARK  5 active torsions:
REMARK  status: ('A' for Active; 'I' for Inactive)
REMARK    1  A    between atoms: C_1  and  C_2
REMARK    2  A    between atoms: C_7  and  C_8
REMARK    3  A    between atoms: C_17  and  C_20
REMARK    4  A    between atoms: C_20  and  C_21
REMARK    5  A    between atoms: N_32  and  C_35
REMARK                            x       y       z     vdW  Elec       q    Type
REMARK                         _______ _______ _______ _____ _____    ______ ____
ROOT
ATOM      1  C   UNL     1       0.723   1.370  -0.022  0.00  0.00    +0.044 C 
ATOM      2  C   UNL     1       0.612  -0.132  -0.068  0.00  0.00    -0.046 A 
ATOM      3  C   UNL     1       0.327  -0.764  -1.265  0.00  0.00    +0.004 A 
ATOM      4  C   UNL     1       0.225  -2.143  -1.308  0.00  0.00    +0.008 A 
ATOM      5  C   UNL     1       0.408  -2.883  -0.161  0.00  0.00    +0.004 A 
ATOM      6  C   UNL     1       0.696  -2.258   1.049  0.00  0.00    +0.042 A 
ATOM      7  C   UNL     1       0.802  -0.870   1.082  0.00  0.00    -0.026 A 
ATOM      8  C   UNL     1       1.119  -0.171   2.379  0.00  0.00    +0.046 C 
ATOM      9  N   UNL     1       0.837  -3.209   2.062  0.00  0.00    -0.283 N 
ATOM     10  C   UNL     1       0.660  -4.465   1.608  0.00  0.00    +0.243 C 
ATOM     11  O   UNL     1       0.721  -5.486   2.260  0.00  0.00    -0.273 OA
ATOM     12  C   UNL     1       0.371  -4.356   0.136  0.00  0.00    +0.136 C 
ATOM     13  C   UNL     1      -0.991  -4.966  -0.216  0.00  0.00    +0.123 C 
ATOM     14  C   UNL     1      -0.782  -5.602  -1.618  0.00  0.00    +0.107 C 
ATOM     15  C   UNL     1       0.685  -5.290  -1.981  0.00  0.00    +0.072 C 
ATOM     16  N   UNL     1       1.364  -5.094  -0.666  0.00  0.00    -0.295 NA
ATOM     17  C   UNL     1      -0.943  -7.083  -1.358  0.00  0.00    +0.232 C 
ATOM     18  O   UNL     1      -0.848  -7.955  -2.194  0.00  0.00    -0.274 OA
ATOM     19  N   UNL     1      -1.206  -7.279  -0.061  0.00  0.00    -0.210 N 
ATOM     20  C   UNL     1      -1.265  -6.151   0.683  0.00  0.00    +0.233 C 
ATOM     21  O   UNL     1      -1.496  -6.089   1.871  0.00  0.00    -0.274 OA
ATOM     22  H   UNL     1       1.039  -2.991   2.985  0.00  0.00    +0.155 HD
ATOM     23  H   UNL     1       2.210  -4.557  -0.777  0.00  0.00    +0.124 HD
ENDROOT
BRANCH  19  24
ATOM     24  C   UNL     1      -1.409  -8.554   0.487  0.00  0.00    +0.044 A 
ATOM     25  C   UNL     1      -0.359  -9.459   0.552  0.00  0.00    +0.024 A 
ATOM     26  C   UNL     1      -0.563 -10.714   1.091  0.00  0.00    +0.002 A 
ATOM     27  C   UNL     1      -1.812 -11.069   1.567  0.00  0.00    +0.000 A 
ATOM     28  C   UNL     1      -2.860 -10.170   1.504  0.00  0.00    +0.002 A 
ATOM     29  C   UNL     1      -2.661  -8.911   0.970  0.00  0.00    +0.024 A 
ENDBRANCH  19  24
BRANCH  15  30
ATOM     30  C   UNL     1       1.314  -6.474  -2.719  0.00  0.00    +0.052 C 
BRANCH  30  31
ATOM     31  C   UNL     1       2.703  -6.104  -3.171  0.00  0.00    -0.040 C 
ATOM     32  C   UNL     1       3.864  -6.360  -2.526  0.00  0.00    -0.001 A 
ATOM     33  C   UNL     1       4.169  -7.035  -1.258  0.00  0.00    +0.010 A 
ATOM     34  C   UNL     1       5.458  -7.140  -0.865  0.00  0.00    +0.001 A 
ATOM     35  C   UNL     1       6.508  -6.622  -1.636  0.00  0.00    +0.002 A 
ATOM     36  C   UNL     1       6.307  -5.990  -2.812  0.00  0.00    +0.026 A 
ATOM     37  C   UNL     1       4.990  -5.823  -3.322  0.00  0.00    +0.043 A 
ATOM     38  N   UNL     1       4.544  -5.256  -4.416  0.00  0.00    -0.380 N 
ATOM     39  C   UNL     1       3.082  -5.375  -4.441  0.00  0.00    +0.144 C 
ATOM     40  H   UNL     1       5.089  -4.832  -5.097  0.00  0.00    +0.160 HD
ENDBRANCH  30  31
ENDBRANCH  15  30
TORSDOF 3
