REMARK  Name = ZINC59894389
REMARK  4 active torsions:
REMARK  status: ('A' for Active; 'I' for Inactive)
REMARK    1  A    between atoms: C_4  and  C_7
REMARK    2  A    between atoms: C_12  and  N_15
REMARK    3  A    between atoms: C_16  and  C_18
REMARK    4  A    between atoms: C_24  and  C_26
REMARK                            x       y       z     vdW  Elec       q    Type
REMARK                         _______ _______ _______ _____ _____    ______ ____
ROOT
ATOM      1  N   UNL     1       5.571  -5.288  -1.746  0.00  0.00    -0.311 N 
ATOM      2  C   UNL     1       6.011  -6.270  -2.558  0.00  0.00    +0.234 C 
ATOM      3  O   UNL     1       5.408  -6.530  -3.578  0.00  0.00    -0.274 OA
ATOM      4  H   UNL     1       6.053  -5.081  -0.931  0.00  0.00    +0.149 HD
ENDROOT
BRANCH   1  10
ATOM      5  C   UNL     1       2.446  -0.903  -2.023  0.00  0.00    +0.219 C 
ATOM      6  O   UNL     1       2.638  -0.095  -2.906  0.00  0.00    -0.275 OA
ATOM      7  N   UNL     1       2.777  -2.196  -2.208  0.00  0.00    -0.301 N 
ATOM      8  C   UNL     1       2.454  -3.205  -1.190  0.00  0.00    +0.109 C 
ATOM      9  C   UNL     1       3.733  -3.964  -0.824  0.00  0.00    +0.041 C 
ATOM     10  C   UNL     1       4.365  -4.534  -2.096  0.00  0.00    +0.076 C 
ATOM     11  C   UNL     1       4.736  -3.389  -3.041  0.00  0.00    +0.041 C 
ATOM     12  C   UNL     1       3.463  -2.624  -3.435  0.00  0.00    +0.109 C 
BRANCH   5  16
ATOM     13  C   UNL     1       1.528   1.531   1.409  0.00  0.00    +0.000 C 
ATOM     14  C   UNL     1       2.328   0.245   1.628  0.00  0.00    +0.001 C 
ATOM     15  C   UNL     1       2.947  -0.203   0.303  0.00  0.00    +0.013 C 
ATOM     16  C   UNL     1       1.836  -0.461  -0.717  0.00  0.00    +0.075 C 
ATOM     17  C   UNL     1       1.037   0.825  -0.937  0.00  0.00    +0.013 C 
ATOM     18  C   UNL     1       0.418   1.273   0.388  0.00  0.00    +0.001 C 
ENDBRANCH   5  16
ENDBRANCH   1  10
BRANCH   2  19
ATOM     19  C   UNL     1       7.252  -7.046  -2.198  0.00  0.00    +0.162 C 
ATOM     20  C   UNL     1       7.037  -7.789  -0.862  0.00  0.00    +0.033 C 
ATOM     21  C   UNL     1       6.638  -9.217  -1.319  0.00  0.00    +0.021 C 
ATOM     22  C   UNL     1       7.509  -9.393  -2.587  0.00  0.00    +0.108 C 
ATOM     23  N   UNL     1       7.523  -8.061  -3.227  0.00  0.00    -0.289 N 
ATOM     24  C   UNL     1       7.745  -7.815  -4.533  0.00  0.00    +0.222 C 
ATOM     25  O   UNL     1       7.818  -6.672  -4.931  0.00  0.00    -0.275 OA
BRANCH  24  26
ATOM     26  C   UNL     1       7.903  -8.961  -5.499  0.00  0.00    +0.048 C 
ATOM     27  C   UNL     1       9.036  -9.875  -5.026  0.00  0.00    +0.019 C 
ATOM     28  C   UNL     1       9.196 -11.038  -6.006  0.00  0.00    -0.009 C 
ATOM     29  C   UNL     1       9.529 -10.491  -7.396  0.00  0.00    +0.007 C 
ATOM     30  C   UNL     1       8.396  -9.578  -7.869  0.00  0.00    -0.009 C 
ATOM     31  C   UNL     1       8.236  -8.415  -6.889  0.00  0.00    +0.019 C 
ATOM     32  C   UNL     1       7.092 -10.374  -7.934  0.00  0.00    +0.007 C 
ATOM     33  C   UNL     1       6.759 -10.921  -6.544  0.00  0.00    -0.009 C 
ATOM     34  C   UNL     1       7.891 -11.835  -6.071  0.00  0.00    +0.007 C 
ATOM     35  C   UNL     1       6.598  -9.758  -5.563  0.00  0.00    +0.019 C 
ENDBRANCH  24  26
ENDBRANCH   2  19
TORSDOF 4
