REMARK  Name = ZINC46894198
REMARK  9 active torsions:
REMARK  status: ('A' for Active; 'I' for Inactive)
REMARK    1  A    between atoms: C_1  and  C_2
REMARK    2  A    between atoms: C_3  and  C_13
REMARK    3  A    between atoms: C_4  and  C_12
REMARK    4  A    between atoms: C_9  and  C_10
REMARK    5  A    between atoms: C_13  and  C_14
REMARK    6  A    between atoms: C_14  and  C_15
REMARK    7  A    between atoms: N_17  and  C_18
REMARK    8  A    between atoms: C_21  and  O_24
REMARK    9  A    between atoms: O_24  and  C_25
REMARK                            x       y       z     vdW  Elec       q    Type
REMARK                         _______ _______ _______ _____ _____    ______ ____
ROOT
ATOM      1  C   UNL     1      -3.900   1.969   0.795  0.00  0.00    +0.218 C 
ATOM      2  O   UNL     1      -4.549   2.272  -0.183  0.00  0.00    -0.275 OA
ATOM      3  N   UNL     1      -4.425   2.123   2.027  0.00  0.00    -0.285 N 
ATOM      4  H   UNL     1      -3.933   1.817   2.805  0.00  0.00    +0.155 HD
ENDROOT
BRANCH   3   5
ATOM      5  C   UNL     1      -5.680   2.724   2.183  0.00  0.00    +0.034 A 
ATOM      6  C   UNL     1      -5.926   3.547   3.274  0.00  0.00    +0.027 A 
ATOM      7  C   UNL     1      -7.163   4.139   3.427  0.00  0.00    +0.047 A 
ATOM      8  C   UNL     1      -8.162   3.913   2.491  0.00  0.00    +0.121 A 
ATOM      9  C   UNL     1      -7.917   3.091   1.401  0.00  0.00    +0.047 A 
ATOM     10  C   UNL     1      -6.678   2.503   1.243  0.00  0.00    +0.027 A 
BRANCH   8  11
ATOM     11  O   UNL     1      -9.380   4.497   2.643  0.00  0.00    -0.489 OA
BRANCH  11  12
ATOM     12  C   UNL     1     -10.396   4.129   1.708  0.00  0.00    +0.173 C 
ATOM     13  C   UNL     1     -10.311   5.026   0.455  0.00  0.00    +0.044 C 
ATOM     14  C   UNL     1     -11.789   5.257   0.052  0.00  0.00    +0.004 C 
ATOM     15  C   UNL     1     -12.499   5.394   1.421  0.00  0.00    +0.004 C 
ATOM     16  C   UNL     1     -11.788   4.363   2.322  0.00  0.00    +0.044 C 
ENDBRANCH  11  12
ENDBRANCH   8  11
ENDBRANCH   3   5
BRANCH   1  17
ATOM     17  C   UNL     1      -2.505   1.420   0.633  0.00  0.00    +0.101 C 
BRANCH  17  18
ATOM     18  C   UNL     1      -2.155   1.347  -0.854  0.00  0.00    +0.046 C 
BRANCH  18  21
ATOM     19  C   UNL     1       0.143   3.129  -0.688  0.00  0.00    +0.045 C 
ATOM     20  C   UNL     1       0.338   1.655  -0.936  0.00  0.00    -0.023 A 
ATOM     21  C   UNL     1      -0.761   0.799  -1.016  0.00  0.00    -0.024 A 
ATOM     22  C   UNL     1      -0.577  -0.527  -1.239  0.00  0.00    +0.019 A 
ATOM     23  N   UNL     1       0.665  -1.048  -1.387  0.00  0.00    -0.325 N 
ATOM     24  H   UNL     1       0.768  -2.000  -1.546  0.00  0.00    +0.169 HD
ATOM     25  C   UNL     1       1.760  -0.267  -1.319  0.00  0.00    +0.267 A 
ATOM     26  O   UNL     1       2.869  -0.754  -1.456  0.00  0.00    -0.266 OA
ATOM     27  C   UNL     1       1.617   1.127  -1.094  0.00  0.00    +0.119 A 
ATOM     28  C   UNL     1      -1.775  -1.437  -1.322  0.00  0.00    +0.063 C 
BRANCH  27  29
ATOM     29  C   UNL     1       2.769   1.976  -1.024  0.00  0.00    +0.105 C 
ATOM     30  N   UNL     1       3.682   2.648  -0.969  0.00  0.00    -0.191 NA
ENDBRANCH  27  29
ENDBRANCH  18  21
ENDBRANCH  17  18
ENDBRANCH   1  17
TORSDOF 7
