REMARK  Name = ZINC19949279
REMARK  9 active torsions:
REMARK  status: ('A' for Active; 'I' for Inactive)
REMARK    1  A    between atoms: C_1  and  C_2
REMARK    2  A    between atoms: C_5  and  N_9
REMARK    3  A    between atoms: C_7  and  C_8
REMARK    4  A    between atoms: N_9  and  C_10
REMARK    5  A    between atoms: N_9  and  S_23
REMARK    6  A    between atoms: C_10  and  C_11
REMARK    7  A    between atoms: N_13  and  N_14
REMARK    8  A    between atoms: C_15  and  C_16
REMARK    9  A    between atoms: S_23  and  C_26
REMARK                            x       y       z     vdW  Elec       q    Type
REMARK                         _______ _______ _______ _____ _____    ______ ____
ROOT
ATOM      1  N   UNL     1       0.058  -4.167  -0.021  0.00  0.00    -0.194 N 
ENDROOT
BRANCH   1   6
ATOM      2  C   UNL     1      -0.018   1.503   0.010  0.00  0.00    +0.044 C 
ATOM      3  C   UNL     1       0.002  -0.004   0.002  0.00  0.00    -0.047 A 
ATOM      4  C   UNL     1       0.006  -0.687  -1.200  0.00  0.00    +0.005 A 
ATOM      5  C   UNL     1       0.024  -2.068  -1.212  0.00  0.00    +0.025 A 
ATOM      6  C   UNL     1       0.040  -2.771  -0.013  0.00  0.00    +0.052 A 
ATOM      7  C   UNL     1       0.036  -2.081   1.192  0.00  0.00    +0.028 A 
ATOM      8  C   UNL     1       0.023  -0.700   1.196  0.00  0.00    -0.046 A 
ATOM      9  C   UNL     1       0.025   0.049   2.504  0.00  0.00    +0.044 C 
ENDBRANCH   1   6
BRANCH   1  10
ATOM     10  S   UNL     1      -0.543  -4.996  -1.322  0.00  0.00    +0.075 S 
ATOM     11  O   UNL     1      -1.041  -6.230  -0.823  0.00  0.00    -0.150 OA
ATOM     12  O   UNL     1      -1.358  -4.083  -2.045  0.00  0.00    -0.150 OA
BRANCH  10  13
ATOM     13  C   UNL     1       0.821  -5.389  -2.366  0.00  0.00    +0.109 A 
ATOM     14  C   UNL     1       1.208  -4.508  -3.359  0.00  0.00    +0.029 A 
ATOM     15  C   UNL     1       2.278  -4.816  -4.177  0.00  0.00    +0.002 A 
ATOM     16  C   UNL     1       2.962  -6.005  -4.003  0.00  0.00    +0.000 A 
ATOM     17  C   UNL     1       2.576  -6.885  -3.010  0.00  0.00    +0.002 A 
ATOM     18  C   UNL     1       1.508  -6.575  -2.188  0.00  0.00    +0.029 A 
ENDBRANCH  10  13
ENDBRANCH   1  10
BRANCH   1  19
ATOM     19  C   UNL     1       0.610  -4.899   1.122  0.00  0.00    +0.228 C 
BRANCH  19  20
ATOM     20  C   UNL     1      -0.456  -5.063   2.175  0.00  0.00    +0.251 C 
ATOM     21  O   UNL     1      -1.567  -4.613   1.989  0.00  0.00    -0.272 OA
ATOM     22  N   UNL     1      -0.174  -5.709   3.324  0.00  0.00    -0.206 N 
ATOM     23  H   UNL     1       0.714  -6.069   3.473  0.00  0.00    +0.177 HD
BRANCH  22  24
ATOM     24  N   UNL     1      -1.165  -5.862   4.303  0.00  0.00    -0.188 NA
ATOM     25  C   UNL     1      -0.894  -6.484   5.409  0.00  0.00    +0.138 C 
BRANCH  25  26
ATOM     26  C   UNL     1      -1.937  -6.645   6.439  0.00  0.00    -0.005 A 
ATOM     27  C   UNL     1      -3.219  -6.133   6.225  0.00  0.00    +0.010 A 
ATOM     28  C   UNL     1      -4.190  -6.286   7.193  0.00  0.00    +0.016 A 
ATOM     29  C   UNL     1      -3.896  -6.947   8.374  0.00  0.00    +0.018 A 
ATOM     30  C   UNL     1      -2.627  -7.457   8.592  0.00  0.00    +0.016 A 
ATOM     31  C   UNL     1      -1.649  -7.314   7.631  0.00  0.00    +0.010 A 
ATOM     32 BR   UNL     1      -5.233  -7.152   9.695  0.00  0.00    -0.050 Br
ENDBRANCH  25  26
ENDBRANCH  22  24
ENDBRANCH  19  20
ENDBRANCH   1  19
TORSDOF 7
