REMARK  Name = ZINC63249660
REMARK  5 active torsions:
REMARK  status: ('A' for Active; 'I' for Inactive)
REMARK    1  A    between atoms: C_4  and  C_7
REMARK    2  A    between atoms: C_7  and  C_8
REMARK    3  A    between atoms: C_8  and  N_9
REMARK    4  A    between atoms: N_9  and  C_10
REMARK    5  A    between atoms: C_18  and  C_25
REMARK                            x       y       z     vdW  Elec       q    Type
REMARK                         _______ _______ _______ _____ _____    ______ ____
ROOT
ATOM      1  C   UNL     1       5.895  -1.926   2.761  0.00  0.00    -0.045 C 
ATOM      2  C   UNL     1       6.199  -0.592   3.450  0.00  0.00    -0.013 C 
ATOM      3  C   UNL     1       7.204   0.230   2.647  0.00  0.00    +0.003 C 
ATOM      4  C   UNL     1       8.552  -0.507   2.573  0.00  0.00    +0.033 C 
ATOM      5  C   UNL     1       8.252  -1.908   2.101  0.00  0.00    -0.040 C 
ATOM      6  C   UNL     1       8.769  -2.638   1.121  0.00  0.00    -0.001 A 
ATOM      7  C   UNL     1       9.902  -2.399   0.212  0.00  0.00    +0.014 A 
ATOM      8  C   UNL     1      10.147  -3.368  -0.709  0.00  0.00    -0.044 A 
ATOM      9  C   UNL     1       9.387  -4.537  -0.816  0.00  0.00    +0.006 A 
ATOM     10  C   UNL     1       8.335  -4.844  -0.017  0.00  0.00    +0.026 A 
ATOM     11  C   UNL     1       7.986  -3.905   0.997  0.00  0.00    +0.043 A 
ATOM     12  N   UNL     1       7.054  -3.954   1.904  0.00  0.00    -0.379 N 
ATOM     13  C   UNL     1       7.170  -2.771   2.750  0.00  0.00    +0.092 C 
ATOM     14  H   UNL     1       6.394  -4.658   2.003  0.00  0.00    +0.160 HD
ENDROOT
BRANCH   8  15
ATOM     15  C   UNL     1      11.296  -3.173  -1.663  0.00  0.00    +0.019 C 
ATOM     16  C   UNL     1      10.771  -3.169  -3.100  0.00  0.00    +0.008 C 
ATOM     17  C   UNL     1      11.938  -2.971  -4.070  0.00  0.00    +0.001 C 
ATOM     18  C   UNL     1      12.944  -4.111  -3.897  0.00  0.00    +0.000 C 
ATOM     19  C   UNL     1      13.469  -4.114  -2.460  0.00  0.00    +0.001 C 
ATOM     20  C   UNL     1      12.302  -4.313  -1.491  0.00  0.00    +0.008 C 
ENDBRANCH   8  15
BRANCH   1  21
ATOM     21  N   UNL     1       5.453  -1.680   1.382  0.00  0.00    +0.383 N 
ATOM     22  H   UNL     1       5.340  -2.561   0.903  0.00  0.00    -0.085 HD
ATOM     23  H   UNL     1       6.144  -1.123   0.902  0.00  0.00    -0.085 HD
BRANCH  21  24
ATOM     24  C   UNL     1       4.171  -0.963   1.399  0.00  0.00    -0.077 C 
BRANCH  24  25
ATOM     25  C   UNL     1       3.711  -0.707  -0.038  0.00  0.00    +0.016 C 
BRANCH  25  29
ATOM     26  C   UNL     1      -0.017   1.378   0.010  0.00  0.00    +0.000 A 
ATOM     27  C   UNL     1       1.171   2.086   0.002  0.00  0.00    +0.000 A 
ATOM     28  C   UNL     1       2.377   1.411  -0.013  0.00  0.00    +0.003 A 
ATOM     29  C   UNL     1       2.396   0.029  -0.020  0.00  0.00    -0.049 A 
ATOM     30  C   UNL     1       1.208  -0.679  -0.012  0.00  0.00    +0.003 A 
ATOM     31  C   UNL     1       0.002  -0.004   0.002  0.00  0.00    +0.000 A 
ENDBRANCH  25  29
ENDBRANCH  24  25
ENDBRANCH  21  24
ENDBRANCH   1  21
TORSDOF 5
