REMARK  Name = ZINC44326013
REMARK  10 active torsions:
REMARK  status: ('A' for Active; 'I' for Inactive)
REMARK    1  A    between atoms: C_1  and  C_2
REMARK    2  A    between atoms: C_4  and  C_15
REMARK    3  A    between atoms: C_5  and  C_14
REMARK    4  A    between atoms: C_8  and  O_13
REMARK    5  A    between atoms: C_15  and  CA_16
REMARK    6  A    between atoms: CA_16  and  C_18
REMARK    7  A    between atoms: CA_16  and  N_21
REMARK    8  A    between atoms: C_22  and  O_24
REMARK    9  A    between atoms: O_24  and  C_25
REMARK   10  A    between atoms: C_25  and  C_26
REMARK                            x       y       z     vdW  Elec       q    Type
REMARK                         _______ _______ _______ _____ _____    ______ ____
ROOT
ATOM      1  CA  UNL     1      -1.714  -3.735  -1.616  0.00  0.00    +0.193 C 
ENDROOT
BRANCH   1   2
ATOM      2  N   UNL     1      -2.446  -2.676  -2.315  0.00  0.00    -0.267 N 
ATOM      3  C   UNL     1      -3.767  -2.515  -2.101  0.00  0.00    +0.401 C 
ATOM      4  O   UNL     1      -4.351  -3.249  -1.329  0.00  0.00    -0.226 OA
ATOM      5  H   UNL     1      -1.980  -2.090  -2.932  0.00  0.00    +0.153 HD
BRANCH   3   6
ATOM      6  O   UNL     1      -4.440  -1.542  -2.744  0.00  0.00    -0.449 OA
BRANCH   6   7
ATOM      7  C   UNL     1      -5.838  -1.430  -2.470  0.00  0.00    +0.246 C 
BRANCH   7   8
ATOM      8  C   UNL     1      -6.427  -0.277  -3.285  0.00  0.00    +0.088 C 
ATOM      9  C   UNL     1      -5.896   1.042  -2.780  0.00  0.00    -0.029 A 
ATOM     10  C   UNL     1      -4.619   1.555  -2.698  0.00  0.00    +0.005 A 
ATOM     11  C   UNL     1      -4.413   2.821  -2.180  0.00  0.00    +0.000 A 
ATOM     12  C   UNL     1      -5.488   3.575  -1.744  0.00  0.00    +0.001 A 
ATOM     13  C   UNL     1      -6.769   3.069  -1.822  0.00  0.00    +0.009 A 
ATOM     14  C   UNL     1      -6.984   1.792  -2.344  0.00  0.00    -0.014 A 
ATOM     15  C   UNL     1      -8.232   1.015  -2.541  0.00  0.00    -0.014 A 
ATOM     16  C   UNL     1      -7.924  -0.222  -3.102  0.00  0.00    -0.029 A 
ATOM     17  C   UNL     1      -8.925  -1.128  -3.380  0.00  0.00    +0.005 A 
ATOM     18  C   UNL     1     -10.243  -0.811  -3.104  0.00  0.00    +0.000 A 
ATOM     19  C   UNL     1     -10.559   0.415  -2.547  0.00  0.00    +0.001 A 
ATOM     20  C   UNL     1      -9.564   1.328  -2.265  0.00  0.00    +0.009 A 
ENDBRANCH   7   8
ENDBRANCH   6   7
ENDBRANCH   3   6
ENDBRANCH   1   2
BRANCH   1  21
ATOM     21  C   UNL     1      -1.848  -5.027  -2.380  0.00  0.00    +0.376 C 
ATOM     22  O   UNL     1      -1.469  -6.072  -1.881  0.00  0.00    -0.244 OA
ATOM     23  OXT UNL     1      -2.335  -5.026  -3.498  0.00  0.00    -0.244 OA
ENDBRANCH   1  21
BRANCH   1  24
ATOM     24  C   UNL     1      -0.236  -3.352  -1.515  0.00  0.00    +0.071 C 
BRANCH  24  28
ATOM     25  C   UNL     1       0.212   1.496  -0.009  0.00  0.00    +0.064 C 
ATOM     26  C   UNL     1       0.102  -0.007  -0.006  0.00  0.00    +0.023 A 
ATOM     27  C   UNL     1      -0.023  -0.793  -1.095  0.00  0.00    +0.026 A 
ATOM     28  C   UNL     1      -0.092  -2.128  -0.648  0.00  0.00    -0.024 A 
ATOM     29  C   UNL     1      -0.006  -2.110   0.698  0.00  0.00    +0.026 A 
ATOM     30  N   UNL     1       0.120  -0.810   1.099  0.00  0.00    -0.299 N 
ATOM     31  C   UNL     1       0.242  -0.373   2.423  0.00  0.00    +0.180 A 
ATOM     32  C   UNL     1       1.263  -0.879   3.226  0.00  0.00    +0.160 A 
ATOM     33  C   UNL     1       1.371  -0.435   4.537  0.00  0.00    +0.050 A 
ATOM     34  C   UNL     1       0.454   0.499   4.996  0.00  0.00    +0.023 A 
ATOM     35  C   UNL     1      -0.531   0.956   4.143  0.00  0.00    +0.113 A 
ATOM     36  N   UNL     1      -0.608   0.520   2.899  0.00  0.00    -0.234 NA
ATOM     37  C   UNL     1      -0.036  -3.315   1.601  0.00  0.00    +0.064 C 
BRANCH  32  38
ATOM     38  O   UNL     1       2.139  -1.795   2.733  0.00  0.00    -0.503 OA
ATOM     39  H   UNL     1       2.960  -1.411   2.394  0.00  0.00    +0.292 HD
ENDBRANCH  32  38
ENDBRANCH  24  28
ENDBRANCH   1  24
TORSDOF 8
