REMARK  Name = ZINC33033644
REMARK  14 active torsions:
REMARK  status: ('A' for Active; 'I' for Inactive)
REMARK    1  A    between atoms: C_1  and  C_2
REMARK    2  A    between atoms: C_2  and  C_3
REMARK    3  A    between atoms: C_3  and  N_4
REMARK    4  A    between atoms: C_5  and  C_7
REMARK    5  A    between atoms: C_7  and  N_8
REMARK    6  A    between atoms: N_8  and  C_9
REMARK    7  A    between atoms: C_10  and  C_12
REMARK    8  A    between atoms: C_15  and  N_31
REMARK    9  A    between atoms: C_16  and  N_18
REMARK   10  A    between atoms: N_18  and  S_19
REMARK   11  A    between atoms: S_19  and  C_22
REMARK   12  A    between atoms: C_23  and  C_30
REMARK   13  A    between atoms: C_25  and  C_29
REMARK   14  A    between atoms: C_27  and  C_28
REMARK                            x       y       z     vdW  Elec       q    Type
REMARK                         _______ _______ _______ _____ _____    ______ ____
ROOT
ATOM      1  C   UNL     1       6.753   1.439  -2.400  0.00  0.00    +0.039 A 
ATOM      2  C   UNL     1       6.805   1.460  -3.796  0.00  0.00    +0.015 A 
ATOM      3  C   UNL     1       6.046   0.574  -4.528  0.00  0.00    +0.026 A 
ATOM      4  C   UNL     1       5.226  -0.344  -3.881  0.00  0.00    +0.052 A 
ATOM      5  C   UNL     1       5.170  -0.371  -2.485  0.00  0.00    +0.070 A 
ATOM      6  C   UNL     1       5.925   0.520  -1.747  0.00  0.00    +0.039 A 
ENDROOT
BRANCH   4   7
ATOM      7  N   UNL     1       4.460  -1.238  -4.626  0.00  0.00    -0.332 N 
ATOM      8  C   UNL     1       4.468  -0.879  -6.051  0.00  0.00    +0.086 C 
ATOM      9  C   UNL     1       3.554  -1.835  -6.821  0.00  0.00    -0.063 C 
ATOM     10  N   UNL     1       4.018  -3.216  -6.626  0.00  0.00    +0.381 N 
ATOM     11  C   UNL     1       4.010  -3.575  -5.201  0.00  0.00    -0.063 C 
ATOM     12  C   UNL     1       4.925  -2.619  -4.432  0.00  0.00    +0.086 C 
ATOM     13  H   UNL     1       3.355  -3.906  -7.169  0.00  0.00    -0.086 HD
ATOM     14  H   UNL     1       5.044  -3.315  -7.010  0.00  0.00    -0.086 HD
ENDBRANCH   4   7
BRANCH   1  17
ATOM     15  N   UNL     1       8.789   2.748  -2.052  0.00  0.00    -0.292 N 
ATOM     16  C   UNL     1       9.273   2.273  -3.350  0.00  0.00    +0.133 C 
ATOM     17  C   UNL     1       7.565   2.388  -1.616  0.00  0.00    +0.247 C 
ATOM     18  O   UNL     1       7.132   2.846  -0.576  0.00  0.00    -0.270 OA
BRANCH  15  19
ATOM     19  C   UNL     1       9.635   3.614  -1.227  0.00  0.00    +0.203 C 
BRANCH  19  21
ATOM     20  N   UNL     1      11.348   3.351   0.538  0.00  0.00    -0.314 N 
ATOM     21  C   UNL     1      10.486   2.766  -0.317  0.00  0.00    +0.230 C 
ATOM     22  O   UNL     1      10.394   1.557  -0.353  0.00  0.00    -0.274 OA
ATOM     23  H   UNL     1      11.431   4.448   0.571  0.00  0.00    +0.149 HD
BRANCH  20  24
ATOM     24  C   UNL     1      12.175   2.527   1.423  0.00  0.00    +0.104 C 
BRANCH  24  26
ATOM     25  C   UNL     1      13.922   2.571   3.209  0.00  0.00    +0.005 C 
ATOM     26  C   UNL     1      13.058   3.432   2.284  0.00  0.00    +0.015 C 
ENDBRANCH  24  26
ENDBRANCH  20  24
ENDBRANCH  19  21
ENDBRANCH  15  19
ENDBRANCH   1  17
BRANCH   5  27
ATOM     27  N   UNL     1       4.344  -1.296  -1.835  0.00  0.00    -0.214 N 
ATOM     28  H   UNL     1       4.714  -2.311  -1.625  0.00  0.00    +0.174 HD
BRANCH  27  29
ATOM     29  S   UNL     1       2.811  -0.864  -1.383  0.00  0.00    +0.073 S 
ATOM     30  O   UNL     1       2.924   0.376  -0.698  0.00  0.00    -0.150 OA
ATOM     31  O   UNL     1       2.223  -2.013  -0.788  0.00  0.00    -0.150 OA
BRANCH  29  32
ATOM     32  C   UNL     1       1.904  -0.542  -2.860  0.00  0.00    +0.114 A 
ATOM     33  C   UNL     1       1.887   0.731  -3.397  0.00  0.00    -0.023 A 
ATOM     34  C   UNL     1       1.176   0.984  -4.555  0.00  0.00    +0.008 A 
ATOM     35  C   UNL     1       0.482  -0.037  -5.176  0.00  0.00    -0.050 A 
ATOM     36  C   UNL     1       0.499  -1.311  -4.639  0.00  0.00    +0.008 A 
ATOM     37  C   UNL     1       1.210  -1.563  -3.481  0.00  0.00    -0.023 A 
ATOM     38  C   UNL     1       1.229  -2.952  -2.896  0.00  0.00    +0.046 C 
ATOM     39  C   UNL     1      -0.299   0.239  -6.435  0.00  0.00    +0.044 C 
ATOM     40  C   UNL     1       2.644   1.845  -2.720  0.00  0.00    +0.046 C 
ENDBRANCH  29  32
ENDBRANCH  27  29
ENDBRANCH   5  27
TORSDOF 9
