REMARK  Name = ZINC05362490
REMARK  9 active torsions:
REMARK  status: ('A' for Active; 'I' for Inactive)
REMARK    1  A    between atoms: C_1  and  C_2
REMARK    2  A    between atoms: C_8  and  N_10
REMARK    3  A    between atoms: C_14  and  C_16
REMARK    4  A    between atoms: C_16  and  O_17
REMARK    5  A    between atoms: O_17  and  C_18
REMARK    6  A    between atoms: C_18  and  C_20
REMARK    7  A    between atoms: C_23  and  N_29
REMARK    8  A    between atoms: C_24  and  N_26
REMARK    9  A    between atoms: N_29  and  C_30
REMARK                            x       y       z     vdW  Elec       q    Type
REMARK                         _______ _______ _______ _____ _____    ______ ____
ROOT
ATOM      1  O   UNL     1       2.554   1.462  -0.075  0.00  0.00    -0.452 OA
ENDROOT
BRANCH   1   2
ATOM      2  C   UNL     1       3.846   1.846  -0.073  0.00  0.00    +0.340 C 
ATOM      3  O   UNL     1       4.129   3.028  -0.080  0.00  0.00    -0.245 OA
BRANCH   2   4
ATOM      4  C   UNL     1       4.916   0.832  -0.063  0.00  0.00    +0.061 A 
ATOM      5  C   UNL     1       4.593  -0.528  -0.056  0.00  0.00    +0.017 A 
ATOM      6  C   UNL     1       5.585  -1.467  -0.047  0.00  0.00    +0.026 A 
ATOM      7  C   UNL     1       6.920  -1.075  -0.045  0.00  0.00    +0.058 A 
ATOM      8  C   UNL     1       7.252   0.278  -0.052  0.00  0.00    +0.148 A 
ATOM      9  C   UNL     1       6.257   1.229  -0.067  0.00  0.00    +0.049 A 
BRANCH   8  10
ATOM     10  N   UNL     1       8.673   0.692  -0.050  0.00  0.00    +0.058 N 
ATOM     11  O   UNL     1       8.964   1.870   0.051  0.00  0.00    -0.126 OA
ATOM     12  O   UNL     1       9.552  -0.146  -0.150  0.00  0.00    -0.126 OA
ENDBRANCH   8  10
BRANCH   7  13
ATOM     13  N   UNL     1       7.926  -2.035  -0.037  0.00  0.00    -0.339 N 
ATOM     14  H   UNL     1       8.854  -1.766  -0.117  0.00  0.00    +0.146 HD
BRANCH  13  15
ATOM     15  C   UNL     1       7.582  -3.453   0.094  0.00  0.00    +0.071 C 
ATOM     16  C   UNL     1       8.352  -4.274   1.131  0.00  0.00    +0.024 C 
ATOM     17  C   UNL     1       8.624  -4.477  -0.361  0.00  0.00    +0.024 C 
ENDBRANCH  13  15
ENDBRANCH   7  13
ENDBRANCH   2   4
ENDBRANCH   1   2
BRANCH   1  18
ATOM     18  C   UNL     1       1.554   2.514  -0.085  0.00  0.00    +0.328 C 
BRANCH  18  23
ATOM     19  N   UNL     1      -3.235   2.931  -0.120  0.00  0.00    -0.296 N 
ATOM     20  C   UNL     1      -2.144   2.140  -0.106  0.00  0.00    +0.306 C 
ATOM     21  O   UNL     1      -2.269   0.931  -0.098  0.00  0.00    -0.252 OA
ATOM     22  N   UNL     1      -0.913   2.690  -0.100  0.00  0.00    -0.237 N 
ATOM     23  C   UNL     1       0.178   1.899  -0.086  0.00  0.00    +0.258 C 
ATOM     24  O   UNL     1       0.053   0.694  -0.078  0.00  0.00    -0.272 OA
ATOM     25  H   UNL     1      -3.135   3.896  -0.126  0.00  0.00    +0.151 HD
ATOM     26  H   UNL     1      -0.813   3.655  -0.106  0.00  0.00    +0.159 HD
BRANCH  19  33
ATOM     27  C   UNL     1      -5.173   3.656   1.906  0.00  0.00    +0.009 C 
ATOM     28  C   UNL     1      -5.576   3.323   0.468  0.00  0.00    +0.006 C 
ATOM     29  C   UNL     1      -6.973   2.698   0.461  0.00  0.00    +0.005 C 
ATOM     30  C   UNL     1      -7.376   2.365  -0.977  0.00  0.00    +0.000 C 
ATOM     31  C   UNL     1      -6.372   1.376  -1.571  0.00  0.00    +0.002 C 
ATOM     32  C   UNL     1      -4.975   2.000  -1.565  0.00  0.00    +0.022 C 
ATOM     33  C   UNL     1      -4.572   2.333  -0.127  0.00  0.00    +0.077 C 
ENDBRANCH  19  33
ENDBRANCH  18  23
ENDBRANCH   1  18
TORSDOF 8
