REMARK  Name = ZINC63708162
REMARK  9 active torsions:
REMARK  status: ('A' for Active; 'I' for Inactive)
REMARK    1  A    between atoms: C_1  and  C_2
REMARK    2  A    between atoms: C_4  and  C_9
REMARK    3  A    between atoms: C_5  and  C_8
REMARK    4  A    between atoms: C_9  and  C_10
REMARK    5  A    between atoms: C_10  and  C_11
REMARK    6  A    between atoms: C_21  and  S_25
REMARK    7  A    between atoms: S_25  and  C_26
REMARK    8  A    between atoms: C_26  and  C_27
REMARK    9  A    between atoms: C_31  and  N_33
REMARK                            x       y       z     vdW  Elec       q    Type
REMARK                         _______ _______ _______ _____ _____    ______ ____
ROOT
ATOM      1  C   UNL     1      -0.903  -1.177  -4.570  0.00  0.00    +0.090 C 
ATOM      2  N   UNL     1      -1.866  -0.418  -5.033  0.00  0.00    -0.332 N 
ATOM      3  C   UNL     1      -1.883  -0.460  -6.371  0.00  0.00    +0.128 C 
ATOM      4  C   UNL     1      -2.702   0.162  -7.336  0.00  0.00    +0.038 A 
ATOM      5  C   UNL     1      -3.743   1.020  -6.944  0.00  0.00    +0.013 A 
ATOM      6  C   UNL     1      -4.523   1.612  -7.890  0.00  0.00    +0.001 A 
ATOM      7  C   UNL     1      -4.318   1.390  -9.250  0.00  0.00    +0.002 A 
ATOM      8  C   UNL     1      -3.328   0.571  -9.696  0.00  0.00    +0.026 A 
ATOM      9  C   UNL     1      -2.483  -0.074  -8.766  0.00  0.00    +0.048 A 
ATOM     10  N   UNL     1      -1.512  -0.875  -9.181  0.00  0.00    -0.356 N 
ATOM     11  C   UNL     1      -0.646  -1.535  -8.197  0.00  0.00    +0.248 C 
ATOM     12  N   UNL     1      -0.873  -1.293  -6.772  0.00  0.00    -0.204 N 
ATOM     13  N   UNL     1      -0.245  -1.744  -5.605  0.00  0.00    -0.249 N 
ATOM     14  H   UNL     1       0.513  -2.348  -5.550  0.00  0.00    +0.171 HD
ATOM     15  H   UNL     1      -1.375  -1.025 -10.130  0.00  0.00    +0.162 HD
ATOM     16  H   UNL     1      -2.478   0.099  -4.486  0.00  0.00    +0.168 HD
ENDROOT
BRANCH   1  17
ATOM     17  C   UNL     1      -0.577  -1.379  -3.113  0.00  0.00    +0.075 C 
BRANCH  17  18
ATOM     18  C   UNL     1       0.433  -0.322  -2.664  0.00  0.00    +0.042 C 
BRANCH  18  21
ATOM     19  C   UNL     1      -0.019   1.526   0.010  0.00  0.00    +0.039 C 
ATOM     20  C   UNL     1       0.002  -0.004   0.002  0.00  0.00    +0.153 C 
ATOM     21  C   UNL     1       0.759  -0.524  -1.207  0.00  0.00    -0.021 C 
ATOM     22  C   UNL     1       1.780  -1.203  -0.679  0.00  0.00    +0.061 C 
ATOM     23  N   UNL     1       1.738  -1.160   0.671  0.00  0.00    -0.159 NA
ATOM     24  N   UNL     1       0.787  -0.521   1.136  0.00  0.00    -0.180 NA
ATOM     25  C   UNL     1       2.837  -1.919  -1.480  0.00  0.00    +0.067 C 
ENDBRANCH  18  21
ENDBRANCH  17  18
ENDBRANCH   1  17
BRANCH  11  26
ATOM     26  S   UNL     1      -0.771  -3.324  -8.472  0.00  0.00    -0.111 S 
BRANCH  26  27
ATOM     27  C   UNL     1      -2.531  -3.684  -8.220  0.00  0.00    +0.108 C 
BRANCH  27  28
ATOM     28  C   UNL     1      -2.776  -5.158  -8.422  0.00  0.00    -0.035 A 
ATOM     29  C   UNL     1      -3.089  -5.641  -9.679  0.00  0.00    +0.004 A 
ATOM     30  C   UNL     1      -3.313  -6.992  -9.864  0.00  0.00    +0.003 A 
ATOM     31  C   UNL     1      -3.225  -7.860  -8.792  0.00  0.00    +0.033 A 
ATOM     32  C   UNL     1      -2.911  -7.378  -7.536  0.00  0.00    +0.126 A 
ATOM     33  C   UNL     1      -2.682  -6.027  -7.351  0.00  0.00    +0.037 A 
BRANCH  32  34
ATOM     34  N   UNL     1      -2.817  -8.308  -6.388  0.00  0.00    +0.056 N 
ATOM     35  O   UNL     1      -3.014  -9.489  -6.550  0.00  0.00    -0.126 OA
ATOM     36  O   UNL     1      -2.542  -7.886  -5.289  0.00  0.00    -0.126 OA
ENDBRANCH  32  34
ENDBRANCH  27  28
ENDBRANCH  26  27
ENDBRANCH  11  26
TORSDOF 7
