REMARK  Name = ZINC33407117
REMARK  10 active torsions:
REMARK  status: ('A' for Active; 'I' for Inactive)
REMARK    1  A    between atoms: C_1  and  C_2
REMARK    2  A    between atoms: C_2  and  O_3
REMARK    3  A    between atoms: O_3  and  C_4
REMARK    4  A    between atoms: C_4  and  C_6
REMARK    5  A    between atoms: C_7  and  C_25
REMARK    6  A    between atoms: C_8  and  C_24
REMARK    7  A    between atoms: C_10  and  N_11
REMARK    8  A    between atoms: C_12  and  C_14
REMARK    9  A    between atoms: C_14  and  S_15
REMARK   10  A    between atoms: S_15  and  C_16
REMARK                            x       y       z     vdW  Elec       q    Type
REMARK                         _______ _______ _______ _____ _____    ______ ____
ROOT
ATOM      1  N   UNL     1      -0.597  -2.461  -3.936  0.00  0.00    -0.279 N 
ATOM      2  C   UNL     1      -1.105  -2.790  -5.140  0.00  0.00    +0.228 C 
ATOM      3  O   UNL     1      -0.378  -3.232  -6.005  0.00  0.00    -0.275 OA
ATOM      4  H   UNL     1      -1.178  -2.108  -3.245  0.00  0.00    +0.155 HD
ENDROOT
BRANCH   1   9
ATOM      5  C   UNL     1       1.449  -2.344  -2.516  0.00  0.00    +0.091 A 
ATOM      6  C   UNL     1       2.868  -2.621  -2.523  0.00  0.00    -0.025 A 
ATOM      7  C   UNL     1       3.363  -3.119  -3.671  0.00  0.00    -0.008 A 
ATOM      8  S   UNL     1       1.934  -3.213  -4.727  0.00  0.00    -0.078 S 
ATOM      9  C   UNL     1       0.756  -2.627  -3.686  0.00  0.00    +0.086 A 
ATOM     10  C   UNL     1       4.785  -3.503  -3.986  0.00  0.00    +0.052 C 
ATOM     11  C   UNL     1       3.739  -2.366  -1.320  0.00  0.00    +0.045 C 
BRANCH   5  12
ATOM     12  C   UNL     1       0.776  -1.800  -1.335  0.00  0.00    +0.342 C 
ATOM     13  O   UNL     1       0.312  -2.552  -0.499  0.00  0.00    -0.245 OA
BRANCH  12  14
ATOM     14  O   UNL     1       0.671  -0.465  -1.174  0.00  0.00    -0.461 OA
BRANCH  14  16
ATOM     15  C   UNL     1      -0.019   1.526   0.010  0.00  0.00    +0.048 C 
ATOM     16  C   UNL     1       0.002  -0.004   0.002  0.00  0.00    +0.229 C 
ENDBRANCH  14  16
ENDBRANCH  12  14
ENDBRANCH   5  12
ENDBRANCH   1   9
BRANCH   2  17
ATOM     17  C   UNL     1      -2.576  -2.610  -5.413  0.00  0.00    +0.175 C 
BRANCH  17  18
ATOM     18  S   UNL     1      -2.946  -3.139  -7.108  0.00  0.00    -0.056 S 
BRANCH  18  19
ATOM     19  C   UNL     1      -4.680  -2.870  -7.269  0.00  0.00    +0.278 A 
ATOM     20  N   UNL     1      -5.458  -2.390  -6.339  0.00  0.00    -0.116 NA
ATOM     21  N   UNL     1      -6.755  -2.330  -6.854  0.00  0.00    -0.165 N 
ATOM     22  C   UNL     1      -8.056  -2.005  -6.631  0.00  0.00    +0.252 A 
ATOM     23  N   UNL     1      -8.716  -2.274  -7.727  0.00  0.00    -0.133 NA
ATOM     24  N   UNL     1      -7.915  -2.744  -8.617  0.00  0.00    -0.090 NA
ATOM     25  C   UNL     1      -6.696  -2.799  -8.132  0.00  0.00    +0.347 A 
ATOM     26  O   UNL     1      -5.408  -3.122  -8.374  0.00  0.00    -0.396 OA
ENDBRANCH  18  19
ENDBRANCH  17  18
ENDBRANCH   2  17
TORSDOF 7
