REMARK  Name = ZINC18663386
REMARK  6 active torsions:
REMARK  status: ('A' for Active; 'I' for Inactive)
REMARK    1  A    between atoms: C_1  and  C_2
REMARK    2  A    between atoms: C_2  and  N_3
REMARK    3  A    between atoms: C_7  and  S_9
REMARK    4  A    between atoms: S_9  and  C_10
REMARK    5  A    between atoms: C_10  and  C_12
REMARK    6  A    between atoms: C_10  and  C_18
REMARK                            x       y       z     vdW  Elec       q    Type
REMARK                         _______ _______ _______ _____ _____    ______ ____
ROOT
ATOM      1  C   UNL     1      -2.521   0.926  -0.060  0.00  0.00    +0.169 C 
ENDROOT
BRANCH   1   2
ATOM      2  C   UNL     1      -1.210   1.661   0.050  0.00  0.00    +0.238 C 
ATOM      3  O   UNL     1      -1.137   2.676   0.709  0.00  0.00    -0.274 OA
ATOM      4  N   UNL     1      -0.118   1.190  -0.585  0.00  0.00    -0.239 N 
ATOM      5  C   UNL     1       1.026   1.902  -0.575  0.00  0.00    +0.303 C 
ATOM      6  O   UNL     1       1.075   2.966   0.010  0.00  0.00    -0.253 OA
ATOM      7  N   UNL     1       2.116   1.434  -1.215  0.00  0.00    -0.313 N 
ATOM      8  H   UNL     1      -0.157   0.341  -1.052  0.00  0.00    +0.159 HD
ATOM      9  H   UNL     1       2.077   0.585  -1.682  0.00  0.00    +0.146 HD
ATOM     10  H   UNL     1       2.940   1.946  -1.208  0.00  0.00    +0.146 HD
ENDBRANCH   1   2
BRANCH   1  11
ATOM     11  C   UNL     1      -2.610  -0.108   1.033  0.00  0.00    -0.025 A 
ATOM     12  C   UNL     1      -1.638  -1.085   1.141  0.00  0.00    +0.005 A 
ATOM     13  C   UNL     1      -1.718  -2.031   2.147  0.00  0.00    +0.000 A 
ATOM     14  C   UNL     1      -2.774  -2.005   3.038  0.00  0.00    +0.000 A 
ATOM     15  C   UNL     1      -3.748  -1.030   2.927  0.00  0.00    +0.000 A 
ATOM     16  C   UNL     1      -3.666  -0.082   1.925  0.00  0.00    +0.005 A 
ENDBRANCH   1  11
BRANCH   1  17
ATOM     17  S   UNL     1      -2.622   0.107  -1.675  0.00  0.00    -0.079 S 
BRANCH  17  22
ATOM     18  N   UNL     1      -2.772   3.857  -6.095  0.00  0.00    -0.322 N 
ATOM     19  C   UNL     1      -2.725   3.157  -4.895  0.00  0.00    +0.182 A 
ATOM     20  N   UNL     1      -2.651   3.618  -3.661  0.00  0.00    -0.125 NA
ATOM     21  N   UNL     1      -2.620   2.740  -2.603  0.00  0.00    -0.133 NA
ATOM     22  C   UNL     1      -2.654   1.441  -2.827  0.00  0.00    +0.161 A 
ATOM     23  S   UNL     1      -2.747   1.394  -4.610  0.00  0.00    -0.025 S 
ATOM     24  H   UNL     1      -2.826   3.375  -6.935  0.00  0.00    +0.148 HD
BRANCH  18  26
ATOM     25  C   UNL     1      -2.805   5.837  -7.530  0.00  0.00    +0.024 C 
ATOM     26  C   UNL     1      -2.741   5.321  -6.091  0.00  0.00    +0.100 C 
ENDBRANCH  18  26
ENDBRANCH  17  22
ENDBRANCH   1  17
TORSDOF 5
