REMARK  Name = ZINC48949020
REMARK  6 active torsions:
REMARK  status: ('A' for Active; 'I' for Inactive)
REMARK    1  A    between atoms: C_1  and  N_2
REMARK    2  A    between atoms: N_2  and  C_3
REMARK    3  A    between atoms: N_2  and  C_11
REMARK    4  A    between atoms: C_3  and  C_4
REMARK    5  A    between atoms: C_11  and  C_12
REMARK    6  A    between atoms: C_12  and  C_14
REMARK                            x       y       z     vdW  Elec       q    Type
REMARK                         _______ _______ _______ _____ _____    ______ ____
ROOT
ATOM      1  C   UNL     1      -0.018   1.465   0.010  0.00  0.00    -0.095 C 
ATOM      2  N   UNL     1       0.002  -0.004   0.002  0.00  0.00    +0.384 N 
ATOM      3  H   UNL     1       0.490  -0.338   0.820  0.00  0.00    -0.082 HD
ENDROOT
BRANCH   2   4
ATOM      4  C   UNL     1      -1.376  -0.512   0.012  0.00  0.00    -0.047 C 
BRANCH   4   5
ATOM      5  C   UNL     1      -2.053  -0.124   1.328  0.00  0.00    +0.102 C 
ATOM      6  C   UNL     1      -3.489  -0.654   1.340  0.00  0.00    +0.030 C 
ATOM      7  C   UNL     1      -4.140  -0.314   2.684  0.00  0.00    +0.005 C 
ATOM      8  C   UNL     1      -3.293  -0.907   3.814  0.00  0.00    +0.028 C 
ATOM      9  C   UNL     1      -1.864  -0.367   3.707  0.00  0.00    +0.160 C 
ATOM     10  O   UNL     1      -1.329  -0.691   2.422  0.00  0.00    -0.378 OA
ENDBRANCH   4   5
ENDBRANCH   2   4
BRANCH   2  11
ATOM     11  C   UNL     1       0.690  -0.478  -1.207  0.00  0.00    +0.002 C 
BRANCH  11  12
ATOM     12  C   UNL     1       2.137  -0.060  -1.158  0.00  0.00    +0.148 C 
ATOM     13  O   UNL     1       2.554   0.571  -0.209  0.00  0.00    -0.294 OA
BRANCH  12  14
ATOM     14  C   UNL     1       3.037  -0.414  -2.254  0.00  0.00    +0.038 A 
ATOM     15  C   UNL     1       2.577  -1.160  -3.404  0.00  0.00    +0.035 A 
ATOM     16  C   UNL     1       3.507  -1.422  -4.342  0.00  0.00    +0.057 A 
ATOM     17  S   UNL     1       4.978  -0.671  -3.679  0.00  0.00    -0.074 S 
ATOM     18  C   UNL     1       4.371  -0.048  -2.245  0.00  0.00    +0.066 A 
ATOM     19 BR   UNL     1       5.299   0.928  -0.918  0.00  0.00    -0.042 Br
ATOM     20 BR   UNL     1       3.300  -2.361  -5.971  0.00  0.00    -0.043 Br
ENDBRANCH  12  14
ENDBRANCH  11  12
ENDBRANCH   2  11
TORSDOF 5
