REMARK  Name = ZINC38610107
REMARK  7 active torsions:
REMARK  status: ('A' for Active; 'I' for Inactive)
REMARK    1  A    between atoms: C_1  and  C_2
REMARK    2  A    between atoms: C_2  and  C_4
REMARK    3  A    between atoms: C_2  and  N_22
REMARK    4  A    between atoms: N_6  and  C_7
REMARK    5  A    between atoms: C_15  and  C_17
REMARK    6  A    between atoms: C_17  and  O_19
REMARK    7  A    between atoms: O_19  and  C_20
REMARK                            x       y       z     vdW  Elec       q    Type
REMARK                         _______ _______ _______ _____ _____    ______ ____
ROOT
ATOM      1  C   UNL     1      -1.922  -0.647  -0.810  0.00  0.00    +0.203 C 
ATOM      2  O   UNL     1      -1.823  -1.316   0.197  0.00  0.00    -0.277 OA
ATOM      3  N   UNL     1      -3.139  -0.360  -1.312  0.00  0.00    -0.288 N 
ATOM      4  H   UNL     1      -3.217   0.125  -2.148  0.00  0.00    +0.155 HD
ENDROOT
BRANCH   3   5
ATOM      5  C   UNL     1      -4.261  -0.750  -0.644  0.00  0.00    +0.053 C 
ATOM      6  C   UNL     1      -5.571  -0.419  -0.945  0.00  0.00    +0.019 A 
ATOM      7  C   UNL     1      -6.144   0.374  -1.968  0.00  0.00    +0.031 A 
ATOM      8  C   UNL     1      -7.490   0.529  -2.024  0.00  0.00    +0.042 A 
ATOM      9  C   UNL     1      -8.337  -0.077  -1.090  0.00  0.00    +0.022 A 
ATOM     10  C   UNL     1      -7.858  -0.849  -0.085  0.00  0.00    +0.027 A 
ATOM     11  C   UNL     1      -6.460  -1.060   0.039  0.00  0.00    +0.045 A 
ATOM     12  N   UNL     1      -5.756  -1.754   0.911  0.00  0.00    -0.367 N 
ATOM     13  C   UNL     1      -4.333  -1.640   0.578  0.00  0.00    +0.234 C 
ATOM     14 CL   UNL     1      -8.179   1.505  -3.284  0.00  0.00    -0.084 Cl
ATOM     15  H   UNL     1      -6.122  -2.262   1.652  0.00  0.00    +0.161 HD
BRANCH  13  16
ATOM     16  C   UNL     1      -3.760  -2.998   0.265  0.00  0.00    +0.335 C 
ATOM     17  O   UNL     1      -4.385  -3.775  -0.416  0.00  0.00    -0.248 OA
BRANCH  16  18
ATOM     18  O   UNL     1      -2.554  -3.344   0.743  0.00  0.00    -0.466 OA
ATOM     19  C   UNL     1      -2.072  -4.646   0.407  0.00  0.00    +0.280 C 
ENDBRANCH  16  18
ENDBRANCH  13  16
ENDBRANCH   3   5
BRANCH   1  21
ATOM     20  C   UNL     1      -0.355   1.268  -0.986  0.00  0.00    -0.004 C 
ATOM     21  C   UNL     1      -0.683  -0.136  -1.499  0.00  0.00    +0.016 C 
BRANCH  21  22
ATOM     22  N   UNL     1       0.442  -1.037  -1.215  0.00  0.00    +0.387 N 
ATOM     23  C   UNL     1       0.168  -2.357  -1.794  0.00  0.00    -0.073 C 
ATOM     24  C   UNL     1       1.297  -3.323  -1.427  0.00  0.00    +0.046 C 
ATOM     25  C   UNL     1       2.620  -2.782  -1.975  0.00  0.00    +0.167 C 
ATOM     26  C   UNL     1       2.860  -1.372  -1.431  0.00  0.00    +0.046 C 
ATOM     27  C   UNL     1       1.670  -0.482  -1.797  0.00  0.00    -0.073 C 
ATOM     28  O   UNL     1       3.695  -3.643  -1.567  0.00  0.00    -0.346 OA
ATOM     29  C   UNL     1       3.895  -4.540  -2.687  0.00  0.00    +0.191 C 
ATOM     30  C   UNL     1       3.621  -3.606  -3.892  0.00  0.00    +0.191 C 
ATOM     31  O   UNL     1       2.571  -2.745  -3.406  0.00  0.00    -0.346 OA
ATOM     32  H   UNL     1       0.556  -1.126  -0.216  0.00  0.00    -0.081 HD
ENDBRANCH  21  22
ENDBRANCH   1  21
TORSDOF 5
