REMARK  Name = ZINC10961056
REMARK  6 active torsions:
REMARK  status: ('A' for Active; 'I' for Inactive)
REMARK    1  A    between atoms: C_1  and  C_2
REMARK    2  A    between atoms: C_2  and  C_4
REMARK    3  A    between atoms: C_2  and  O_14
REMARK    4  A    between atoms: O_14  and  C_15
REMARK    5  A    between atoms: C_15  and  C_17
REMARK    6  A    between atoms: C_22  and  N_23
REMARK                            x       y       z     vdW  Elec       q    Type
REMARK                         _______ _______ _______ _____ _____    ______ ____
ROOT
ATOM      1  O   UNL     1       4.682   5.469  -0.493  0.00  0.00    -0.449 OA
ENDROOT
BRANCH   1   3
ATOM      2  C   UNL     1       5.694   3.831   0.997  0.00  0.00    +0.062 C 
ATOM      3  C   UNL     1       4.910   4.048  -0.299  0.00  0.00    +0.259 C 
BRANCH   3   4
ATOM      4  C   UNL     1       3.586   3.335  -0.210  0.00  0.00    +0.259 C 
ATOM      5  O   UNL     1       2.553   3.970  -0.211  0.00  0.00    -0.271 OA
ATOM      6  N   UNL     1       3.549   1.990  -0.130  0.00  0.00    -0.267 N 
ATOM      7  C   UNL     1       2.325   1.323  -0.157  0.00  0.00    +0.125 A 
ATOM      8  C   UNL     1       2.298  -0.067  -0.183  0.00  0.00    +0.045 A 
ATOM      9  C   UNL     1       1.077  -0.717  -0.209  0.00  0.00    +0.025 A 
ATOM     10  C   UNL     1      -0.082   0.050  -0.209  0.00  0.00    +0.059 A 
ATOM     11  C   UNL     1       0.020   1.428  -0.182  0.00  0.00    +0.132 A 
ATOM     12  N   UNL     1       1.199   2.019  -0.158  0.00  0.00    -0.239 NA
ATOM     13 CL   UNL     1      -1.640  -0.714  -0.241  0.00  0.00    -0.082 Cl
ATOM     14  H   UNL     1       4.374   1.486  -0.054  0.00  0.00    +0.156 HD
ENDBRANCH   3   4
ENDBRANCH   1   3
BRANCH   1  15
ATOM     15  C   UNL     1       5.617   6.149  -1.186  0.00  0.00    +0.342 C 
ATOM     16  O   UNL     1       6.596   5.571  -1.615  0.00  0.00    -0.245 OA
BRANCH  15  17
ATOM     17  C   UNL     1       5.453   7.594  -1.423  0.00  0.00    +0.082 A 
ATOM     18  C   UNL     1       4.394   8.288  -0.829  0.00  0.00    +0.037 A 
ATOM     19  C   UNL     1       4.245   9.639  -1.054  0.00  0.00    +0.043 A 
ATOM     20  C   UNL     1       5.141  10.317  -1.867  0.00  0.00    +0.042 A 
ATOM     21  C   UNL     1       6.192   9.646  -2.460  0.00  0.00    +0.064 A 
ATOM     22  C   UNL     1       6.361   8.283  -2.241  0.00  0.00    +0.057 A 
ATOM     23 CL   UNL     1       7.307  10.505  -3.476  0.00  0.00    -0.082 Cl
ATOM     24 CL   UNL     1       2.929  10.498  -0.316  0.00  0.00    -0.083 Cl
BRANCH  22  25
ATOM     25  N   UNL     1       7.421   7.607  -2.832  0.00  0.00    -0.356 N 
ATOM     26  H   UNL     1       7.583   6.675  -2.615  0.00  0.00    +0.142 HD
ATOM     27  H   UNL     1       7.999   8.066  -3.461  0.00  0.00    +0.142 HD
ENDBRANCH  22  25
ENDBRANCH  15  17
ENDBRANCH   1  15
TORSDOF 5
