REMARK  Name = ZINC67289167
REMARK  5 active torsions:
REMARK  status: ('A' for Active; 'I' for Inactive)
REMARK    1  A    between atoms: C_9  and  N_11
REMARK    2  A    between atoms: C_12  and  C_14
REMARK    3  A    between atoms: C_14  and  N_15
REMARK    4  A    between atoms: C_17  and  C_22
REMARK    5  A    between atoms: C_24  and  C_27
REMARK                            x       y       z     vdW  Elec       q    Type
REMARK                         _______ _______ _______ _____ _____    ______ ____
ROOT
ATOM      1  N   UNL     1       7.473   1.790  -0.952  0.00  0.00    -0.306 N 
ATOM      2  C   UNL     1       7.186   3.107  -0.974  0.00  0.00    +0.103 A 
ATOM      3  C   UNL     1       8.025   4.016  -0.366  0.00  0.00    +0.056 A 
ATOM      4  C   UNL     1       9.196   3.558   0.283  0.00  0.00    +0.020 A 
ATOM      5  C   UNL     1       9.466   2.224   0.294  0.00  0.00    +0.071 A 
ATOM      6  C   UNL     1       8.578   1.332  -0.335  0.00  0.00    +0.252 A 
ATOM      7  O   UNL     1       8.814   0.136  -0.325  0.00  0.00    -0.268 OA
ENDROOT
BRANCH   3   8
ATOM      8  C   UNL     1       7.706   5.457  -0.394  0.00  0.00    +0.260 A 
ATOM      9  N   UNL     1       8.427   6.416   0.141  0.00  0.00    -0.187 NA
ATOM     10  C   UNL     1       7.840   7.604  -0.074  0.00  0.00    +0.202 A 
ATOM     11  N   UNL     1       6.734   7.413  -0.752  0.00  0.00    -0.056 NA
ATOM     12  O   UNL     1       6.630   6.015  -0.977  0.00  0.00    -0.332 OA
BRANCH  10  13
ATOM     13  C   UNL     1       8.357   8.918   0.382  0.00  0.00    +0.023 A 
ATOM     14  C   UNL     1       9.553   8.990   1.094  0.00  0.00    +0.012 A 
ATOM     15  C   UNL     1      10.030  10.214   1.516  0.00  0.00    +0.002 A 
ATOM     16  C   UNL     1       9.324  11.369   1.234  0.00  0.00    +0.015 A 
ATOM     17  C   UNL     1       8.136  11.304   0.527  0.00  0.00    +0.019 A 
ATOM     18  C   UNL     1       7.653  10.084   0.095  0.00  0.00    +0.027 A 
ATOM     19 BR   UNL     1       7.176  12.889   0.145  0.00  0.00    -0.050 Br
ENDBRANCH  10  13
ENDBRANCH   3   8
BRANCH   1  20
ATOM     20  C   UNL     1       6.566   0.843  -1.604  0.00  0.00    +0.220 C 
BRANCH  20  22
ATOM     21  N   UNL     1       4.577  -0.496  -0.997  0.00  0.00    -0.307 N 
ATOM     22  C   UNL     1       5.524   0.384  -0.617  0.00  0.00    +0.233 C 
ATOM     23  O   UNL     1       5.538   0.807   0.520  0.00  0.00    -0.274 OA
ATOM     24  H   UNL     1       4.566  -0.835  -1.906  0.00  0.00    +0.149 HD
BRANCH  21  33
ATOM     25  C   UNL     1      -0.017   1.377   0.010  0.00  0.00    +0.000 A 
ATOM     26  C   UNL     1       1.172   2.083   0.002  0.00  0.00    +0.000 A 
ATOM     27  C   UNL     1       2.376   1.406  -0.013  0.00  0.00    +0.006 A 
ATOM     28  C   UNL     1       2.396   0.021  -0.021  0.00  0.00    -0.024 A 
ATOM     29  C   UNL     1       1.208  -0.685  -0.013  0.00  0.00    -0.042 A 
ATOM     30  C   UNL     1       0.002  -0.004   0.002  0.00  0.00    +0.004 A 
ATOM     31  C   UNL     1       1.496  -2.171  -0.025  0.00  0.00    +0.037 C 
ATOM     32  C   UNL     1       2.966  -2.294  -0.480  0.00  0.00    +0.032 C 
ATOM     33  C   UNL     1       3.564  -0.942  -0.037  0.00  0.00    +0.104 C 
ENDBRANCH  21  33
ENDBRANCH  20  22
ENDBRANCH   1  20
TORSDOF 5
