REMARK  Name = ZINC41720147
REMARK  6 active torsions:
REMARK  status: ('A' for Active; 'I' for Inactive)
REMARK    1  A    between atoms: C_1  and  C_2
REMARK    2  A    between atoms: C_6  and  C_8
REMARK    3  A    between atoms: C_10  and  C_13
REMARK    4  A    between atoms: C_13  and  N_14
REMARK    5  A    between atoms: C_17  and  C_21
REMARK    6  A    between atoms: C_17  and  C_22
REMARK                            x       y       z     vdW  Elec       q    Type
REMARK                         _______ _______ _______ _____ _____    ______ ____
ROOT
ATOM      1  N   UNL     1       1.497  -6.359   4.553  0.00  0.00    -0.215 N 
ATOM      2  C   UNL     1       2.220  -6.976   3.599  0.00  0.00    +0.252 C 
ATOM      3  O   UNL     1       1.859  -7.267   2.479  0.00  0.00    -0.272 OA
ATOM      4  C   UNL     1       3.581  -7.231   4.216  0.00  0.00    +0.141 C 
ATOM      5  N   UNL     1       3.454  -6.676   5.575  0.00  0.00    -0.281 N 
ATOM      6  C   UNL     1       2.205  -6.186   5.675  0.00  0.00    +0.310 C 
ATOM      7  O   UNL     1       1.769  -5.649   6.674  0.00  0.00    -0.252 OA
ATOM      8  C   UNL     1       4.673  -6.497   3.434  0.00  0.00    +0.047 C 
ATOM      9  H   UNL     1       4.139  -6.663   6.262  0.00  0.00    +0.152 HD
ENDROOT
BRANCH   4  10
ATOM     10  C   UNL     1       3.870  -8.709   4.272  0.00  0.00    +0.022 A 
ATOM     11  C   UNL     1       4.616  -9.399   5.168  0.00  0.00    +0.014 A 
ATOM     12  C   UNL     1       4.743 -10.768   5.022  0.00  0.00    +0.008 A 
ATOM     13  C   UNL     1       4.117 -11.379   3.987  0.00  0.00    +0.045 A 
ATOM     14  S   UNL     1       3.310 -10.006   3.180  0.00  0.00    -0.099 S 
ENDBRANCH   4  10
BRANCH   1  15
ATOM     15  C   UNL     1       0.108  -5.926   4.382  0.00  0.00    +0.216 C 
BRANCH  15  18
ATOM     16  C   UNL     1       0.051  -2.846   2.464  0.00  0.00    +0.202 A 
ATOM     17  N   UNL     1       0.075  -4.185   2.585  0.00  0.00    -0.190 NA
ATOM     18  C   UNL     1       0.083  -4.518   3.844  0.00  0.00    +0.246 A 
ATOM     19  O   UNL     1       0.066  -3.400   4.580  0.00  0.00    -0.336 OA
ATOM     20  N   UNL     1       0.051  -2.316   3.662  0.00  0.00    -0.056 NA
BRANCH  16  26
ATOM     21  C   UNL     1      -0.018   1.503   0.010  0.00  0.00    +0.044 C 
ATOM     22  C   UNL     1       0.002  -0.004   0.002  0.00  0.00    -0.050 A 
ATOM     23  C   UNL     1       0.006  -0.688  -1.201  0.00  0.00    +0.003 A 
ATOM     24  C   UNL     1       0.024  -2.071  -1.216  0.00  0.00    +0.001 A 
ATOM     25  C   UNL     1       0.039  -2.776  -0.029  0.00  0.00    +0.012 A 
ATOM     26  C   UNL     1       0.036  -2.092   1.185  0.00  0.00    +0.023 A 
ATOM     27  C   UNL     1       0.023  -0.699   1.194  0.00  0.00    +0.015 A 
ENDBRANCH  16  26
ENDBRANCH  15  18
ENDBRANCH   1  15
TORSDOF 4
