REMARK  Name = ZINC16913602
REMARK  8 active torsions:
REMARK  status: ('A' for Active; 'I' for Inactive)
REMARK    1  A    between atoms: C_1  and  N_63
REMARK    2  A    between atoms: C_2  and  N_63
REMARK    3  A    between atoms: C_3  and  C_4
REMARK    4  A    between atoms: C_3  and  N_63
REMARK    5  A    between atoms: C_4  and  N_5
REMARK    6  A    between atoms: C_19  and  C_21
REMARK    7  A    between atoms: C_24  and  S_27
REMARK    8  A    between atoms: S_27  and  N_30
REMARK                            x       y       z     vdW  Elec       q    Type
REMARK                         _______ _______ _______ _____ _____    ______ ____
ROOT
ATOM      1  N   UNL     1      -0.143   0.190  -0.538  0.00  0.00    -0.248 N 
ATOM      2  C   UNL     1      -1.188  -0.656  -0.205  0.00  0.00    +0.168 A 
ATOM      3  N   UNL     1      -2.264  -0.397   0.502  0.00  0.00    -0.224 NA
ATOM      4  C   UNL     1      -3.211  -1.329   0.750  0.00  0.00    +0.084 A 
ATOM      5  C   UNL     1      -4.405  -1.180   1.492  0.00  0.00    +0.078 A 
ATOM      6  C   UNL     1      -5.274  -2.235   1.658  0.00  0.00    +0.164 A 
ATOM      7  C   UNL     1      -5.002  -3.482   1.093  0.00  0.00    +0.163 A 
ATOM      8  C   UNL     1      -3.839  -3.659   0.361  0.00  0.00    +0.066 A 
ATOM      9  C   UNL     1      -2.972  -2.607   0.198  0.00  0.00    +0.044 A 
ATOM     10  S   UNL     1      -1.419  -2.375  -0.635  0.00  0.00    -0.052 S 
ATOM     11  O   UNL     1      -5.860  -4.526   1.248  0.00  0.00    -0.485 OA
ATOM     12  C   UNL     1      -6.828  -4.413   2.298  0.00  0.00    +0.270 C 
ATOM     13  C   UNL     1      -7.452  -3.013   2.224  0.00  0.00    +0.270 C 
ATOM     14  O   UNL     1      -6.410  -2.046   2.389  0.00  0.00    -0.485 OA
ATOM     15  C   UNL     1      -0.153   1.471  -0.119  0.00  0.00    +0.252 C 
ATOM     16  O   UNL     1      -1.106   1.900   0.502  0.00  0.00    -0.270 OA
ENDROOT
BRANCH  15  17
ATOM     17  C   UNL     1       0.992   2.355  -0.419  0.00  0.00    +0.037 A 
ATOM     18  C   UNL     1       2.269   1.817  -0.584  0.00  0.00    +0.015 A 
ATOM     19  C   UNL     1       3.333   2.648  -0.869  0.00  0.00    +0.029 A 
ATOM     20  C   UNL     1       3.138   4.013  -0.982  0.00  0.00    +0.106 A 
ATOM     21  C   UNL     1       1.875   4.554  -0.814  0.00  0.00    +0.029 A 
ATOM     22  C   UNL     1       0.802   3.734  -0.534  0.00  0.00    +0.015 A 
BRANCH  20  23
ATOM     23  S   UNL     1       4.503   5.068  -1.340  0.00  0.00    +0.061 S 
ATOM     24  O   UNL     1       5.478   4.264  -1.990  0.00  0.00    -0.153 OA
ATOM     25  O   UNL     1       3.965   6.242  -1.933  0.00  0.00    -0.153 OA
BRANCH  23  26
ATOM     26  N   UNL     1       5.159   5.528   0.109  0.00  0.00    -0.177 NA
ATOM     27  C   UNL     1       4.778   6.718   0.884  0.00  0.00    +0.109 C 
ATOM     28  C   UNL     1       5.669   6.751   2.143  0.00  0.00    +0.018 C 
ATOM     29  C   UNL     1       6.894   5.896   1.722  0.00  0.00    +0.018 C 
ATOM     30  C   UNL     1       6.228   4.815   0.834  0.00  0.00    +0.109 C 
ENDBRANCH  23  26
ENDBRANCH  20  23
ENDBRANCH  15  17
BRANCH   1  31
ATOM     31  C   UNL     1       0.973  -0.308  -1.345  0.00  0.00    +0.097 C 
BRANCH  31  32
ATOM     32  C   UNL     1       1.848  -1.229  -0.493  0.00  0.00    -0.060 C 
BRANCH  32  35
ATOM     33  C   UNL     1       3.956  -2.421  -0.465  0.00  0.00    -0.097 C 
ATOM     34  C   UNL     1       2.488  -2.602  -2.382  0.00  0.00    -0.097 C 
ATOM     35  N   UNL     1       2.981  -1.706  -1.315  0.00  0.00    +0.377 N 
ATOM     36  H   UNL     1       3.444  -0.897  -1.746  0.00  0.00    -0.083 HD
ENDBRANCH  32  35
ENDBRANCH  31  32
ENDBRANCH   1  31
TORSDOF 6
