REMARK  Name = ZINC09377655
REMARK  9 active torsions:
REMARK  status: ('A' for Active; 'I' for Inactive)
REMARK    1  A    between atoms: C_1  and  C_2
REMARK    2  A    between atoms: C_2  and  C_4
REMARK    3  A    between atoms: C_2  and  N_51
REMARK    4  A    between atoms: C_7  and  S_16
REMARK    5  A    between atoms: N_8  and  C_9
REMARK    6  A    between atoms: S_16  and  C_17
REMARK    7  A    between atoms: C_17  and  C_18
REMARK    8  A    between atoms: C_29  and  N_51
REMARK    9  A    between atoms: C_30  and  N_51
REMARK                            x       y       z     vdW  Elec       q    Type
REMARK                         _______ _______ _______ _____ _____    ______ ____
ROOT
ATOM      1  C   UNL     1      -6.261   6.715  -1.586  0.00  0.00    +0.125 A 
ATOM      2  N   UNL     1      -6.001   6.552  -0.320  0.00  0.00    -0.135 NA
ATOM      3  N   UNL     1      -4.924   5.867  -0.173  0.00  0.00    -0.122 NA
ATOM      4  C   UNL     1      -4.431   5.551  -1.349  0.00  0.00    +0.196 A 
ATOM      5  N   UNL     1      -5.267   6.088  -2.289  0.00  0.00    -0.275 N 
ENDROOT
BRANCH   5   6
ATOM      6  C   UNL     1      -5.135   6.009  -3.684  0.00  0.00    +0.050 A 
ATOM      7  C   UNL     1      -4.915   7.160  -4.428  0.00  0.00    +0.029 A 
ATOM      8  C   UNL     1      -4.779   7.080  -5.800  0.00  0.00    +0.040 A 
ATOM      9  C   UNL     1      -4.874   5.853  -6.435  0.00  0.00    +0.124 A 
ATOM     10  C   UNL     1      -5.100   4.704  -5.696  0.00  0.00    +0.040 A 
ATOM     11  C   UNL     1      -5.230   4.780  -4.323  0.00  0.00    +0.029 A 
ATOM     12  F   UNL     1      -4.747   5.777  -7.778  0.00  0.00    -0.205 F 
ENDBRANCH   5   6
BRANCH   1  14
ATOM     13  C   UNL     1      -8.700   6.615  -2.021  0.00  0.00    -0.005 C 
ATOM     14  C   UNL     1      -7.433   7.460  -2.169  0.00  0.00    -0.003 C 
BRANCH  14  17
ATOM     15  C   UNL     1      -6.377   9.533  -1.498  0.00  0.00    -0.096 C 
ATOM     16  C   UNL     1      -8.745   9.489  -1.999  0.00  0.00    -0.096 C 
ATOM     17  N   UNL     1      -7.614   8.727  -1.429  0.00  0.00    +0.382 N 
ATOM     18  H   UNL     1      -7.818   8.513  -0.446  0.00  0.00    -0.082 HD
ENDBRANCH  14  17
ENDBRANCH   1  14
BRANCH   4  19
ATOM     19  S   UNL     1      -2.967   4.620  -1.656  0.00  0.00    -0.081 S 
BRANCH  19  20
ATOM     20  C   UNL     1      -2.443   4.289   0.045  0.00  0.00    +0.115 C 
BRANCH  20  21
ATOM     21  C   UNL     1      -1.171   3.481   0.030  0.00  0.00    +0.000 A 
ATOM     22  C   UNL     1      -1.229   2.116   0.019  0.00  0.00    +0.017 A 
ATOM     23  C   UNL     1      -0.017   1.400   0.010  0.00  0.00    +0.001 A 
ATOM     24  C   UNL     1       0.002  -0.004   0.002  0.00  0.00    +0.010 A 
ATOM     25  C   UNL     1       1.195  -0.661  -0.013  0.00  0.00    +0.001 A 
ATOM     26  C   UNL     1       2.398   0.042  -0.021  0.00  0.00    +0.002 A 
ATOM     27  C   UNL     1       2.416   1.403  -0.013  0.00  0.00    +0.028 A 
ATOM     28  C   UNL     1       1.205   2.117   0.002  0.00  0.00    +0.073 A 
ATOM     29  N   UNL     1       1.193   3.454   0.008  0.00  0.00    -0.235 NA
ATOM     30  C   UNL     1       0.066   4.125   0.021  0.00  0.00    +0.134 A 
ATOM     31 CL   UNL     1       0.115   5.860   0.028  0.00  0.00    -0.062 Cl
ENDBRANCH  20  21
ENDBRANCH  19  20
ENDBRANCH   4  19
TORSDOF 6
