REMARK  Name = ZINC35199434
REMARK  11 active torsions:
REMARK  status: ('A' for Active; 'I' for Inactive)
REMARK    1  A    between atoms: C_1  and  C_2
REMARK    2  A    between atoms: C_5  and  N_9
REMARK    3  A    between atoms: C_6  and  C_8
REMARK    4  A    between atoms: C_10  and  C_12
REMARK    5  A    between atoms: C_12  and  C_13
REMARK    6  A    between atoms: N_17  and  C_32
REMARK    7  A    between atoms: N_20  and  N_21
REMARK    8  A    between atoms: C_22  and  C_24
REMARK    9  A    between atoms: C_27  and  O_30
REMARK   10  A    between atoms: O_30  and  C_31
REMARK   11  A    between atoms: C_32  and  C_33
REMARK                            x       y       z     vdW  Elec       q    Type
REMARK                         _______ _______ _______ _____ _____    ______ ____
ROOT
ATOM      1  C   UNL     1      -0.236  -6.847  -2.628  0.00  0.00    +0.191 C 
ATOM      2  C   UNL     1      -0.368  -8.357  -2.656  0.00  0.00    +0.244 C 
ATOM      3  O   UNL     1      -1.259  -9.023  -2.175  0.00  0.00    -0.273 OA
ATOM      4  N   UNL     1       0.711  -8.804  -3.328  0.00  0.00    -0.246 N 
ATOM      5  C   UNL     1       1.498  -7.797  -3.724  0.00  0.00    +0.159 C 
ATOM      6  S   UNL     1       2.952  -8.014  -4.602  0.00  0.00    -0.017 S 
ATOM      7  N   UNL     1       1.018  -6.592  -3.357  0.00  0.00    -0.219 N 
ENDROOT
BRANCH   7   8
ATOM      8  N   UNL     1       1.597  -5.342  -3.615  0.00  0.00    -0.228 N 
ATOM      9  C   UNL     1       2.678  -4.943  -2.917  0.00  0.00    +0.260 C 
ATOM     10  O   UNL     1       3.152  -5.667  -2.063  0.00  0.00    -0.269 OA
ATOM     11  H   UNL     1       1.219  -4.765  -4.297  0.00  0.00    +0.173 HD
BRANCH   9  12
ATOM     12  C   UNL     1       3.288  -3.626  -3.190  0.00  0.00    +0.038 A 
ATOM     13  C   UNL     1       2.741  -2.791  -4.167  0.00  0.00    +0.016 A 
ATOM     14  C   UNL     1       3.313  -1.563  -4.419  0.00  0.00    +0.046 A 
ATOM     15  C   UNL     1       4.432  -1.155  -3.702  0.00  0.00    +0.120 A 
ATOM     16  C   UNL     1       4.978  -1.984  -2.729  0.00  0.00    +0.046 A 
ATOM     17  C   UNL     1       4.409  -3.210  -2.467  0.00  0.00    +0.016 A 
BRANCH  15  18
ATOM     18  O   UNL     1       4.992   0.055  -3.952  0.00  0.00    -0.495 OA
ATOM     19  C   UNL     1       6.140   0.411  -3.179  0.00  0.00    +0.277 C 
ENDBRANCH  15  18
ENDBRANCH   9  12
ENDBRANCH   7   8
BRANCH   1  20
ATOM     20  C   UNL     1      -0.134  -6.343  -1.187  0.00  0.00    +0.129 C 
BRANCH  20  22
ATOM     21  N   UNL     1       0.059  -4.170  -0.021  0.00  0.00    -0.285 N 
ATOM     22  C   UNL     1      -0.040  -4.839  -1.187  0.00  0.00    +0.220 C 
ATOM     23  O   UNL     1      -0.054  -4.230  -2.236  0.00  0.00    -0.275 OA
ATOM     24  H   UNL     1       0.150  -4.658   0.812  0.00  0.00    +0.155 HD
BRANCH  21  29
ATOM     25  C   UNL     1      -0.062   1.502   0.015  0.00  0.00    +0.044 C 
ATOM     26  C   UNL     1      -0.030  -0.005   0.006  0.00  0.00    -0.050 A 
ATOM     27  C   UNL     1      -0.622  -0.701  -1.033  0.00  0.00    +0.005 A 
ATOM     28  C   UNL     1      -0.594  -2.081  -1.044  0.00  0.00    +0.024 A 
ATOM     29  C   UNL     1       0.029  -2.771  -0.012  0.00  0.00    +0.036 A 
ATOM     30  C   UNL     1       0.622  -2.069   1.029  0.00  0.00    -0.029 A 
ATOM     31  C   UNL     1       0.595  -0.688   1.032  0.00  0.00    +0.008 A 
ATOM     32  C   UNL     1       1.299  -2.813   2.151  0.00  0.00    +0.045 C 
ENDBRANCH  21  29
ENDBRANCH  20  22
ENDBRANCH   1  20
BRANCH   4  33
ATOM     33  C   UNL     1       0.988 -10.218  -3.592  0.00  0.00    +0.150 C 
BRANCH  33  34
ATOM     34  C   UNL     1       0.359 -10.618  -4.902  0.00  0.00    -0.030 A 
ATOM     35  C   UNL     1      -0.936 -11.100  -4.928  0.00  0.00    +0.005 A 
ATOM     36  C   UNL     1      -1.513 -11.467  -6.130  0.00  0.00    +0.000 A 
ATOM     37  C   UNL     1      -0.795 -11.351  -7.305  0.00  0.00    +0.000 A 
ATOM     38  C   UNL     1       0.500 -10.867  -7.279  0.00  0.00    +0.000 A 
ATOM     39  C   UNL     1       1.076 -10.497  -6.078  0.00  0.00    +0.005 A 
ENDBRANCH  33  34
ENDBRANCH   4  33
TORSDOF 8
