REMARK  Name = ZINC65526897
REMARK  6 active torsions:
REMARK  status: ('A' for Active; 'I' for Inactive)
REMARK    1  A    between atoms: C_1  and  N_2
REMARK    2  A    between atoms: N_2  and  C_3
REMARK    3  A    between atoms: N_2  and  C_15
REMARK    4  A    between atoms: C_3  and  C_4
REMARK    5  A    between atoms: C_7  and  N_10
REMARK    6  A    between atoms: C_15  and  C_16
REMARK                            x       y       z     vdW  Elec       q    Type
REMARK                         _______ _______ _______ _____ _____    ______ ____
ROOT
ATOM      1  C   UNL     1      -0.073  -0.186   2.424  0.00  0.00    -0.033 A 
ATOM      2  C   UNL     1       0.171   1.003   3.087  0.00  0.00    +0.007 A 
ATOM      3  C   UNL     1      -0.541   1.319   4.227  0.00  0.00    +0.025 A 
ATOM      4  C   UNL     1      -1.505   0.440   4.708  0.00  0.00    +0.053 A 
ATOM      5  C   UNL     1      -1.747  -0.754   4.039  0.00  0.00    +0.025 A 
ATOM      6  C   UNL     1      -1.035  -1.061   2.897  0.00  0.00    +0.007 A 
ENDROOT
BRANCH   4   7
ATOM      7  N   UNL     1      -2.225   0.755   5.859  0.00  0.00    -0.206 N 
ATOM      8  C   UNL     1      -3.269  -0.062   6.503  0.00  0.00    +0.236 C 
ATOM      9  N   UNL     1      -3.680   0.745   7.664  0.00  0.00    -0.317 N 
ATOM     10  C   UNL     1      -2.912   1.897   7.635  0.00  0.00    +0.202 C 
ATOM     11  N   UNL     1      -2.099   1.909   6.642  0.00  0.00    -0.171 NA
ATOM     12  H   UNL     1      -4.356   0.515   8.321  0.00  0.00    +0.149 HD
ENDBRANCH   4   7
BRANCH   1  13
ATOM     13  C   UNL     1       0.706  -0.527   1.180  0.00  0.00    +0.119 C 
BRANCH  13  15
ATOM     14  C   UNL     1      -0.018   1.465   0.010  0.00  0.00    +0.105 C 
ATOM     15  N   UNL     1       0.002  -0.004   0.002  0.00  0.00    -0.294 NA
BRANCH  15  16
ATOM     16  C   UNL     1       0.600  -0.516  -1.239  0.00  0.00    +0.156 C 
BRANCH  16  17
ATOM     17  C   UNL     1      -0.286  -0.163  -2.406  0.00  0.00    +0.099 A 
ATOM     18  N   UNL     1      -1.567   0.164  -2.329  0.00  0.00    -0.349 N 
ATOM     19  C   UNL     1      -2.014   0.412  -3.578  0.00  0.00    +0.101 A 
ATOM     20  C   UNL     1      -0.978   0.229  -4.420  0.00  0.00    +0.101 A 
ATOM     21  N   UNL     1       0.090  -0.123  -3.674  0.00  0.00    -0.349 N 
ATOM     22  H   UNL     1       0.980  -0.316  -4.009  0.00  0.00    +0.166 HD
ATOM     23  H   UNL     1      -2.092   0.216  -1.516  0.00  0.00    +0.166 HD
ENDBRANCH  16  17
ENDBRANCH  15  16
ENDBRANCH  13  15
ENDBRANCH   1  13
TORSDOF 5
