REMARK  Name = ZINC39966490
REMARK  10 active torsions:
REMARK  status: ('A' for Active; 'I' for Inactive)
REMARK    1  A    between atoms: C_1  and  C_2
REMARK    2  A    between atoms: C_2  and  C_3
REMARK    3  A    between atoms: C_10  and  N_14
REMARK    4  A    between atoms: C_11  and  C_12
REMARK    5  A    between atoms: C_15  and  C_17
REMARK    6  A    between atoms: C_17  and  S_18
REMARK    7  A    between atoms: S_18  and  C_19
REMARK    8  A    between atoms: C_22  and  C_26
REMARK    9  A    between atoms: N_23  and  C_24
REMARK   10  A    between atoms: C_24  and  C_25
REMARK                            x       y       z     vdW  Elec       q    Type
REMARK                         _______ _______ _______ _____ _____    ______ ____
ROOT
ATOM      1  C   UNL     1       0.930  -1.634  -9.808  0.00  0.00    +0.173 C 
ENDROOT
BRANCH   1   3
ATOM      2  N   UNL     1       1.314  -2.073  -7.404  0.00  0.00    -0.278 N 
ATOM      3  C   UNL     1       0.696  -1.337  -8.350  0.00  0.00    +0.228 C 
ATOM      4  O   UNL     1      -0.050  -0.437  -8.026  0.00  0.00    -0.275 OA
ATOM      5  H   UNL     1       1.910  -2.793  -7.663  0.00  0.00    +0.155 HD
BRANCH   2  12
ATOM      6  C   UNL     1       0.628  -0.584  -1.251  0.00  0.00    -0.006 C 
ATOM      7  C   UNL     1       0.804  -2.105  -1.214  0.00  0.00    +0.008 C 
ATOM      8  C   UNL     1       1.749  -2.547  -2.334  0.00  0.00    +0.037 C 
ATOM      9  C   UNL     1       1.254  -1.963  -3.649  0.00  0.00    -0.018 A 
ATOM     10  C   UNL     1       0.391  -0.923  -3.675  0.00  0.00    -0.004 A 
ATOM     11  S   UNL     1       0.117  -0.611  -5.394  0.00  0.00    -0.077 S 
ATOM     12  C   UNL     1       1.098  -1.799  -6.061  0.00  0.00    +0.090 A 
ATOM     13  C   UNL     1       1.643  -2.444  -4.962  0.00  0.00    +0.084 A 
ATOM     14  C   UNL     1      -0.190  -0.205  -2.495  0.00  0.00    +0.046 C 
BRANCH   6  16
ATOM     15  C   UNL     1      -0.181   1.405   0.026  0.00  0.00    +0.004 C 
ATOM     16  C   UNL     1      -0.111  -0.123   0.007  0.00  0.00    +0.000 C 
ENDBRANCH   6  16
BRANCH  13  17
ATOM     17  C   UNL     1       2.552  -3.539  -5.116  0.00  0.00    +0.102 C 
ATOM     18  N   UNL     1       3.273  -4.409  -5.238  0.00  0.00    -0.191 NA
ENDBRANCH  13  17
ENDBRANCH   2  12
ENDBRANCH   1   3
BRANCH   1  19
ATOM     19  S   UNL     1      -0.036  -0.482 -10.823  0.00  0.00    -0.077 S 
BRANCH  19  20
ATOM     20  C   UNL     1       0.341  -0.952 -12.478  0.00  0.00    +0.192 A 
ATOM     21  N   UNL     1       1.139  -1.926 -12.849  0.00  0.00    -0.122 NA
ATOM     22  N   UNL     1       1.188  -1.995 -14.131  0.00  0.00    -0.128 NA
ATOM     23  C   UNL     1       0.423  -1.068 -14.659  0.00  0.00    +0.166 A 
ATOM     24  N   UNL     1      -0.148  -0.374 -13.617  0.00  0.00    -0.302 N 
BRANCH  23  25
ATOM     25  C   UNL     1       0.210  -0.820 -16.101  0.00  0.00    +0.030 A 
ATOM     26  C   UNL     1      -1.053  -0.663 -16.591  0.00  0.00    +0.057 A 
ATOM     27  S   UNL     1      -0.742  -0.397 -18.329  0.00  0.00    -0.101 S 
ATOM     28  C   UNL     1       1.029  -0.505 -18.280  0.00  0.00    -0.006 A 
ATOM     29  C   UNL     1       1.313  -0.739 -16.976  0.00  0.00    -0.026 A 
ATOM     30  C   UNL     1       2.744  -0.924 -16.479  0.00  0.00    +0.036 C 
ATOM     31  C   UNL     1       3.713  -0.191 -17.399  0.00  0.00    +0.005 C 
ATOM     32  C   UNL     1       4.175  -1.103 -18.534  0.00  0.00    +0.001 C 
ATOM     33  C   UNL     1       2.985  -1.508 -19.399  0.00  0.00    +0.005 C 
ATOM     34  C   UNL     1       1.983  -0.355 -19.421  0.00  0.00    +0.043 C 
ENDBRANCH  23  25
BRANCH  24  35
ATOM     35  C   UNL     1      -1.083   0.750 -13.709  0.00  0.00    +0.122 C 
ATOM     36  C   UNL     1      -0.298   2.053 -13.878  0.00  0.00    +0.027 C 
ENDBRANCH  24  35
ENDBRANCH  19  20
ENDBRANCH   1  19
TORSDOF 8
