REMARK  Name = ZINC34921489
REMARK  17 active torsions:
REMARK  status: ('A' for Active; 'I' for Inactive)
REMARK    1  A    between atoms: C_1  and  C_2
REMARK    2  A    between atoms: C_2  and  C_3
REMARK    3  A    between atoms: C_3  and  C_4
REMARK    4  A    between atoms: C_4  and  C_5
REMARK    5  A    between atoms: C_5  and  C_7
REMARK    6  A    between atoms: C_5  and  C_9
REMARK    7  A    between atoms: C_7  and  C_8
REMARK    8  A    between atoms: N_11  and  C_12
REMARK    9  A    between atoms: N_11  and  C_17
REMARK   10  A    between atoms: C_12  and  C_13
REMARK   11  A    between atoms: C_13  and  N_14
REMARK   12  A    between atoms: N_14  and  C_15
REMARK   13  A    between atoms: N_14  and  C_16
REMARK   14  A    between atoms: C_17  and  C_18
REMARK   15  A    between atoms: C_21  and  O_24
REMARK   16  A    between atoms: O_24  and  S_25
REMARK   17  A    between atoms: S_25  and  C_28
REMARK                            x       y       z     vdW  Elec       q    Type
REMARK                         _______ _______ _______ _____ _____    ______ ____
ROOT
ATOM      1  C   UNL     1      -3.918  -6.181   0.655  0.00  0.00    +0.142 C 
ENDROOT
BRANCH   1   2
ATOM      2  C   UNL     1      -3.534  -6.356   2.102  0.00  0.00    -0.030 A 
ATOM      3  C   UNL     1      -2.201  -6.456   2.455  0.00  0.00    +0.009 A 
ATOM      4  C   UNL     1      -1.847  -6.617   3.781  0.00  0.00    +0.049 A 
ATOM      5  C   UNL     1      -2.830  -6.678   4.758  0.00  0.00    +0.157 A 
ATOM      6  C   UNL     1      -4.167  -6.577   4.400  0.00  0.00    +0.049 A 
ATOM      7  C   UNL     1      -4.516  -6.411   3.074  0.00  0.00    +0.009 A 
BRANCH   5   8
ATOM      8  O   UNL     1      -2.485  -6.837   6.062  0.00  0.00    -0.342 OA
BRANCH   8   9
ATOM      9  S   UNL     1      -2.263  -5.529   6.808  0.00  0.00    +0.151 S 
ATOM     10  O   UNL     1      -1.714  -5.870   8.073  0.00  0.00    -0.131 OA
ATOM     11  O   UNL     1      -1.605  -4.652   5.903  0.00  0.00    -0.131 OA
BRANCH   9  12
ATOM     12  C   UNL     1      -3.851  -4.831   7.119  0.00  0.00    +0.128 A 
ATOM     13  C   UNL     1      -4.423  -3.977   6.196  0.00  0.00    +0.033 A 
ATOM     14  C   UNL     1      -5.669  -3.430   6.439  0.00  0.00    +0.040 A 
ATOM     15  C   UNL     1      -6.343  -3.737   7.609  0.00  0.00    +0.124 A 
ATOM     16  C   UNL     1      -5.768  -4.593   8.533  0.00  0.00    +0.040 A 
ATOM     17  C   UNL     1      -4.525  -5.143   8.285  0.00  0.00    +0.033 A 
ATOM     18  F   UNL     1      -7.560  -3.203   7.848  0.00  0.00    -0.205 F 
ENDBRANCH   9  12
ENDBRANCH   8   9
ENDBRANCH   5   8
ENDBRANCH   1   2
BRANCH   1  21
ATOM     19  C   UNL     1      -2.871  -4.120  -0.116  0.00  0.00    +0.219 C 
ATOM     20  O   UNL     1      -1.852  -4.747  -0.317  0.00  0.00    -0.275 OA
ATOM     21  N   UNL     1      -3.973  -4.753   0.334  0.00  0.00    -0.299 N 
BRANCH  19  22
ATOM     22  C   UNL     1      -2.905  -2.635  -0.369  0.00  0.00    +0.075 C 
BRANCH  22  23
ATOM     23  C   UNL     1      -3.014  -1.893   0.964  0.00  0.00    +0.009 C 
ATOM     24  C   UNL     1      -1.743  -2.125   1.783  0.00  0.00    +0.004 C 
ENDBRANCH  22  23
BRANCH  22  25
ATOM     25  C   UNL     1      -1.622  -2.211  -1.086  0.00  0.00    +0.013 C 
BRANCH  25  26
ATOM     26  C   UNL     1      -1.683  -0.714  -1.398  0.00  0.00    +0.000 C 
BRANCH  26  28
ATOM     27  C   UNL     1      -0.435   1.221  -2.368  0.00  0.00    +0.004 C 
ATOM     28  C   UNL     1      -0.373  -0.276  -2.056  0.00  0.00    -0.003 C 
ENDBRANCH  26  28
ENDBRANCH  25  26
ENDBRANCH  22  25
ENDBRANCH  19  22
BRANCH  21  29
ATOM     29  C   UNL     1      -5.226  -4.012   0.501  0.00  0.00    +0.089 C 
BRANCH  29  30
ATOM     30  C   UNL     1      -5.967  -3.955  -0.836  0.00  0.00    -0.060 C 
BRANCH  30  31
ATOM     31  N   UNL     1      -7.223  -3.212  -0.668  0.00  0.00    +0.377 N 
ATOM     32  C   UNL     1      -7.876  -3.053  -1.974  0.00  0.00    -0.097 C 
ATOM     33  C   UNL     1      -8.112  -3.951   0.237  0.00  0.00    -0.097 C 
ATOM     34  H   UNL     1      -7.026  -2.302  -0.278  0.00  0.00    -0.083 HD
ENDBRANCH  30  31
ENDBRANCH  29  30
ENDBRANCH  21  29
ENDBRANCH   1  21
TORSDOF 13
