REMARK  Name = ZINC06321806
REMARK  15 active torsions:
REMARK  status: ('A' for Active; 'I' for Inactive)
REMARK    1  A    between atoms: C_1  and  C_2
REMARK    2  A    between atoms: C_5  and  C_40
REMARK    3  A    between atoms: C_9  and  C_14
REMARK    4  A    between atoms: C_14  and  N_75
REMARK    5  A    between atoms: C_15  and  C_16
REMARK    6  A    between atoms: C_15  and  N_75
REMARK    7  A    between atoms: C_16  and  C_17
REMARK    8  A    between atoms: C_20  and  O_25
REMARK    9  A    between atoms: C_21  and  O_23
REMARK   10  A    between atoms: O_23  and  C_24
REMARK   11  A    between atoms: O_25  and  C_26
REMARK   12  A    between atoms: C_27  and  C_28
REMARK   13  A    between atoms: C_27  and  N_75
REMARK   14  A    between atoms: N_32  and  C_33
REMARK   15  A    between atoms: C_33  and  C_34
REMARK                            x       y       z     vdW  Elec       q    Type
REMARK                         _______ _______ _______ _____ _____    ______ ____
ROOT
ATOM      1  N   UNL     1      -0.052   0.024  -0.860  0.00  0.00    +0.387 N 
ATOM      2  H   UNL     1      -0.405   0.780  -0.262  0.00  0.00    -0.081 HD
ENDROOT
BRANCH   1   3
ATOM      3  C   UNL     1      -1.200  -0.738  -1.397  0.00  0.00    -0.037 C 
BRANCH   3  12
ATOM      4  C   UNL     1      -3.085   0.826  -5.992  0.00  0.00    +0.044 C 
ATOM      5  C   UNL     1      -3.834   1.578  -4.922  0.00  0.00    -0.041 A 
ATOM      6  C   UNL     1      -4.806   2.474  -5.265  0.00  0.00    +0.004 A 
ATOM      7  C   UNL     1      -5.502   3.171  -4.287  0.00  0.00    +0.005 A 
ATOM      8  C   UNL     1      -5.227   2.972  -2.951  0.00  0.00    -0.026 A 
ATOM      9  C   UNL     1      -4.241   2.065  -2.577  0.00  0.00    +0.052 A 
ATOM     10  C   UNL     1      -3.538   1.360  -3.572  0.00  0.00    +0.002 A 
ATOM     11  C   UNL     1      -2.503   0.406  -3.169  0.00  0.00    +0.017 A 
ATOM     12  C   UNL     1      -2.259   0.236  -1.846  0.00  0.00    +0.001 A 
ATOM     13  C   UNL     1      -2.997   0.964  -0.888  0.00  0.00    +0.251 A 
ATOM     14  O   UNL     1      -2.765   0.792   0.296  0.00  0.00    -0.268 OA
ATOM     15  N   UNL     1      -3.945   1.846  -1.249  0.00  0.00    -0.322 N 
ATOM     16  H   UNL     1      -4.431   2.333  -0.564  0.00  0.00    +0.169 HD
ATOM     17  C   UNL     1      -5.991   3.735  -1.900  0.00  0.00    +0.046 C 
ENDBRANCH   3  12
ENDBRANCH   1   3
BRANCH   1  18
ATOM     18  C   UNL     1       0.810  -0.864  -0.053  0.00  0.00    -0.073 C 
BRANCH  18  19
ATOM     19  C   UNL     1       0.048  -1.280   1.207  0.00  0.00    +0.017 C 
BRANCH  19  20
ATOM     20  C   UNL     1       0.923  -2.170   2.053  0.00  0.00    -0.045 A 
ATOM     21  C   UNL     1       0.895  -3.540   1.869  0.00  0.00    +0.007 A 
ATOM     22  C   UNL     1       1.700  -4.359   2.639  0.00  0.00    +0.049 A 
ATOM     23  C   UNL     1       2.528  -3.809   3.603  0.00  0.00    +0.161 A 
ATOM     24  C   UNL     1       2.552  -2.431   3.791  0.00  0.00    +0.162 A 
ATOM     25  C   UNL     1       1.747  -1.614   3.013  0.00  0.00    +0.053 A 
BRANCH  24  26
ATOM     26  O   UNL     1       3.364  -1.886   4.737  0.00  0.00    -0.491 OA
ATOM     27  C   UNL     1       3.337  -0.464   4.874  0.00  0.00    +0.277 C 
ENDBRANCH  24  26
BRANCH  23  28
ATOM     28  O   UNL     1       3.316  -4.615   4.365  0.00  0.00    -0.491 OA
ATOM     29  C   UNL     1       3.240  -6.020   4.116  0.00  0.00    +0.277 C 
ENDBRANCH  23  28
ENDBRANCH  19  20
ENDBRANCH  18  19
ENDBRANCH   1  18
BRANCH   1  30
ATOM     30  C   UNL     1       0.726   0.612  -1.970  0.00  0.00    +0.001 C 
BRANCH  30  31
ATOM     31  C   UNL     1       1.805   1.494  -1.395  0.00  0.00    +0.135 A 
ATOM     32  N   UNL     1       2.699   1.154  -0.499  0.00  0.00    -0.115 NA
ATOM     33  N   UNL     1       3.441   2.181  -0.268  0.00  0.00    -0.023 NA
ATOM     34  N   UNL     1       3.044   3.168  -0.993  0.00  0.00    -0.044 NA
ATOM     35  N   UNL     1       2.040   2.782  -1.706  0.00  0.00    -0.229 N 
BRANCH  35  36
ATOM     36  C   UNL     1       1.294   3.595  -2.670  0.00  0.00    +0.178 C 
BRANCH  36  37
ATOM     37  C   UNL     1       0.230   4.411  -1.933  0.00  0.00    +0.140 C 
ATOM     38  C   UNL     1      -0.554   5.299  -2.932  0.00  0.00    +0.035 C 
ATOM     39  C   UNL     1      -1.893   5.491  -2.166  0.00  0.00    +0.031 C 
ATOM     40  C   UNL     1      -2.051   4.140  -1.435  0.00  0.00    +0.160 C 
ATOM     41  O   UNL     1      -0.753   3.539  -1.351  0.00  0.00    -0.375 OA
ENDBRANCH  36  37
ENDBRANCH  35  36
ENDBRANCH  30  31
ENDBRANCH   1  30
TORSDOF 11
