REMARK  Name = ZINC36348092
REMARK  7 active torsions:
REMARK  status: ('A' for Active; 'I' for Inactive)
REMARK    1  A    between atoms: C_1  and  C_2
REMARK    2  A    between atoms: C_2  and  C_3
REMARK    3  A    between atoms: C_6  and  C_9
REMARK    4  A    between atoms: N_19  and  C_20
REMARK    5  A    between atoms: C_20  and  C_21
REMARK    6  A    between atoms: C_26  and  C_27
REMARK    7  A    between atoms: C_27  and  C_28
REMARK                            x       y       z     vdW  Elec       q    Type
REMARK                         _______ _______ _______ _____ _____    ______ ____
ROOT
ATOM      1  C   UNL     1       2.872  -1.968   4.746  0.00  0.00    +0.011 C 
ATOM      2  C   UNL     1       3.141  -0.652   5.434  0.00  0.00    +0.009 A 
ATOM      3  C   UNL     1       3.609   0.469   4.852  0.00  0.00    +0.021 A 
ATOM      4  C   UNL     1       3.725   1.450   5.858  0.00  0.00    +0.019 A 
ATOM      5  C   UNL     1       3.319   0.891   7.016  0.00  0.00    +0.086 A 
ATOM      6  N   UNL     1       2.950  -0.395   6.762  0.00  0.00    -0.352 N 
ATOM      7  C   UNL     1       2.422  -1.359   7.734  0.00  0.00    +0.119 C 
ATOM      8  C   UNL     1       3.138  -2.699   7.547  0.00  0.00    +0.003 C 
ATOM      9  C   UNL     1       2.402  -3.535   6.508  0.00  0.00    -0.075 C 
ATOM     10  N   UNL     1       1.813  -2.687   5.469  0.00  0.00    +0.391 N 
ATOM     11  H   UNL     1       1.188  -2.020   5.897  0.00  0.00    -0.080 HD
ENDROOT
BRANCH   1  15
ATOM     12  C   UNL     1       1.614  -1.248   0.728  0.00  0.00    -0.048 A 
ATOM     13  C   UNL     1       2.701  -2.065   0.976  0.00  0.00    +0.004 A 
ATOM     14  C   UNL     1       3.108  -2.297   2.276  0.00  0.00    +0.002 A 
ATOM     15  C   UNL     1       2.428  -1.713   3.328  0.00  0.00    -0.055 A 
ATOM     16  C   UNL     1       1.341  -0.896   3.080  0.00  0.00    +0.002 A 
ATOM     17  C   UNL     1       0.937  -0.660   1.780  0.00  0.00    +0.004 A 
BRANCH  12  19
ATOM     18  C   UNL     1       1.900   0.232  -1.241  0.00  0.00    +0.009 C 
ATOM     19  C   UNL     1       1.170  -0.994  -0.690  0.00  0.00    +0.032 C 
ENDBRANCH  12  19
ENDBRANCH   1  15
BRANCH  10  20
ATOM     20  C   UNL     1       1.060  -3.523   4.525  0.00  0.00    -0.041 C 
BRANCH  20  21
ATOM     21  C   UNL     1       0.003  -4.295   5.272  0.00  0.00    -0.061 A 
ATOM     22  C   UNL     1       0.197  -5.634   5.557  0.00  0.00    +0.002 A 
ATOM     23  C   UNL     1      -0.772  -6.343   6.242  0.00  0.00    +0.000 A 
ATOM     24  C   UNL     1      -1.935  -5.713   6.642  0.00  0.00    +0.000 A 
ATOM     25  C   UNL     1      -2.129  -4.374   6.359  0.00  0.00    +0.004 A 
ATOM     26  C   UNL     1      -1.158  -3.664   5.677  0.00  0.00    -0.046 A 
BRANCH  26  27
ATOM     27  C   UNL     1      -1.367  -2.203   5.372  0.00  0.00    +0.032 C 
ATOM     28  C   UNL     1      -1.860  -2.048   3.932  0.00  0.00    +0.009 C 
ENDBRANCH  26  27
ENDBRANCH  20  21
ENDBRANCH  10  20
TORSDOF 5
