REMARK  Name = ZINC05490480
REMARK  6 active torsions:
REMARK  status: ('A' for Active; 'I' for Inactive)
REMARK    1  A    between atoms: C_1  and  C_2
REMARK    2  A    between atoms: C_5  and  C_9
REMARK    3  A    between atoms: C_6  and  C_8
REMARK    4  A    between atoms: C_16  and  N_29
REMARK    5  A    between atoms: C_17  and  C_27
REMARK    6  A    between atoms: C_18  and  C_20
REMARK                            x       y       z     vdW  Elec       q    Type
REMARK                         _______ _______ _______ _____ _____    ______ ____
ROOT
ATOM      1  C   UNL     1       0.096  -4.173  -0.040  0.00  0.00    +0.101 A 
ATOM      2  C   UNL     1      -0.011  -5.027  -1.142  0.00  0.00    +0.054 A 
ATOM      3  C   UNL     1       0.043  -6.312  -0.687  0.00  0.00    +0.223 A 
ATOM      4  N   UNL     1       0.177  -6.267   0.655  0.00  0.00    -0.246 N 
ATOM      5  H   UNL     1       0.241  -7.033   1.248  0.00  0.00    +0.192 HD
ATOM      6  N   UNL     1       0.214  -4.919   1.042  0.00  0.00    -0.171 NA
ATOM      7  O   UNL     1      -0.032  -7.385  -1.513  0.00  0.00    -0.423 OA
ATOM      8  C   UNL     1       0.114  -7.166  -2.836  0.00  0.00    +0.200 C 
ATOM      9  C   UNL     1       0.067  -5.941  -3.405  0.00  0.00    +0.098 C 
ATOM     10  C   UNL     1      -0.162  -4.685  -2.602  0.00  0.00    +0.102 C 
ENDROOT
BRANCH   1  15
ATOM     11  C   UNL     1       0.051   1.585  -0.199  0.00  0.00    +0.044 C 
ATOM     12  C   UNL     1       0.063   0.078  -0.157  0.00  0.00    -0.050 A 
ATOM     13  C   UNL     1       0.872  -0.629  -1.029  0.00  0.00    +0.004 A 
ATOM     14  C   UNL     1       0.886  -2.009  -0.995  0.00  0.00    +0.010 A 
ATOM     15  C   UNL     1       0.084  -2.689  -0.081  0.00  0.00    +0.005 A 
ATOM     16  C   UNL     1      -0.728  -1.972   0.795  0.00  0.00    -0.041 A 
ATOM     17  C   UNL     1      -0.731  -0.592   0.756  0.00  0.00    +0.007 A 
ATOM     18  C   UNL     1      -1.598  -2.701   1.786  0.00  0.00    +0.044 C 
ENDBRANCH   1  15
BRANCH  10  19
ATOM     19  C   UNL     1      -1.551  -4.162  -2.861  0.00  0.00    -0.034 A 
ATOM     20  C   UNL     1      -2.651  -4.930  -2.530  0.00  0.00    +0.007 A 
ATOM     21  C   UNL     1      -3.926  -4.451  -2.767  0.00  0.00    +0.038 A 
ATOM     22  C   UNL     1      -4.100  -3.200  -3.335  0.00  0.00    +0.123 A 
ATOM     23  C   UNL     1      -2.997  -2.432  -3.666  0.00  0.00    +0.038 A 
ATOM     24  C   UNL     1      -1.724  -2.911  -3.424  0.00  0.00    +0.007 A 
ATOM     25  F   UNL     1      -5.346  -2.731  -3.567  0.00  0.00    -0.205 F 
ENDBRANCH  10  19
BRANCH   8  26
ATOM     26  N   UNL     1       0.323  -8.250  -3.652  0.00  0.00    -0.328 N 
ATOM     27  H   UNL     1       0.362  -9.142  -3.272  0.00  0.00    +0.145 HD
ATOM     28  H   UNL     1       0.432  -8.125  -4.607  0.00  0.00    +0.145 HD
ENDBRANCH   8  26
BRANCH   9  29
ATOM     29  C   UNL     1       0.241  -5.832  -4.822  0.00  0.00    +0.101 C 
ATOM     30  N   UNL     1       0.379  -5.745  -5.946  0.00  0.00    -0.191 NA
ENDBRANCH   9  29
TORSDOF 4
