REMARK  Name = ZINC43227046
REMARK  14 active torsions:
REMARK  status: ('A' for Active; 'I' for Inactive)
REMARK    1  A    between atoms: C_1  and  C_2
REMARK    2  A    between atoms: C_2  and  C_3
REMARK    3  A    between atoms: C_2  and  C_4
REMARK    4  A    between atoms: C_4  and  C_5
REMARK    5  A    between atoms: C_5  and  C_7
REMARK    6  A    between atoms: C_5  and  N_36
REMARK    7  A    between atoms: C_9  and  C_12
REMARK    8  A    between atoms: N_14  and  C_15
REMARK    9  A    between atoms: C_15  and  C_16
REMARK   10  A    between atoms: C_16  and  C_35
REMARK   11  A    between atoms: C_20  and  C_34
REMARK   12  A    between atoms: C_29  and  C_31
REMARK   13  A    between atoms: C_31  and  C_32
REMARK   14  A    between atoms: C_31  and  C_33
REMARK                            x       y       z     vdW  Elec       q    Type
REMARK                         _______ _______ _______ _____ _____    ______ ____
ROOT
ATOM      1  C   UNL     1      -5.374  -5.210   4.325  0.00  0.00    +0.111 C 
ENDROOT
BRANCH   1   2
ATOM      2  C   UNL     1      -4.398  -5.382   5.488  0.00  0.00    -0.013 C 
ATOM      3  C   UNL     1      -3.168  -6.171   5.032  0.00  0.00    +0.008 C 
ATOM      4  C   UNL     1      -3.459  -7.660   4.904  0.00  0.00    +0.001 C 
ATOM      5  C   UNL     1      -3.953  -8.216   6.241  0.00  0.00    +0.011 C 
ATOM      6  C   UNL     1      -5.249  -7.513   6.635  0.00  0.00    -0.003 C 
ATOM      7  C   UNL     1      -5.041  -6.012   6.703  0.00  0.00    +0.007 C 
ATOM      8  C   UNL     1      -6.343  -5.337   7.126  0.00  0.00    +0.009 C 
ATOM      9  C   UNL     1      -6.595  -5.686   8.595  0.00  0.00    +0.036 C 
ATOM     10  C   UNL     1      -6.332  -7.139   8.881  0.00  0.00    -0.043 A 
ATOM     11  C   UNL     1      -5.711  -7.992   7.995  0.00  0.00    -0.038 A 
ATOM     12  C   UNL     1      -5.503  -9.319   8.334  0.00  0.00    +0.005 A 
ATOM     13  C   UNL     1      -5.914  -9.800   9.562  0.00  0.00    +0.004 A 
ATOM     14  C   UNL     1      -6.538  -8.950  10.455  0.00  0.00    -0.045 A 
ATOM     15  C   UNL     1      -6.746  -7.629  10.116  0.00  0.00    +0.007 A 
ATOM     16  C   UNL     1      -6.343  -7.905   5.642  0.00  0.00    +0.016 C 
ATOM     17  C   UNL     1      -3.898  -3.971   5.881  0.00  0.00    +0.013 C 
BRANCH  14  18
ATOM     18  C   UNL     1      -6.993  -9.465  11.797  0.00  0.00    +0.013 C 
ATOM     19  C   UNL     1      -8.005 -10.594  11.593  0.00  0.00    +0.012 C 
ATOM     20  C   UNL     1      -5.787  -9.996  12.574  0.00  0.00    +0.012 C 
ENDBRANCH  14  18
ENDBRANCH   1   2
BRANCH   1  23
ATOM     21  C   UNL     1      -5.389  -4.207   2.104  0.00  0.00    +0.263 C 
ATOM     22  O   UNL     1      -6.543  -4.571   1.980  0.00  0.00    -0.269 OA
ATOM     23  N   UNL     1      -4.716  -4.477   3.240  0.00  0.00    -0.310 N 
ATOM     24  H   UNL     1      -3.796  -4.187   3.339  0.00  0.00    +0.149 HD
BRANCH  21  27
ATOM     25  C   UNL     1      -2.945  -2.406   0.099  0.00  0.00    +0.065 A 
ATOM     26  N   UNL     1      -3.462  -3.053   1.108  0.00  0.00    -0.241 NA
ATOM     27  C   UNL     1      -4.728  -3.471   1.013  0.00  0.00    +0.133 A 
ATOM     28  C   UNL     1      -5.373  -3.175  -0.157  0.00  0.00    +0.079 A 
ATOM     29  S   UNL     1      -4.195  -2.346  -1.021  0.00  0.00    -0.081 S 
BRANCH  25  30
ATOM     30  C   UNL     1      -1.554  -1.841  -0.030  0.00  0.00    -0.018 C 
BRANCH  30  31
ATOM     31  N   UNL     1      -1.012  -2.170  -1.355  0.00  0.00    +0.384 N 
ATOM     32  H   UNL     1      -1.604  -1.772  -2.069  0.00  0.00    -0.089 HD
ATOM     33  H   UNL     1      -0.081  -1.791  -1.441  0.00  0.00    -0.089 HD
ATOM     34  H   UNL     1      -0.979  -3.172  -1.466  0.00  0.00    -0.089 HD
ENDBRANCH  30  31
BRANCH  30  35
ATOM     35  C   UNL     1      -1.605  -0.321   0.138  0.00  0.00    -0.007 C 
BRANCH  35  37
ATOM     36  C   UNL     1      -0.235   1.769   0.175  0.00  0.00    +0.007 C 
ATOM     37  C   UNL     1      -0.181   0.240   0.133  0.00  0.00    -0.018 C 
ATOM     38  C   UNL     1       0.576  -0.278   1.357  0.00  0.00    +0.007 C 
ENDBRANCH  35  37
ENDBRANCH  30  35
ENDBRANCH  25  30
ENDBRANCH  21  27
ENDBRANCH   1  23
TORSDOF 8
