REMARK  Name = ZINC20834930
REMARK  7 active torsions:
REMARK  status: ('A' for Active; 'I' for Inactive)
REMARK    1  A    between atoms: C_1  and  C_2
REMARK    2  A    between atoms: C_5  and  C_7
REMARK    3  A    between atoms: N_8  and  N_9
REMARK    4  A    between atoms: C_12  and  S_15
REMARK    5  A    between atoms: S_15  and  C_16
REMARK    6  A    between atoms: C_16  and  C_17
REMARK    7  A    between atoms: N_19  and  C_20
REMARK                            x       y       z     vdW  Elec       q    Type
REMARK                         _______ _______ _______ _____ _____    ______ ____
ROOT
ATOM      1  N   UNL     1      -0.058  13.272  -2.955  0.00  0.00    -0.205 N 
ATOM      2  C   UNL     1      -0.466  11.968  -2.718  0.00  0.00    +0.232 A 
ATOM      3  N   UNL     1      -0.326  11.283  -1.543  0.00  0.00    -0.186 NA
ATOM      4  C   UNL     1      -0.848  10.033  -1.718  0.00  0.00    +0.211 A 
ATOM      5  N   UNL     1      -1.301   9.951  -2.946  0.00  0.00    -0.144 NA
ATOM      6  N   UNL     1      -1.059  11.177  -3.580  0.00  0.00    -0.245 N 
ATOM      7  H   UNL     1       0.432  13.848  -2.157  0.00  0.00    +0.177 HD
ATOM      8  H   UNL     1      -1.274  11.535  -4.597  0.00  0.00    +0.192 HD
ENDROOT
BRANCH   1  10
ATOM      9  C   UNL     1       0.112  15.079  -4.433  0.00  0.00    +0.176 C 
ATOM     10  N   UNL     1      -0.271  13.855  -4.211  0.00  0.00    -0.184 NA
BRANCH   9  15
ATOM     11  C   UNL     1      -1.306  15.673  -9.201  0.00  0.00    +0.086 C 
ATOM     12  C   UNL     1      -0.730  15.957  -7.838  0.00  0.00    +0.103 A 
ATOM     13  C   UNL     1      -0.161  17.117  -7.453  0.00  0.00    +0.045 A 
ATOM     14  C   UNL     1       0.234  16.959  -6.111  0.00  0.00    +0.051 A 
ATOM     15  C   UNL     1      -0.111  15.690  -5.748  0.00  0.00    +0.148 A 
ATOM     16  O   UNL     1      -0.698  15.097  -6.807  0.00  0.00    -0.459 OA
ENDBRANCH   9  15
ENDBRANCH   1  10
BRANCH   4  17
ATOM     17  S   UNL     1      -0.910   8.757  -0.504  0.00  0.00    -0.075 S 
BRANCH  17  18
ATOM     18  C   UNL     1      -1.720   7.377  -1.359  0.00  0.00    +0.173 C 
BRANCH  18  19
ATOM     19  C   UNL     1      -1.837   6.204  -0.420  0.00  0.00    +0.224 C 
ATOM     20  O   UNL     1      -1.416   6.290   0.714  0.00  0.00    -0.275 OA
ATOM     21  N   UNL     1      -2.411   5.059  -0.841  0.00  0.00    -0.308 N 
ATOM     22  H   UNL     1      -2.793   4.981  -1.869  0.00  0.00    +0.149 HD
BRANCH  21  23
ATOM     23  C   UNL     1      -2.525   3.919   0.072  0.00  0.00    +0.103 C 
ATOM     24  C   UNL     1      -3.706   3.051  -0.372  0.00  0.00    +0.027 C 
ATOM     25  C   UNL     1      -3.683   1.759   0.454  0.00  0.00    +0.007 C 
ATOM     26  C   UNL     1      -2.487   0.921   0.005  0.00  0.00    +0.035 C 
ATOM     27  C   UNL     1      -1.228   1.748   0.017  0.00  0.00    -0.042 A 
ATOM     28  C   UNL     1      -1.245   3.125   0.037  0.00  0.00    -0.024 A 
ATOM     29  C   UNL     1      -0.048   3.828   0.025  0.00  0.00    +0.006 A 
ATOM     30  C   UNL     1       1.158   3.158   0.008  0.00  0.00    +0.000 A 
ATOM     31  C   UNL     1       1.176   1.776   0.000  0.00  0.00    +0.000 A 
ATOM     32  C   UNL     1      -0.013   1.076   0.008  0.00  0.00    +0.004 A 
ENDBRANCH  21  23
ENDBRANCH  18  19
ENDBRANCH  17  18
ENDBRANCH   4  17
TORSDOF 6
