REMARK  Name = ZINC39684671
REMARK  9 active torsions:
REMARK  status: ('A' for Active; 'I' for Inactive)
REMARK    1  A    between atoms: C_1  and  C_2
REMARK    2  A    between atoms: C_2  and  C_4
REMARK    3  A    between atoms: C_2  and  N_8
REMARK    4  A    between atoms: C_4  and  C_5
REMARK    5  A    between atoms: C_4  and  C_6
REMARK    6  A    between atoms: C_4  and  C_7
REMARK    7  A    between atoms: C_9  and  C_11
REMARK    8  A    between atoms: C_22  and  C_24
REMARK    9  A    between atoms: C_27  and  C_29
REMARK                            x       y       z     vdW  Elec       q    Type
REMARK                         _______ _______ _______ _____ _____    ______ ____
ROOT
ATOM      1  C   UNL     1      -3.465  -1.164  -1.134  0.00  0.00    +0.100 C 
ATOM      2  C   UNL     1      -3.486  -2.652  -0.717  0.00  0.00    +0.121 C 
ATOM      3  N   UNL     1      -4.545  -3.261  -1.556  0.00  0.00    -0.294 N 
ATOM      4  C   UNL     1      -4.383  -2.614  -2.881  0.00  0.00    +0.115 C 
ATOM      5  C   UNL     1      -4.054  -1.143  -2.554  0.00  0.00    -0.004 C 
ATOM      6  C   UNL     1      -5.324  -0.298  -2.587  0.00  0.00    -0.010 C 
ATOM      7  C   UNL     1      -5.859  -0.246  -4.021  0.00  0.00    -0.082 C 
ATOM      8  N   UNL     1      -4.840   0.331  -4.905  0.00  0.00    +0.379 N 
ATOM      9  C   UNL     1      -3.656  -0.537  -4.939  0.00  0.00    -0.082 C 
ATOM     10  C   UNL     1      -3.028  -0.601  -3.545  0.00  0.00    -0.010 C 
ATOM     11  C   UNL     1      -5.450  -4.192  -1.197  0.00  0.00    +0.282 C 
ATOM     12  O   UNL     1      -6.263  -4.596  -2.009  0.00  0.00    -0.267 OA
ATOM     13  H   UNL     1      -5.216   0.421  -5.837  0.00  0.00    -0.086 HD
ATOM     14  H   UNL     1      -4.576   1.243  -4.563  0.00  0.00    -0.086 HD
ENDROOT
BRANCH  11  15
ATOM     15  C   UNL     1      -5.457  -4.719   0.170  0.00  0.00    +0.190 A 
ATOM     16  C   UNL     1      -6.319  -5.672   0.666  0.00  0.00    +0.055 A 
ATOM     17  C   UNL     1      -5.971  -5.874   2.005  0.00  0.00    +0.050 A 
ATOM     18  C   UNL     1      -4.920  -5.045   2.276  0.00  0.00    +0.136 A 
ATOM     19  O   UNL     1      -4.615  -4.359   1.162  0.00  0.00    -0.450 OA
BRANCH  18  20
ATOM     20  C   UNL     1      -4.229  -4.927   3.575  0.00  0.00    +0.017 A 
ATOM     21  C   UNL     1      -4.636  -5.709   4.659  0.00  0.00    +0.014 A 
ATOM     22  C   UNL     1      -3.987  -5.595   5.870  0.00  0.00    +0.039 A 
ATOM     23  C   UNL     1      -2.932  -4.707   6.013  0.00  0.00    +0.123 A 
ATOM     24  C   UNL     1      -2.524  -3.929   4.942  0.00  0.00    +0.039 A 
ATOM     25  C   UNL     1      -3.162  -4.038   3.724  0.00  0.00    +0.014 A 
ATOM     26  F   UNL     1      -2.300  -4.600   7.203  0.00  0.00    -0.205 F 
ENDBRANCH  18  20
ENDBRANCH  11  15
BRANCH   1  28
ATOM     27  N   UNL     1      -1.812   0.661  -0.903  0.00  0.00    -0.312 N 
ATOM     28  C   UNL     1      -2.051  -0.643  -1.145  0.00  0.00    +0.218 C 
ATOM     29  O   UNL     1      -1.128  -1.397  -1.371  0.00  0.00    -0.275 OA
ATOM     30  H   UNL     1      -2.550   1.264  -0.722  0.00  0.00    +0.149 HD
BRANCH  27  32
ATOM     31  C   UNL     1      -0.031   1.511  -2.348  0.00  0.00    +0.028 C 
ATOM     32  C   UNL     1      -0.438   1.169  -0.913  0.00  0.00    +0.075 C 
BRANCH  32  33
ATOM     33  C   UNL     1      -0.351   2.425  -0.045  0.00  0.00    -0.020 C 
ATOM     34  C   UNL     1      -1.293   3.495  -0.600  0.00  0.00    +0.012 C 
ATOM     35  C   UNL     1      -0.757   2.083   1.390  0.00  0.00    +0.012 C 
ATOM     36  C   UNL     1       1.084   2.955  -0.056  0.00  0.00    +0.012 C 
ENDBRANCH  32  33
ENDBRANCH  27  32
ENDBRANCH   1  28
TORSDOF 5
