REMARK  Name = ZINC55067209
REMARK  7 active torsions:
REMARK  status: ('A' for Active; 'I' for Inactive)
REMARK    1  A    between atoms: C_1  and  C_2
REMARK    2  A    between atoms: C_2  and  C_3
REMARK    3  A    between atoms: C_3  and  C_5
REMARK    4  A    between atoms: C_3  and  N_6
REMARK    5  A    between atoms: C_13  and  C_20
REMARK    6  A    between atoms: C_14  and  C_19
REMARK    7  A    between atoms: C_15  and  C_18
REMARK                            x       y       z     vdW  Elec       q    Type
REMARK                         _______ _______ _______ _____ _____    ______ ____
ROOT
ATOM      1  N   UNL     1       2.280  -0.180   1.141  0.00  0.00    +0.383 N 
ATOM      2  C   UNL     1       2.498   1.269   1.238  0.00  0.00    -0.059 C 
ATOM      3  C   UNL     1       3.978   1.580   0.995  0.00  0.00    +0.088 C 
ATOM      4  N   UNL     1       4.783   0.780   1.932  0.00  0.00    -0.317 N 
ATOM      5  C   UNL     1       4.516  -0.664   2.017  0.00  0.00    +0.088 C 
ATOM      6  C   UNL     1       3.010  -0.869   2.212  0.00  0.00    -0.059 C 
ATOM      7  C   UNL     1       5.764   1.370   2.712  0.00  0.00    +0.154 A 
ATOM      8  C   UNL     1       7.101   1.385   2.276  0.00  0.00    +0.060 A 
ATOM      9  C   UNL     1       8.047   1.996   3.106  0.00  0.00    -0.014 A 
ATOM     10  C   UNL     1       7.605   2.544   4.299  0.00  0.00    +0.064 A 
ATOM     11  N   UNL     1       6.329   2.482   4.624  0.00  0.00    -0.152 NA
ATOM     12  N   UNL     1       5.449   1.930   3.871  0.00  0.00    -0.133 NA
ATOM     13  C   UNL     1       8.586   3.213   5.228  0.00  0.00    +0.068 C 
ATOM     14  C   UNL     1       9.502   2.055   2.715  0.00  0.00    +0.046 C 
ATOM     15  H   UNL     1       2.611  -0.507   0.245  0.00  0.00    -0.081 HD
ENDROOT
BRANCH   8  16
ATOM     16  C   UNL     1       7.494   0.775   0.986  0.00  0.00    +0.119 C 
ATOM     17  N   UNL     1       7.573   1.513  -0.085  0.00  0.00    -0.285 NA
ATOM     18  N   UNL     1       7.775  -0.572   0.918  0.00  0.00    -0.343 N 
ATOM     19  H   UNL     1       7.831   1.113  -0.931  0.00  0.00    +0.188 HD
ATOM     20  H   UNL     1       7.716  -1.121   1.715  0.00  0.00    +0.144 HD
ATOM     21  H   UNL     1       8.033  -0.971   0.072  0.00  0.00    +0.144 HD
ENDBRANCH   8  16
BRANCH   1  22
ATOM     22  C   UNL     1       0.845  -0.467   1.264  0.00  0.00    -0.072 C 
ATOM     23  C   UNL     1       0.372  -0.104   2.674  0.00  0.00    -0.013 C 
BRANCH  22  25
ATOM     24  C   UNL     1       0.942  -2.289  -0.442  0.00  0.00    +0.002 C 
ATOM     25  C   UNL     1       0.599  -1.955   1.011  0.00  0.00    -0.019 C 
ENDBRANCH  22  25
ENDBRANCH   1  22
TORSDOF 3
