REMARK  Name = ZINC27902558
REMARK  13 active torsions:
REMARK  status: ('A' for Active; 'I' for Inactive)
REMARK    1  A    between atoms: C_1  and  C_2
REMARK    2  A    between atoms: C_2  and  O_3
REMARK    3  A    between atoms: O_3  and  C_4
REMARK    4  A    between atoms: C_4  and  C_6
REMARK    5  A    between atoms: C_7  and  C_30
REMARK    6  A    between atoms: C_10  and  N_11
REMARK    7  A    between atoms: C_12  and  C_14
REMARK    8  A    between atoms: C_14  and  C_16
REMARK    9  A    between atoms: C_14  and  N_17
REMARK   10  A    between atoms: N_20  and  C_23
REMARK   11  A    between atoms: C_23  and  C_24
REMARK   12  A    between atoms: N_26  and  C_27
REMARK   13  A    between atoms: C_27  and  C_28
REMARK                            x       y       z     vdW  Elec       q    Type
REMARK                         _______ _______ _______ _____ _____    ______ ____
ROOT
ATOM      1  N   UNL     1      -3.447   7.515  -1.556  0.00  0.00    -0.278 N 
ATOM      2  C   UNL     1      -3.729   8.810  -1.311  0.00  0.00    +0.235 C 
ATOM      3  O   UNL     1      -3.148   9.400  -0.424  0.00  0.00    -0.274 OA
ATOM      4  H   UNL     1      -3.974   6.980  -2.360  0.00  0.00    +0.155 HD
ENDROOT
BRANCH   1   9
ATOM      5  C   UNL     1      -2.073   5.538  -0.897  0.00  0.00    +0.096 A 
ATOM      6  C   UNL     1      -1.050   5.105   0.038  0.00  0.00    +0.012 A 
ATOM      7  C   UNL     1      -0.607   6.031   0.929  0.00  0.00    +0.057 A 
ATOM      8  S   UNL     1      -1.547   7.484   0.511  0.00  0.00    -0.080 S 
ATOM      9  C   UNL     1      -2.494   6.857  -0.794  0.00  0.00    +0.086 A 
BRANCH   6  10
ATOM     10  C   UNL     1      -0.523   3.725   0.026  0.00  0.00    +0.021 A 
ATOM     11  C   UNL     1       0.778   3.298   0.012  0.00  0.00    +0.016 A 
ATOM     12  C   UNL     1       1.031   1.943   0.003  0.00  0.00    +0.008 A 
ATOM     13  C   UNL     1      -0.013   1.076   0.008  0.00  0.00    +0.046 A 
ATOM     14  S   UNL     1      -1.416   2.179   0.019  0.00  0.00    -0.097 S 
ENDBRANCH   6  10
BRANCH   5  15
ATOM     15  C   UNL     1      -2.633   4.629  -1.897  0.00  0.00    +0.342 C 
ATOM     16  O   UNL     1      -3.613   3.960  -1.630  0.00  0.00    -0.245 OA
BRANCH  15  17
ATOM     17  O   UNL     1      -2.062   4.533  -3.115  0.00  0.00    -0.461 OA
BRANCH  17  19
ATOM     18  C   UNL     1      -1.881   3.654  -5.359  0.00  0.00    +0.048 C 
ATOM     19  C   UNL     1      -2.661   3.626  -4.043  0.00  0.00    +0.229 C 
ENDBRANCH  17  19
ENDBRANCH  15  17
ENDBRANCH   5  15
ENDBRANCH   1   9
BRANCH   2  20
ATOM     20  C   UNL     1      -4.765   9.526  -2.139  0.00  0.00    +0.140 C 
ATOM     21  C   UNL     1      -6.114   8.819  -1.990  0.00  0.00    +0.034 C 
BRANCH  20  22
ATOM     22  N   UNL     1      -4.886  10.915  -1.679  0.00  0.00    -0.295 NA
ATOM     23  C   UNL     1      -5.319  10.969  -0.275  0.00  0.00    +0.066 C 
ATOM     24  C   UNL     1      -5.356  12.427   0.189  0.00  0.00    -0.063 C 
ATOM     25  N   UNL     1      -6.272  13.189  -0.672  0.00  0.00    +0.387 N 
ATOM     26  C   UNL     1      -5.838  13.135  -2.075  0.00  0.00    -0.063 C 
ATOM     27  C   UNL     1      -5.801  11.678  -2.539  0.00  0.00    +0.066 C 
ATOM     28  H   UNL     1      -7.266  12.725  -0.605  0.00  0.00    -0.081 HD
BRANCH  25  29
ATOM     29  C   UNL     1      -6.393  14.579  -0.211  0.00  0.00    +0.019 C 
BRANCH  29  30
ATOM     30  C   UNL     1      -7.068  14.604   1.136  0.00  0.00    +0.197 C 
ATOM     31  O   UNL     1      -7.414  13.567   1.661  0.00  0.00    -0.278 OA
ATOM     32  N   UNL     1      -7.287  15.780   1.758  0.00  0.00    -0.313 N 
ATOM     33  H   UNL     1      -6.973  16.721   1.282  0.00  0.00    +0.149 HD
BRANCH  32  34
ATOM     34  C   UNL     1      -7.943  15.805   3.068  0.00  0.00    +0.131 C 
BRANCH  34  35
ATOM     35  C   UNL     1      -8.067  17.230   3.540  0.00  0.00    -0.016 C 
ATOM     36  C   UNL     1      -9.239  17.710   3.874  0.00  0.00    +0.005 C 
ENDBRANCH  34  35
ENDBRANCH  32  34
ENDBRANCH  29  30
ENDBRANCH  25  29
ENDBRANCH  20  22
ENDBRANCH   2  20
TORSDOF 11
