REMARK  Name = ZINC01158321
REMARK  5 active torsions:
REMARK  status: ('A' for Active; 'I' for Inactive)
REMARK    1  A    between atoms: C_4  and  C_7
REMARK    2  A    between atoms: C_10  and  C_12
REMARK    3  A    between atoms: C_12  and  S_13
REMARK    4  A    between atoms: S_13  and  C_14
REMARK    5  A    between atoms: N_24  and  C_25
REMARK                            x       y       z     vdW  Elec       q    Type
REMARK                         _______ _______ _______ _____ _____    ______ ____
ROOT
ATOM      1  C   UNL     1       7.657  -5.550   1.526  0.00  0.00    +0.177 A 
ATOM      2  N   UNL     1       7.931  -5.986   0.321  0.00  0.00    -0.223 NA
ATOM      3  C   UNL     1       7.895  -7.305   0.020  0.00  0.00    +0.079 A 
ATOM      4  C   UNL     1       8.188  -7.772  -1.264  0.00  0.00    +0.028 A 
ATOM      5  C   UNL     1       8.140  -9.113  -1.523  0.00  0.00    +0.002 A 
ATOM      6  C   UNL     1       7.803 -10.021  -0.528  0.00  0.00    +0.001 A 
ATOM      7  C   UNL     1       7.511  -9.595   0.738  0.00  0.00    +0.015 A 
ATOM      8  C   UNL     1       7.553  -8.232   1.030  0.00  0.00    +0.065 A 
ATOM      9  C   UNL     1       7.250  -7.717   2.372  0.00  0.00    +0.267 A 
ATOM     10  O   UNL     1       6.950  -8.467   3.283  0.00  0.00    -0.267 OA
ATOM     11  N   UNL     1       7.322  -6.379   2.560  0.00  0.00    -0.255 N 
ENDROOT
BRANCH  11  12
ATOM     12  C   UNL     1       7.048  -5.839   3.823  0.00  0.00    +0.052 A 
ATOM     13  C   UNL     1       8.072  -5.669   4.745  0.00  0.00    +0.026 A 
ATOM     14  C   UNL     1       7.798  -5.136   5.989  0.00  0.00    +0.002 A 
ATOM     15  C   UNL     1       6.505  -4.772   6.317  0.00  0.00    +0.000 A 
ATOM     16  C   UNL     1       5.483  -4.940   5.402  0.00  0.00    +0.002 A 
ATOM     17  C   UNL     1       5.752  -5.467   4.154  0.00  0.00    +0.026 A 
ENDBRANCH  11  12
BRANCH   1  18
ATOM     18  S   UNL     1       7.729  -3.815   1.829  0.00  0.00    -0.078 S 
BRANCH  18  19
ATOM     19  C   UNL     1       8.197  -3.109   0.225  0.00  0.00    +0.175 C 
BRANCH  19  23
ATOM     20  C   UNL     1       7.823   0.493   0.357  0.00  0.00    +0.248 A 
ATOM     21  N   UNL     1       9.086   0.325   0.674  0.00  0.00    -0.107 NA
ATOM     22  N   UNL     1       9.362  -0.932   0.665  0.00  0.00    -0.111 NA
ATOM     23  C   UNL     1       8.296  -1.610   0.346  0.00  0.00    +0.228 A 
ATOM     24  O   UNL     1       7.298  -0.731   0.148  0.00  0.00    -0.419 OA
BRANCH  20  28
ATOM     25  C   UNL     1       5.771   4.200   0.062  0.00  0.00    +0.000 A 
ATOM     26  C   UNL     1       7.112   4.180   0.403  0.00  0.00    +0.001 A 
ATOM     27  C   UNL     1       7.784   2.979   0.500  0.00  0.00    +0.013 A 
ATOM     28  C   UNL     1       7.109   1.783   0.255  0.00  0.00    +0.038 A 
ATOM     29  C   UNL     1       5.756   1.810  -0.088  0.00  0.00    +0.013 A 
ATOM     30  C   UNL     1       5.096   3.017  -0.182  0.00  0.00    +0.001 A 
ENDBRANCH  20  28
ENDBRANCH  19  23
ENDBRANCH  18  19
ENDBRANCH   1  18
TORSDOF 5
