REMARK  Name = ZINC21776587
REMARK  8 active torsions:
REMARK  status: ('A' for Active; 'I' for Inactive)
REMARK    1  A    between atoms: C_1  and  N_2
REMARK    2  A    between atoms: N_5  and  C_8
REMARK    3  A    between atoms: C_8  and  C_10
REMARK    4  A    between atoms: C_8  and  C_22
REMARK    5  A    between atoms: C_10  and  N_11
REMARK    6  A    between atoms: N_11  and  S_12
REMARK    7  A    between atoms: S_12  and  C_15
REMARK    8  A    between atoms: N_30  and  C_31
REMARK                            x       y       z     vdW  Elec       q    Type
REMARK                         _______ _______ _______ _____ _____    ______ ____
ROOT
ATOM      1  C   UNL     1      -0.613  -0.532  -0.108  0.00  0.00    +0.102 C 
ENDROOT
BRANCH   1   2
ATOM      2  C   UNL     1      -0.854   0.062  -1.472  0.00  0.00    -0.029 A 
ATOM      3  C   UNL     1       0.122  -0.026  -2.448  0.00  0.00    +0.007 A 
ATOM      4  C   UNL     1      -0.093   0.517  -3.697  0.00  0.00    +0.024 A 
ATOM      5  C   UNL     1      -1.297   1.160  -3.985  0.00  0.00    +0.033 A 
ATOM      6  C   UNL     1      -2.273   1.239  -2.998  0.00  0.00    -0.025 A 
ATOM      7  C   UNL     1      -2.054   0.690  -1.752  0.00  0.00    +0.010 A 
ATOM      8  C   UNL     1      -3.466   1.971  -3.579  0.00  0.00    +0.056 C 
ATOM      9  C   UNL     1      -3.195   1.916  -5.100  0.00  0.00    +0.109 C 
ATOM     10  N   UNL     1      -1.723   1.787  -5.162  0.00  0.00    -0.332 N 
ATOM     11  C   UNL     1      -1.311   1.020  -6.345  0.00  0.00    +0.129 C 
ENDBRANCH   1   2
BRANCH   1  16
ATOM     12  C   UNL     1       2.942   3.428   1.784  0.00  0.00    -0.096 C 
ATOM     13  N   UNL     1       1.980   2.595   1.049  0.00  0.00    +0.379 N 
ATOM     14  C   UNL     1       2.580   1.307   0.673  0.00  0.00    -0.064 C 
ATOM     15  C   UNL     1       1.575   0.503  -0.157  0.00  0.00    +0.066 C 
ATOM     16  N   UNL     1       0.348   0.301   0.626  0.00  0.00    -0.298 NA
ATOM     17  C   UNL     1      -0.251   1.589   1.003  0.00  0.00    +0.066 C 
ATOM     18  C   UNL     1       0.753   2.393   1.832  0.00  0.00    -0.064 C 
ATOM     19  H   UNL     1       1.710   3.127   0.125  0.00  0.00    -0.082 HD
ENDBRANCH   1  16
BRANCH   1  20
ATOM     20  C   UNL     1      -0.051  -1.947  -0.260  0.00  0.00    +0.129 C 
BRANCH  20  21
ATOM     21  N   UNL     1       0.257  -2.495   1.063  0.00  0.00    -0.188 NA
ATOM     22  H   UNL     1       0.484  -1.818   1.899  0.00  0.00    +0.148 HD
BRANCH  21  23
ATOM     23  S   UNL     1       0.507  -4.122   1.248  0.00  0.00    +0.060 S 
ATOM     24  O   UNL     1       0.857  -4.326   2.610  0.00  0.00    -0.153 OA
ATOM     25  O   UNL     1      -0.599  -4.774   0.640  0.00  0.00    -0.153 OA
BRANCH  23  26
ATOM     26  C   UNL     1       1.927  -4.542   0.294  0.00  0.00    +0.119 A 
ATOM     27  C   UNL     1       1.809  -5.409  -0.777  0.00  0.00    +0.029 A 
ATOM     28  C   UNL     1       2.922  -5.736  -1.528  0.00  0.00    +0.002 A 
ATOM     29  C   UNL     1       4.156  -5.204  -1.204  0.00  0.00    +0.001 A 
ATOM     30  C   UNL     1       4.276  -4.341  -0.131  0.00  0.00    +0.017 A 
ATOM     31  C   UNL     1       3.161  -4.010   0.619  0.00  0.00    +0.044 A 
ATOM     32 BR   UNL     1       3.325  -2.830   2.087  0.00  0.00    -0.048 Br
ENDBRANCH  23  26
ENDBRANCH  21  23
ENDBRANCH  20  21
ENDBRANCH   1  20
TORSDOF 6
