REMARK  Name = ZINC19568397
REMARK  9 active torsions:
REMARK  status: ('A' for Active; 'I' for Inactive)
REMARK    1  A    between atoms: C_1  and  C_2
REMARK    2  A    between atoms: C_4  and  C_31
REMARK    3  A    between atoms: C_9  and  C_12
REMARK    4  A    between atoms: C_12  and  C_13
REMARK    5  A    between atoms: C_13  and  C_14
REMARK    6  A    between atoms: N_16  and  C_17
REMARK    7  A    between atoms: C_17  and  C_18
REMARK    8  A    between atoms: C_18  and  C_19
REMARK    9  A    between atoms: C_19  and  C_20
REMARK                            x       y       z     vdW  Elec       q    Type
REMARK                         _______ _______ _______ _____ _____    ______ ____
ROOT
ATOM      1  C   UNL     1      -4.857   7.141  -2.431  0.00  0.00    +0.213 C 
ATOM      2  O   UNL     1      -4.818   8.086  -1.671  0.00  0.00    -0.276 OA
ATOM      3  N   UNL     1      -4.034   6.091  -2.242  0.00  0.00    -0.315 N 
ATOM      4  H   UNL     1      -4.069   5.234  -2.931  0.00  0.00    +0.149 HD
ENDROOT
BRANCH   1   5
ATOM      5  C   UNL     1      -5.825   7.142  -3.586  0.00  0.00    +0.103 C 
BRANCH   5   6
ATOM      6  C   UNL     1      -6.635   8.441  -3.571  0.00  0.00    +0.083 C 
BRANCH   6  15
ATOM      7  C   UNL     1     -10.114   8.196 -10.103  0.00  0.00    +0.044 C 
ATOM      8  C   UNL     1      -9.879   8.320  -8.620  0.00  0.00    -0.048 A 
ATOM      9  C   UNL     1     -10.955   8.540  -7.770  0.00  0.00    +0.009 A 
ATOM     10  C   UNL     1     -10.758   8.656  -6.411  0.00  0.00    -0.025 A 
ATOM     11  C   UNL     1      -9.476   8.552  -5.890  0.00  0.00    +0.069 A 
ATOM     12  C   UNL     1      -8.387   8.329  -6.750  0.00  0.00    +0.090 A 
ATOM     13  C   UNL     1      -8.611   8.215  -8.125  0.00  0.00    +0.033 A 
ATOM     14  N   UNL     1      -7.275   8.272  -5.974  0.00  0.00    -0.232 NA
ATOM     15  C   UNL     1      -7.603   8.441  -4.726  0.00  0.00    +0.109 A 
ATOM     16  N   UNL     1      -8.948   8.614  -4.616  0.00  0.00    -0.342 N 
ATOM     17  H   UNL     1      -9.610   8.777  -3.753  0.00  0.00    +0.167 HD
ATOM     18  C   UNL     1     -11.931   8.894  -5.494  0.00  0.00    +0.046 C 
ENDBRANCH   6  15
ENDBRANCH   5   6
ENDBRANCH   1   5
BRANCH   3  19
ATOM     19  C   UNL     1      -3.093   6.090  -1.119  0.00  0.00    +0.104 C 
BRANCH  19  20
ATOM     20  C   UNL     1      -2.283   4.792  -1.134  0.00  0.00    +0.026 C 
BRANCH  20  21
ATOM     21  C   UNL     1      -1.300   4.791   0.039  0.00  0.00    +0.076 C 
BRANCH  21  22
ATOM     22  C   UNL     1      -0.503   3.512   0.025  0.00  0.00    +0.108 A 
ATOM     23  N   UNL     1       0.855   3.441   0.012  0.00  0.00    -0.342 N 
ATOM     24  H   UNL     1       1.454   4.363   0.011  0.00  0.00    +0.167 HD
ATOM     25  C   UNL     1       1.196   2.102   0.002  0.00  0.00    +0.066 A 
ATOM     26  C   UNL     1       2.401   1.413  -0.014  0.00  0.00    +0.030 A 
ATOM     27  C   UNL     1       2.404   0.035  -0.021  0.00  0.00    +0.040 A 
ATOM     28  C   UNL     1       1.207  -0.671  -0.013  0.00  0.00    +0.126 A 
ATOM     29  C   UNL     1       0.002  -0.004   0.002  0.00  0.00    +0.068 A 
ATOM     30  C   UNL     1      -0.017   1.393   0.010  0.00  0.00    +0.092 A 
ATOM     31  N   UNL     1      -1.014   2.315   0.019  0.00  0.00    -0.232 NA
ATOM     32  F   UNL     1       1.226  -2.022  -0.021  0.00  0.00    -0.205 F 
ENDBRANCH  21  22
ENDBRANCH  20  21
ENDBRANCH  19  20
ENDBRANCH   3  19
TORSDOF 7
