REMARK  Name = ZINC01559044
REMARK  15 active torsions:
REMARK  status: ('A' for Active; 'I' for Inactive)
REMARK    1  A    between atoms: C_1  and  C_2
REMARK    2  A    between atoms: C_2  and  C_29
REMARK    3  A    between atoms: C_4  and  O_11
REMARK    4  A    between atoms: C_6  and  C_9
REMARK    5  A    between atoms: C_6  and  C_10
REMARK    6  A    between atoms: N_7  and  O_8
REMARK    7  A    between atoms: O_11  and  P_12
REMARK    8  A    between atoms: P_12  and  N_14
REMARK    9  A    between atoms: P_12  and  O_17
REMARK   10  A    between atoms: O_17  and  C_18
REMARK   11  A    between atoms: C_20  and  C_27
REMARK   12  A    between atoms: C_20  and  C_28
REMARK   13  A    between atoms: N_21  and  O_26
REMARK   14  A    between atoms: C_22  and  C_24
REMARK   15  A    between atoms: C_22  and  C_25
REMARK                            x       y       z     vdW  Elec       q    Type
REMARK                         _______ _______ _______ _____ _____    ______ ____
ROOT
ATOM      1  P   UNL     1       0.006   1.644   0.017  0.00  0.00    +0.246 P 
ATOM      2  S   UNL     1      -0.618   2.333  -1.598  0.00  0.00    +0.009 S 
ENDROOT
BRANCH   1   3
ATOM      3  N   UNL     1      -0.986   2.168   1.271  0.00  0.00    -0.232 NA
ATOM      4  C   UNL     1      -2.273   2.655   0.756  0.00  0.00    +0.109 C 
ATOM      5  C   UNL     1      -1.181   3.623   1.215  0.00  0.00    +0.109 C 
ENDBRANCH   1   3
BRANCH   1   6
ATOM      6  O   UNL     1      -0.011   0.035  -0.044  0.00  0.00    -0.316 OA
BRANCH   6  10
ATOM      7  C   UNL     1      -3.868  -1.549  -1.360  0.00  0.00    +0.030 C 
ATOM      8  C   UNL     1      -2.637  -2.433  -1.125  0.00  0.00    +0.044 C 
ATOM      9  C   UNL     1      -1.374  -1.580  -1.211  0.00  0.00    +0.056 C 
ATOM     10  C   UNL     1      -1.214  -0.737   0.054  0.00  0.00    +0.130 C 
ATOM     11  C   UNL     1      -1.113  -1.676   1.255  0.00  0.00    +0.056 C 
ATOM     12  C   UNL     1      -2.375  -2.528   1.371  0.00  0.00    +0.044 C 
ATOM     13  N   UNL     1      -2.746  -3.160   0.122  0.00  0.00    -0.180 NA
ATOM     14  C   UNL     1      -3.522  -1.672   1.920  0.00  0.00    +0.030 C 
ATOM     15  C   UNL     1      -2.094  -3.637   2.409  0.00  0.00    +0.030 C 
ATOM     16  C   UNL     1      -2.585  -3.459  -2.279  0.00  0.00    +0.030 C 
BRANCH  13  17
ATOM     17  O   UNL     1      -4.008  -3.892   0.227  0.00  0.00    -0.311 OA
ATOM     18  H   UNL     1      -4.108  -4.388   1.051  0.00  0.00    +0.237 HD
ENDBRANCH  13  17
ENDBRANCH   6  10
ENDBRANCH   1   6
BRANCH   1  19
ATOM     19  O   UNL     1       1.511   2.155   0.273  0.00  0.00    -0.316 OA
BRANCH  19  20
ATOM     20  C   UNL     1       2.576   1.946  -0.662  0.00  0.00    +0.130 C 
ATOM     21  C   UNL     1       3.640   1.056  -0.020  0.00  0.00    +0.056 C 
ATOM     22  C   UNL     1       4.800   0.833  -0.988  0.00  0.00    +0.044 C 
ATOM     23  N   UNL     1       5.293   2.063  -1.571  0.00  0.00    -0.180 NA
ATOM     24  C   UNL     1       4.368   3.096  -1.988  0.00  0.00    +0.044 C 
ATOM     25  C   UNL     1       3.212   3.291  -1.010  0.00  0.00    +0.056 C 
ATOM     26  C   UNL     1       3.811   2.810  -3.388  0.00  0.00    +0.030 C 
ATOM     27  C   UNL     1       5.140   4.432  -2.067  0.00  0.00    +0.030 C 
ATOM     28  C   UNL     1       4.377  -0.164  -2.073  0.00  0.00    +0.030 C 
ATOM     29  C   UNL     1       5.952   0.181  -0.191  0.00  0.00    +0.030 C 
BRANCH  23  30
ATOM     30  O   UNL     1       6.337   1.822  -2.568  0.00  0.00    -0.311 OA
ATOM     31  H   UNL     1       6.970   1.136  -2.316  0.00  0.00    +0.237 HD
ENDBRANCH  23  30
ENDBRANCH  19  20
ENDBRANCH   1  19
TORSDOF 7
