REMARK  Name = ZINC61609526
REMARK  5 active torsions:
REMARK  status: ('A' for Active; 'I' for Inactive)
REMARK    1  A    between atoms: C_1  and  C_2
REMARK    2  A    between atoms: C_2  and  C_3
REMARK    3  A    between atoms: C_3  and  C_4
REMARK    4  A    between atoms: C_4  and  N_5
REMARK    5  A    between atoms: C_8  and  C_14
REMARK                            x       y       z     vdW  Elec       q    Type
REMARK                         _______ _______ _______ _____ _____    ______ ____
ROOT
ATOM      1  N   UNL     1      -2.787  -2.571   0.015  0.00  0.00    -0.226 N 
ATOM      2  C   UNL     1      -3.400  -2.801   1.191  0.00  0.00    +0.232 C 
ATOM      3  O   UNL     1      -2.845  -2.515   2.230  0.00  0.00    -0.274 OA
ATOM      4  C   UNL     1      -4.776  -3.416   1.215  0.00  0.00    +0.123 C 
ATOM      5  C   UNL     1      -5.568  -2.924   0.001  0.00  0.00    +0.123 C 
ATOM      6  N   UNL     1      -4.739  -3.031  -1.200  0.00  0.00    -0.298 N 
ATOM      7  C   UNL     1      -3.419  -2.793  -1.149  0.00  0.00    +0.309 C 
ATOM      8  O   UNL     1      -2.779  -2.784  -2.183  0.00  0.00    -0.252 OA
ATOM      9  H   UNL     1      -5.149  -3.273  -2.045  0.00  0.00    +0.150 HD
ENDROOT
BRANCH   4  10
ATOM     10  C   UNL     1      -4.658  -4.918   1.166  0.00  0.00    -0.034 A 
ATOM     11  C   UNL     1      -4.034  -5.527   0.093  0.00  0.00    +0.004 A 
ATOM     12  C   UNL     1      -3.926  -6.904   0.047  0.00  0.00    +0.000 A 
ATOM     13  C   UNL     1      -4.440  -7.672   1.075  0.00  0.00    +0.000 A 
ATOM     14  C   UNL     1      -5.062  -7.063   2.148  0.00  0.00    +0.000 A 
ATOM     15  C   UNL     1      -5.167  -5.686   2.196  0.00  0.00    +0.004 A 
ENDBRANCH   4  10
BRANCH   1  16
ATOM     16  C   UNL     1      -1.413  -2.063   0.004  0.00  0.00    +0.118 C 
BRANCH  16  17
ATOM     17  C   UNL     1      -1.433  -0.534   0.013  0.00  0.00    +0.019 C 
BRANCH  17  19
ATOM     18  C   UNL     1      -0.019   1.526   0.010  0.00  0.00    +0.004 C 
ATOM     19  C   UNL     1       0.002  -0.004   0.002  0.00  0.00    -0.002 C 
ENDBRANCH  17  19
ENDBRANCH  16  17
ENDBRANCH   1  16
TORSDOF 4
