REMARK  Name = ZINC10959286
REMARK  6 active torsions:
REMARK  status: ('A' for Active; 'I' for Inactive)
REMARK    1  A    between atoms: C_1  and  C_2
REMARK    2  A    between atoms: C_6  and  C_13
REMARK    3  A    between atoms: C_13  and  O_14
REMARK    4  A    between atoms: O_14  and  C_15
REMARK    5  A    between atoms: C_15  and  C_17
REMARK    6  A    between atoms: C_22  and  N_23
REMARK                            x       y       z     vdW  Elec       q    Type
REMARK                         _______ _______ _______ _____ _____    ______ ____
ROOT
ATOM      1  C   UNL     1       1.192   3.136  -0.069  0.00  0.00    +0.080 A 
ATOM      2  C   UNL     1       1.158   1.745   0.021  0.00  0.00    +0.017 A 
ATOM      3  C   UNL     1      -0.051   1.079   0.105  0.00  0.00    +0.013 A 
ATOM      4  C   UNL     1      -1.248   1.788   0.095  0.00  0.00    +0.035 A 
ATOM      5  C   UNL     1      -1.233   3.192   0.011  0.00  0.00    +0.054 A 
ATOM      6  C   UNL     1      -0.009   3.869  -0.075  0.00  0.00    +0.050 A 
ATOM      7  C   UNL     1      -2.498   3.946   0.006  0.00  0.00    +0.196 C 
ATOM      8  O   UNL     1      -2.482   5.159  -0.072  0.00  0.00    -0.287 OA
ATOM      9  C   UNL     1      -3.787   3.227   0.080  0.00  0.00    +0.033 A 
ATOM     10  C   UNL     1      -4.986   3.933   0.071  0.00  0.00    +0.012 A 
ATOM     11  C   UNL     1      -6.189   3.252   0.151  0.00  0.00    +0.001 A 
ATOM     12  C   UNL     1      -6.208   1.872   0.240  0.00  0.00    +0.001 A 
ATOM     13  C   UNL     1      -5.025   1.154   0.250  0.00  0.00    +0.012 A 
ATOM     14  C   UNL     1      -3.807   1.823   0.170  0.00  0.00    +0.033 A 
ATOM     15  C   UNL     1      -2.538   1.066   0.180  0.00  0.00    +0.195 C 
ATOM     16  O   UNL     1      -2.554  -0.146   0.259  0.00  0.00    -0.287 OA
ENDROOT
BRANCH   6  17
ATOM     17  N   UNL     1       0.018   5.246  -0.164  0.00  0.00    -0.357 N 
ATOM     18  H   UNL     1       0.730   5.686  -0.653  0.00  0.00    +0.142 HD
ATOM     19  H   UNL     1      -0.676   5.773   0.263  0.00  0.00    +0.142 HD
ENDBRANCH   6  17
BRANCH   1  20
ATOM     20  C   UNL     1       2.486   3.839  -0.158  0.00  0.00    +0.341 C 
ATOM     21  O   UNL     1       2.515   5.050  -0.246  0.00  0.00    -0.245 OA
BRANCH  20  22
ATOM     22  O   UNL     1       3.636   3.137  -0.143  0.00  0.00    -0.456 OA
BRANCH  22  23
ATOM     23  C   UNL     1       4.872   3.894  -0.234  0.00  0.00    +0.269 C 
BRANCH  23  29
ATOM     24  C   UNL     1      11.446   4.857  -0.497  0.00  0.00    +0.044 C 
ATOM     25  C   UNL     1      10.028   4.354  -0.419  0.00  0.00    -0.047 A 
ATOM     26  C   UNL     1       8.975   5.257  -0.453  0.00  0.00    +0.004 A 
ATOM     27  C   UNL     1       7.682   4.819  -0.384  0.00  0.00    +0.012 A 
ATOM     28  C   UNL     1       7.419   3.449  -0.284  0.00  0.00    +0.024 A 
ATOM     29  C   UNL     1       6.044   2.948  -0.201  0.00  0.00    +0.007 A 
ATOM     30  C   UNL     1       5.856   1.607  -0.100  0.00  0.00    +0.099 A 
ATOM     31  C   UNL     1       6.971   0.743  -0.071  0.00  0.00    +0.338 A 
ATOM     32  O   UNL     1       6.789  -0.458   0.020  0.00  0.00    -0.245 OA
ATOM     33  O   UNL     1       8.227   1.210  -0.142  0.00  0.00    -0.422 OA
ATOM     34  C   UNL     1       8.483   2.531  -0.244  0.00  0.00    +0.140 A 
ATOM     35  C   UNL     1       9.789   2.999  -0.316  0.00  0.00    +0.050 A 
ENDBRANCH  23  29
ENDBRANCH  22  23
ENDBRANCH  20  22
ENDBRANCH   1  20
TORSDOF 5
