REMARK  Name = ZINC45547831
REMARK  9 active torsions:
REMARK  status: ('A' for Active; 'I' for Inactive)
REMARK    1  A    between atoms: C_1  and  O_2
REMARK    2  A    between atoms: O_2  and  C_3
REMARK    3  A    between atoms: C_3  and  C_5
REMARK    4  A    between atoms: C_5  and  C_7
REMARK    5  A    between atoms: C_5  and  N_14
REMARK    6  A    between atoms: N_17  and  C_20
REMARK    7  A    between atoms: C_20  and  C_21
REMARK    8  A    between atoms: N_23  and  C_24
REMARK    9  A    between atoms: C_24  and  C_31
REMARK                            x       y       z     vdW  Elec       q    Type
REMARK                         _______ _______ _______ _____ _____    ______ ____
ROOT
ATOM      1  N   UNL     1       1.400  -2.529   2.299  0.00  0.00    -0.284 NA
ATOM      2  C   UNL     1       1.401  -3.992   2.438  0.00  0.00    +0.101 C 
ATOM      3  C   UNL     1       2.091  -4.377   3.749  0.00  0.00    +0.100 C 
ATOM      4  N   UNL     1       3.463  -3.850   3.750  0.00  0.00    -0.292 NA
ATOM      5  C   UNL     1       3.462  -2.387   3.611  0.00  0.00    +0.100 C 
ATOM      6  C   UNL     1       2.772  -2.002   2.301  0.00  0.00    +0.101 C 
ENDROOT
BRANCH   1   7
ATOM      7  C   UNL     1       0.679  -2.115   1.088  0.00  0.00    +0.198 C 
BRANCH   7   8
ATOM      8  C   UNL     1      -0.721  -2.674   1.122  0.00  0.00    -0.001 A 
ATOM      9  C   UNL     1      -1.316  -2.973   2.333  0.00  0.00    +0.007 A 
ATOM     10  C   UNL     1      -2.600  -3.485   2.365  0.00  0.00    +0.000 A 
ATOM     11  C   UNL     1      -3.289  -3.697   1.185  0.00  0.00    +0.001 A 
ATOM     12  C   UNL     1      -2.695  -3.398  -0.026  0.00  0.00    +0.020 A 
ATOM     13  C   UNL     1      -1.412  -2.880  -0.058  0.00  0.00    +0.046 A 
ATOM     14 CL   UNL     1      -0.667  -2.498  -1.579  0.00  0.00    -0.083 Cl
ENDBRANCH   7   8
BRANCH   7  15
ATOM     15  C   UNL     1       0.618  -0.611   1.029  0.00  0.00    +0.329 C 
ATOM     16  O   UNL     1       1.124   0.049   1.905  0.00  0.00    -0.249 OA
BRANCH  15  18
ATOM     17  C   UNL     1      -0.017   1.425   0.010  0.00  0.00    +0.280 C 
ATOM     18  O   UNL     1       0.002  -0.004   0.002  0.00  0.00    -0.467 OA
ENDBRANCH  15  18
ENDBRANCH   7  15
ENDBRANCH   1   7
BRANCH   4  19
ATOM     19  C   UNL     1       4.185  -4.263   4.961  0.00  0.00    +0.180 C 
BRANCH  19  20
ATOM     20  C   UNL     1       5.645  -3.919   4.818  0.00  0.00    +0.228 C 
ATOM     21  O   UNL     1       6.045  -3.382   3.807  0.00  0.00    -0.274 OA
ATOM     22  N   UNL     1       6.506  -4.208   5.814  0.00  0.00    -0.296 N 
ATOM     23  H   UNL     1       6.186  -4.637   6.623  0.00  0.00    +0.150 HD
BRANCH  22  24
ATOM     24  C   UNL     1       7.926  -3.873   5.675  0.00  0.00    +0.121 C 
ATOM     25  C   UNL     1       8.478  -4.557   4.407  0.00  0.00    +0.041 C 
ATOM     26  C   UNL     1       9.729  -3.837   3.983  0.00  0.00    +0.003 C 
ATOM     27  C   UNL     1      11.005  -4.491   4.545  0.00  0.00    +0.000 C 
ATOM     28  C   UNL     1      10.854  -4.930   6.014  0.00  0.00    +0.000 C 
ATOM     29  C   UNL     1      10.123  -3.912   6.847  0.00  0.00    +0.003 C 
ATOM     30  C   UNL     1       8.628  -4.288   6.880  0.00  0.00    +0.041 C 
BRANCH  24  31
ATOM     31  C   UNL     1       8.058  -2.415   5.523  0.00  0.00    +0.088 C 
ATOM     32  N   UNL     1       8.161  -1.290   5.406  0.00  0.00    -0.194 NA
ENDBRANCH  24  31
ENDBRANCH  22  24
ENDBRANCH  19  20
ENDBRANCH   4  19
TORSDOF 8
