REMARK  Name = ZINC32947695
REMARK  7 active torsions:
REMARK  status: ('A' for Active; 'I' for Inactive)
REMARK    1  A    between atoms: C_1  and  C_2
REMARK    2  A    between atoms: C_2  and  C_3
REMARK    3  A    between atoms: C_8  and  N_9
REMARK    4  A    between atoms: C_12  and  N_24
REMARK    5  A    between atoms: C_13  and  C_15
REMARK    6  A    between atoms: C_15  and  C_17
REMARK    7  A    between atoms: C_20  and  C_23
REMARK                            x       y       z     vdW  Elec       q    Type
REMARK                         _______ _______ _______ _____ _____    ______ ____
ROOT
ATOM      1  N   UNL     1       4.507   5.679   0.043  0.00  0.00    -0.293 N 
ATOM      2  C   UNL     1       3.651   4.602  -0.014  0.00  0.00    +0.165 A 
ATOM      3  N   UNL     1       3.945   3.311   0.001  0.00  0.00    -0.210 NA
ATOM      4  C   UNL     1       3.011   2.392  -0.060  0.00  0.00    +0.136 A 
ATOM      5  C   UNL     1       1.681   2.831  -0.143  0.00  0.00    +0.102 A 
ATOM      6  S   UNL     1       1.919   4.602  -0.131  0.00  0.00    -0.047 S 
ATOM      7  H   UNL     1       4.104   6.700   0.107  0.00  0.00    +0.154 HD
ENDROOT
BRANCH   1  13
ATOM      8  C   UNL     1       6.753   6.558  -0.078  0.00  0.00    -0.026 A 
ATOM      9  C   UNL     1       8.118   6.352  -0.096  0.00  0.00    +0.005 A 
ATOM     10  C   UNL     1       8.627   5.068  -0.028  0.00  0.00    +0.000 A 
ATOM     11  C   UNL     1       7.770   3.986   0.064  0.00  0.00    +0.002 A 
ATOM     12  C   UNL     1       6.404   4.185   0.087  0.00  0.00    +0.023 A 
ATOM     13  C   UNL     1       5.890   5.474   0.019  0.00  0.00    +0.036 A 
BRANCH   8  15
ATOM     14  C   UNL     1       5.934   8.483   1.254  0.00  0.00    +0.009 C 
ATOM     15  C   UNL     1       6.200   7.957  -0.158  0.00  0.00    +0.033 C 
ENDBRANCH   8  15
ENDBRANCH   1  13
BRANCH   4  16
ATOM     16  N   UNL     1       3.325   1.043  -0.043  0.00  0.00    -0.342 N 
ATOM     17  H   UNL     1       2.524   0.291  -0.096  0.00  0.00    +0.144 HD
ATOM     18  H   UNL     1       4.376   0.724   0.023  0.00  0.00    +0.144 HD
ENDBRANCH   4  16
BRANCH   5  19
ATOM     19  C   UNL     1       0.491   2.084  -0.220  0.00  0.00    +0.203 C 
ATOM     20  O   UNL     1       0.539   0.871  -0.339  0.00  0.00    -0.286 OA
BRANCH  19  21
ATOM     21  C   UNL     1      -0.819   2.771  -0.162  0.00  0.00    +0.023 A 
ATOM     22  C   UNL     1      -1.951   2.168  -0.713  0.00  0.00    +0.012 A 
ATOM     23  C   UNL     1      -3.170   2.812  -0.651  0.00  0.00    +0.004 A 
ATOM     24  C   UNL     1      -3.269   4.056  -0.054  0.00  0.00    -0.050 A 
ATOM     25  C   UNL     1      -2.150   4.660   0.489  0.00  0.00    +0.004 A 
ATOM     26  C   UNL     1      -0.926   4.025   0.439  0.00  0.00    +0.012 A 
ATOM     27  C   UNL     1      -4.603   4.755   0.005  0.00  0.00    +0.044 C 
ENDBRANCH  19  21
ENDBRANCH   5  19
TORSDOF 5
