REMARK  Name = ZINC48441054
REMARK  4 active torsions:
REMARK  status: ('A' for Active; 'I' for Inactive)
REMARK    1  A    between atoms: C_3  and  N_12
REMARK    2  A    between atoms: C_5  and  N_7
REMARK    3  A    between atoms: N_12  and  S_13
REMARK    4  A    between atoms: S_13  and  C_16
REMARK                            x       y       z     vdW  Elec       q    Type
REMARK                         _______ _______ _______ _____ _____    ______ ____
ROOT
ATOM      1  C   UNL     1      -0.017   1.377   0.010  0.00  0.00    +0.004 A 
ATOM      2  C   UNL     1       1.169   2.087   0.002  0.00  0.00    +0.027 A 
ATOM      3  C   UNL     1       2.384   1.413  -0.013  0.00  0.00    +0.076 A 
ATOM      4  C   UNL     1       2.405   0.025  -0.021  0.00  0.00    +0.054 A 
ATOM      5  C   UNL     1       1.213  -0.684  -0.013  0.00  0.00    +0.067 A 
ATOM      6  C   UNL     1       0.002  -0.004   0.002  0.00  0.00    +0.028 A 
ENDROOT
BRANCH   5   7
ATOM      7  N   UNL     1       1.231  -2.086  -0.021  0.00  0.00    -0.240 N 
ATOM      8  C   UNL     1       0.148  -2.895  -0.021  0.00  0.00    +0.114 A 
ATOM      9  C   UNL     1       0.590  -4.174  -0.031  0.00  0.00    +0.041 A 
ATOM     10  C   UNL     1       1.989  -4.146  -0.038  0.00  0.00    +0.135 A 
ATOM     11  N   UNL     1       2.374  -2.896  -0.038  0.00  0.00    -0.175 NA
ENDBRANCH   5   7
BRANCH   3  12
ATOM     12  N   UNL     1       3.582   2.131  -0.021  0.00  0.00    -0.097 NA
BRANCH  12  13
ATOM     13  S   UNL     1       3.554   3.787  -0.013  0.00  0.00    +0.099 S 
ATOM     14  O   UNL     1       2.985   4.190  -1.250  0.00  0.00    -0.148 OA
ATOM     15  O   UNL     1       3.009   4.178   1.240  0.00  0.00    -0.148 OA
BRANCH  13  16
ATOM     16  C   UNL     1       5.229   4.335  -0.026  0.00  0.00    +0.161 A 
ATOM     17  C   UNL     1       5.713   5.602  -0.019  0.00  0.00    +0.052 A 
ATOM     18  C   UNL     1       7.081   5.797  -0.032  0.00  0.00    +0.025 A 
ATOM     19  C   UNL     1       7.899   4.716  -0.052  0.00  0.00    +0.048 A 
ATOM     20  S   UNL     1       6.729   3.368  -0.045  0.00  0.00    -0.076 S 
ATOM     21 BR   UNL     1       4.533   7.080   0.008  0.00  0.00    -0.048 Br
ENDBRANCH  13  16
ENDBRANCH  12  13
ENDBRANCH   3  12
TORSDOF 4
