REMARK  Name = ZINC32350191
REMARK  9 active torsions:
REMARK  status: ('A' for Active; 'I' for Inactive)
REMARK    1  A    between atoms: C_1  and  C_2
REMARK    2  A    between atoms: C_7  and  N_8
REMARK    3  A    between atoms: N_8  and  S_9
REMARK    4  A    between atoms: S_9  and  C_12
REMARK    5  A    between atoms: C_15  and  C_18
REMARK    6  A    between atoms: N_20  and  C_21
REMARK    7  A    between atoms: C_21  and  C_22
REMARK    8  A    between atoms: C_22  and  C_24
REMARK    9  A    between atoms: C_22  and  N_25
REMARK                            x       y       z     vdW  Elec       q    Type
REMARK                         _______ _______ _______ _____ _____    ______ ____
ROOT
ATOM      1  C   UNL     1      -1.566   1.822  -1.981  0.00  0.00    +0.109 A 
ATOM      2  C   UNL     1      -1.184   3.137  -2.179  0.00  0.00    +0.029 A 
ATOM      3  C   UNL     1      -1.262   3.699  -3.436  0.00  0.00    +0.015 A 
ATOM      4  C   UNL     1      -1.737   2.942  -4.508  0.00  0.00    +0.037 A 
ATOM      5  C   UNL     1      -2.126   1.617  -4.300  0.00  0.00    +0.015 A 
ATOM      6  C   UNL     1      -2.039   1.066  -3.039  0.00  0.00    +0.029 A 
ENDROOT
BRANCH   4   7
ATOM      7  C   UNL     1      -1.827   3.539  -5.857  0.00  0.00    +0.244 C 
ATOM      8  O   UNL     1      -2.241   2.877  -6.788  0.00  0.00    -0.270 OA
ATOM      9  N   UNL     1      -1.451   4.818  -6.054  0.00  0.00    -0.313 N 
ATOM     10  H   UNL     1      -1.076   5.418  -5.211  0.00  0.00    +0.149 HD
BRANCH   9  11
ATOM     11  C   UNL     1      -1.540   5.410  -7.391  0.00  0.00    +0.089 C 
BRANCH  11  12
ATOM     12  C   UNL     1      -1.055   6.861  -7.340  0.00  0.00    -0.054 C 
ATOM     13  C   UNL     1      -1.265   7.517  -8.706  0.00  0.00    -0.012 C 
BRANCH  12  14
ATOM     14  N   UNL     1      -1.816   7.596  -6.322  0.00  0.00    +0.382 N 
ATOM     15  C   UNL     1      -3.264   7.582  -6.628  0.00  0.00    -0.078 C 
ATOM     16  C   UNL     1      -4.051   8.540  -5.776  0.00  0.00    -0.019 C 
ATOM     17  C   UNL     1      -4.186   9.875  -6.537  0.00  0.00    -0.002 C 
ATOM     18  C   UNL     1      -2.972  10.679  -6.461  0.00  0.00    -0.002 C 
ATOM     19  C   UNL     1      -1.757   9.961  -7.087  0.00  0.00    -0.019 C 
ATOM     20  C   UNL     1      -1.245   8.944  -6.103  0.00  0.00    -0.078 C 
ATOM     21  H   UNL     1      -1.716   7.076  -5.358  0.00  0.00    -0.081 HD
ENDBRANCH  12  14
ENDBRANCH  11  12
ENDBRANCH   9  11
ENDBRANCH   4   7
BRANCH   1  22
ATOM     22  S   UNL     1      -1.458   1.109  -0.373  0.00  0.00    +0.072 S 
ATOM     23  O   UNL     1      -2.392   0.039  -0.339  0.00  0.00    -0.150 OA
ATOM     24  O   UNL     1      -1.499   2.187   0.553  0.00  0.00    -0.150 OA
BRANCH  22  25
ATOM     25  N   UNL     1       0.046   0.429  -0.240  0.00  0.00    -0.216 N 
ATOM     26  H   UNL     1       0.147  -0.649  -0.048  0.00  0.00    +0.174 HD
BRANCH  25  33
ATOM     27  C   UNL     1       2.327  -0.694  -1.516  0.00  0.00    +0.046 C 
ATOM     28  C   UNL     1       2.323   0.717  -0.987  0.00  0.00    -0.028 A 
ATOM     29  C   UNL     1       3.449   1.506  -1.115  0.00  0.00    +0.005 A 
ATOM     30  C   UNL     1       3.446   2.801  -0.630  0.00  0.00    +0.000 A 
ATOM     31  C   UNL     1       2.316   3.310  -0.016  0.00  0.00    +0.002 A 
ATOM     32  C   UNL     1       1.185   2.528   0.111  0.00  0.00    +0.025 A 
ATOM     33  C   UNL     1       1.187   1.225  -0.370  0.00  0.00    +0.051 A 
ENDBRANCH  25  33
ENDBRANCH  22  25
ENDBRANCH   1  22
TORSDOF 7
