REMARK  Name = ZINC10059193
REMARK  7 active torsions:
REMARK  status: ('A' for Active; 'I' for Inactive)
REMARK    1  A    between atoms: C_4  and  C_7
REMARK    2  A    between atoms: C_7  and  C_8
REMARK    3  A    between atoms: C_8  and  N_9
REMARK    4  A    between atoms: C_16  and  C_19
REMARK    5  A    between atoms: C_16  and  O_32
REMARK    6  A    between atoms: C_19  and  C_20
REMARK    7  A    between atoms: C_20  and  C_22
REMARK                            x       y       z     vdW  Elec       q    Type
REMARK                         _______ _______ _______ _____ _____    ______ ____
ROOT
ATOM      1  N   UNL     1       1.526   2.799  -1.125  0.00  0.00    -0.268 N 
ATOM      2  C   UNL     1       0.359   2.806  -1.890  0.00  0.00    +0.043 A 
ATOM      3  C   UNL     1       0.072   3.422  -3.107  0.00  0.00    +0.025 A 
ATOM      4  C   UNL     1      -1.176   3.281  -3.677  0.00  0.00    +0.022 A 
ATOM      5  C   UNL     1      -2.152   2.530  -3.047  0.00  0.00    +0.041 A 
ATOM      6  C   UNL     1      -1.874   1.915  -1.838  0.00  0.00    +0.028 A 
ATOM      7  C   UNL     1      -0.629   2.054  -1.268  0.00  0.00    +0.016 A 
ATOM      8  C   UNL     1      -0.019   1.526   0.010  0.00  0.00    +0.175 C 
ATOM      9  C   UNL     1       1.392   2.075  -0.000  0.00  0.00    +0.257 C 
ATOM     10  O   UNL     1       2.241   1.897   0.848  0.00  0.00    -0.272 OA
ATOM     11 CL   UNL     1      -3.721   2.358  -3.770  0.00  0.00    -0.084 Cl
ENDROOT
BRANCH   8  12
ATOM     12  O   UNL     1      -0.736   2.009   1.148  0.00  0.00    -0.374 OA
ATOM     13  H   UNL     1      -0.367   1.724   1.995  0.00  0.00    +0.211 HD
ENDBRANCH   8  12
BRANCH   1  14
ATOM     14  C   UNL     1       2.756   3.498  -1.504  0.00  0.00    +0.118 C 
BRANCH  14  15
ATOM     15  C   UNL     1       3.637   2.566  -2.337  0.00  0.00    +0.054 C 
BRANCH  15  19
ATOM     16  C   UNL     1       7.224   4.605  -3.443  0.00  0.00    +0.000 A 
ATOM     17  C   UNL     1       7.174   3.884  -2.265  0.00  0.00    +0.000 A 
ATOM     18  C   UNL     1       6.013   3.224  -1.907  0.00  0.00    +0.004 A 
ATOM     19  C   UNL     1       4.902   3.285  -2.727  0.00  0.00    -0.046 A 
ATOM     20  C   UNL     1       4.954   4.003  -3.908  0.00  0.00    +0.004 A 
ATOM     21  C   UNL     1       6.113   4.667  -4.263  0.00  0.00    +0.000 A 
ENDBRANCH  15  19
ENDBRANCH  14  15
ENDBRANCH   1  14
BRANCH   8  22
ATOM     22  C   UNL     1       0.002  -0.004   0.002  0.00  0.00    +0.129 C 
BRANCH  22  23
ATOM     23  C   UNL     1       0.700  -0.504   1.241  0.00  0.00    +0.167 C 
ATOM     24  O   UNL     1       1.137   0.286   2.051  0.00  0.00    -0.292 OA
BRANCH  23  25
ATOM     25  C   UNL     1       0.850  -1.949   1.468  0.00  0.00    +0.018 A 
ATOM     26  C   UNL     1       0.335  -2.862   0.527  0.00  0.00    +0.012 A 
ATOM     27  C   UNL     1       0.467  -4.200   0.712  0.00  0.00    +0.009 A 
ATOM     28  C   UNL     1       1.114  -4.692   1.861  0.00  0.00    -0.018 A 
ATOM     29  C   UNL     1       1.257  -6.073   2.075  0.00  0.00    +0.008 A 
ATOM     30  C   UNL     1       1.887  -6.520   3.196  0.00  0.00    +0.001 A 
ATOM     31  C   UNL     1       2.396  -5.629   4.138  0.00  0.00    +0.001 A 
ATOM     32  C   UNL     1       2.278  -4.284   3.965  0.00  0.00    +0.008 A 
ATOM     33  C   UNL     1       1.632  -3.784   2.819  0.00  0.00    -0.017 A 
ATOM     34  C   UNL     1       1.493  -2.404   2.610  0.00  0.00    +0.020 A 
ENDBRANCH  23  25
ENDBRANCH  22  23
ENDBRANCH   8  22
TORSDOF 7
