REMARK  Name = ZINC09746262
REMARK  12 active torsions:
REMARK  status: ('A' for Active; 'I' for Inactive)
REMARK    1  A    between atoms: C_1  and  C_2
REMARK    2  A    between atoms: C_6  and  N_9
REMARK    3  A    between atoms: C_7  and  C_8
REMARK    4  A    between atoms: C_10  and  C_12
REMARK    5  A    between atoms: N_14  and  C_15
REMARK    6  A    between atoms: C_15  and  C_16
REMARK    7  A    between atoms: C_16  and  C_17
REMARK    8  A    between atoms: N_23  and  S_24
REMARK    9  A    between atoms: S_24  and  C_27
REMARK   10  A    between atoms: C_28  and  C_35
REMARK   11  A    between atoms: C_30  and  C_34
REMARK   12  A    between atoms: C_32  and  C_33
REMARK                            x       y       z     vdW  Elec       q    Type
REMARK                         _______ _______ _______ _____ _____    ______ ____
ROOT
ATOM      1  C   UNL     1      -2.502  -2.771  -0.126  0.00  0.00    +0.039 C 
ENDROOT
BRANCH   1   2
ATOM      2  C   UNL     1      -2.519  -4.255   0.245  0.00  0.00    +0.081 C 
ATOM      3  C   UNL     1      -3.968  -4.732   0.385  0.00  0.00    +0.021 C 
ATOM      4  C   UNL     1      -3.981  -6.245   0.619  0.00  0.00    +0.003 C 
ATOM      5  C   UNL     1      -3.352  -6.954  -0.582  0.00  0.00    +0.017 C 
ATOM      6  C   UNL     1      -1.897  -6.502  -0.733  0.00  0.00    +0.110 C 
ATOM      7  N   UNL     1      -1.863  -5.035  -0.813  0.00  0.00    -0.173 NA
BRANCH   7   8
ATOM      8  S   UNL     1      -1.102  -4.276  -2.072  0.00  0.00    +0.062 S 
ATOM      9  O   UNL     1      -0.671  -5.297  -2.961  0.00  0.00    -0.153 OA
ATOM     10  O   UNL     1      -1.956  -3.217  -2.484  0.00  0.00    -0.153 OA
BRANCH   8  11
ATOM     11  C   UNL     1       0.354  -3.525  -1.424  0.00  0.00    +0.111 A 
ATOM     12  C   UNL     1       0.487  -2.149  -1.438  0.00  0.00    -0.024 A 
ATOM     13  C   UNL     1       1.628  -1.559  -0.925  0.00  0.00    +0.008 A 
ATOM     14  C   UNL     1       2.640  -2.346  -0.408  0.00  0.00    -0.050 A 
ATOM     15  C   UNL     1       2.509  -3.722  -0.398  0.00  0.00    +0.008 A 
ATOM     16  C   UNL     1       1.366  -4.311  -0.906  0.00  0.00    -0.024 A 
ATOM     17  C   UNL     1       1.224  -5.812  -0.896  0.00  0.00    +0.046 C 
ATOM     18  C   UNL     1       3.885  -1.704   0.146  0.00  0.00    +0.044 C 
ATOM     19  C   UNL     1      -0.613  -1.291  -2.008  0.00  0.00    +0.046 C 
ENDBRANCH   8  11
ENDBRANCH   7   8
ENDBRANCH   1   2
BRANCH   1  20
ATOM     20  C   UNL     1      -3.101  -1.951   1.019  0.00  0.00    +0.106 C 
BRANCH  20  23
ATOM     21  C   UNL     1      -3.353   0.395   1.625  0.00  0.00    +0.299 C 
ATOM     22  O   UNL     1      -3.693   0.044   2.736  0.00  0.00    -0.265 OA
ATOM     23  N   UNL     1      -2.985  -0.524   0.710  0.00  0.00    -0.308 N 
ATOM     24  H   UNL     1      -2.644  -0.240  -0.152  0.00  0.00    +0.149 HD
BRANCH  21  26
ATOM     25  N   UNL     1      -3.708   2.765   2.187  0.00  0.00    -0.278 N 
ATOM     26  C   UNL     1      -3.341   1.846   1.272  0.00  0.00    +0.303 C 
ATOM     27  O   UNL     1      -2.996   2.199   0.163  0.00  0.00    -0.265 OA
ATOM     28  H   UNL     1      -4.045   2.482   3.051  0.00  0.00    +0.155 HD
BRANCH  25  34
ATOM     29  C   UNL     1      -2.829   7.365   3.680  0.00  0.00    +0.044 C 
ATOM     30  C   UNL     1      -3.179   6.380   2.595  0.00  0.00    -0.046 A 
ATOM     31  C   UNL     1      -3.398   6.823   1.303  0.00  0.00    +0.004 A 
ATOM     32  C   UNL     1      -3.719   5.922   0.304  0.00  0.00    +0.002 A 
ATOM     33  C   UNL     1      -3.823   4.576   0.594  0.00  0.00    +0.023 A 
ATOM     34  C   UNL     1      -3.604   4.127   1.891  0.00  0.00    +0.037 A 
ATOM     35  C   UNL     1      -3.287   5.036   2.893  0.00  0.00    -0.026 A 
ATOM     36  C   UNL     1      -3.055   4.554   4.302  0.00  0.00    +0.046 C 
ENDBRANCH  25  34
ENDBRANCH  21  26
ENDBRANCH  20  23
ENDBRANCH   1  20
TORSDOF 7
