REMARK  Name = ZINC09640321
REMARK  5 active torsions:
REMARK  status: ('A' for Active; 'I' for Inactive)
REMARK    1  A    between atoms: C_1  and  C_2
REMARK    2  A    between atoms: C_2  and  C_3
REMARK    3  A    between atoms: C_3  and  C_26
REMARK    4  A    between atoms: N_6  and  C_10
REMARK    5  A    between atoms: C_10  and  C_11
REMARK                            x       y       z     vdW  Elec       q    Type
REMARK                         _______ _______ _______ _____ _____    ______ ____
ROOT
ATOM      1  C   UNL     1       6.445  -0.192   0.571  0.00  0.00    +0.138 C 
ATOM      2  C   UNL     1       5.349   0.730   1.067  0.00  0.00    +0.251 C 
ATOM      3  O   UNL     1       5.066   0.978   2.220  0.00  0.00    -0.272 OA
ATOM      4  N   UNL     1       4.753   1.216  -0.040  0.00  0.00    -0.217 N 
ATOM      5  C   UNL     1       5.319   0.740  -1.154  0.00  0.00    +0.310 C 
ATOM      6  O   UNL     1       4.958   1.038  -2.276  0.00  0.00    -0.252 OA
ATOM      7  N   UNL     1       6.334  -0.105  -0.895  0.00  0.00    -0.281 N 
ATOM      8  H   UNL     1       6.884  -0.567  -1.547  0.00  0.00    +0.152 HD
ENDROOT
BRANCH   1   9
ATOM      9  C   UNL     1       6.210  -1.606   1.037  0.00  0.00    -0.015 A 
ATOM     10  C   UNL     1       6.825  -2.065   2.187  0.00  0.00    +0.007 A 
ATOM     11  C   UNL     1       6.605  -3.360   2.618  0.00  0.00    +0.020 A 
ATOM     12  C   UNL     1       5.778  -4.199   1.893  0.00  0.00    +0.041 A 
ATOM     13  C   UNL     1       5.167  -3.740   0.740  0.00  0.00    +0.020 A 
ATOM     14  C   UNL     1       5.383  -2.444   0.312  0.00  0.00    +0.007 A 
ATOM     15 CL   UNL     1       5.508  -5.828   2.430  0.00  0.00    -0.084 Cl
ENDBRANCH   1   9
BRANCH   1  17
ATOM     16  C   UNL     1       8.005   1.759   0.598  0.00  0.00    +0.007 C 
ATOM     17  C   UNL     1       7.814   0.306   1.038  0.00  0.00    +0.037 C 
ENDBRANCH   1  17
BRANCH   4  18
ATOM     18  C   UNL     1       3.629   2.155  -0.024  0.00  0.00    +0.192 C 
BRANCH  18  19
ATOM     19  C   UNL     1       2.333   1.387  -0.015  0.00  0.00    +0.129 A 
ATOM     20  N   UNL     1       1.161   2.069   0.002  0.00  0.00    -0.307 N 
ATOM     21  H   UNL     1       1.169   3.039   0.007  0.00  0.00    +0.170 HD
ATOM     22  C   UNL     1      -0.017   1.409   0.010  0.00  0.00    +0.295 A 
ATOM     23  O   UNL     1      -1.074   2.018   0.018  0.00  0.00    -0.264 OA
ATOM     24  C   UNL     1       0.002  -0.004   0.002  0.00  0.00    +0.218 A 
ATOM     25  C   UNL     1       1.238  -0.642  -0.013  0.00  0.00    +0.124 A 
ATOM     26  N   UNL     1       2.368   0.084  -0.021  0.00  0.00    -0.228 NA
ATOM     27  C   UNL     1       0.944  -2.083  -0.018  0.00  0.00    +0.046 A 
ATOM     28  C   UNL     1       1.730  -3.233  -0.032  0.00  0.00    +0.014 A 
ATOM     29  C   UNL     1       1.128  -4.472  -0.032  0.00  0.00    +0.001 A 
ATOM     30  C   UNL     1      -0.256  -4.575  -0.019  0.00  0.00    +0.004 A 
ATOM     31  C   UNL     1      -1.044  -3.445  -0.005  0.00  0.00    +0.047 A 
ATOM     32  C   UNL     1      -0.457  -2.185  -0.005  0.00  0.00    +0.138 A 
ATOM     33  O   UNL     1      -0.972  -0.938   0.007  0.00  0.00    -0.448 OA
ENDBRANCH  18  19
ENDBRANCH   4  18
TORSDOF 4
