REMARK  Name = ZINC53825752
REMARK  8 active torsions:
REMARK  status: ('A' for Active; 'I' for Inactive)
REMARK    1  A    between atoms: C_1  and  C_2
REMARK    2  A    between atoms: N_10  and  C_13
REMARK    3  A    between atoms: C_13  and  C_14
REMARK    4  A    between atoms: N_16  and  C_17
REMARK    5  A    between atoms: C_17  and  C_18
REMARK    6  A    between atoms: C_18  and  O_19
REMARK    7  A    between atoms: O_19  and  C_20
REMARK    8  A    between atoms: C_26  and  C_28
REMARK                            x       y       z     vdW  Elec       q    Type
REMARK                         _______ _______ _______ _____ _____    ______ ____
ROOT
ATOM      1  C   UNL     1      -1.327  -5.363   3.928  0.00  0.00    +0.233 C 
ATOM      2  O   UNL     1      -2.258  -4.926   3.284  0.00  0.00    -0.274 OA
ATOM      3  N   UNL     1      -1.558  -6.122   5.018  0.00  0.00    -0.312 N 
ATOM      4  H   UNL     1      -0.814  -6.471   5.532  0.00  0.00    +0.149 HD
ENDROOT
BRANCH   1   5
ATOM      5  C   UNL     1       0.087  -5.058   3.508  0.00  0.00    +0.221 C 
BRANCH   5  15
ATOM      6  C   UNL     1      -0.018   1.503   0.010  0.00  0.00    +0.044 C 
ATOM      7  C   UNL     1       0.002  -0.004   0.002  0.00  0.00    -0.050 A 
ATOM      8  C   UNL     1       0.006  -0.686  -1.208  0.00  0.00    +0.005 A 
ATOM      9  C   UNL     1       0.024  -2.062  -1.242  0.00  0.00    +0.029 A 
ATOM     10  C   UNL     1       0.040  -2.783  -0.046  0.00  0.00    +0.078 A 
ATOM     11  C   UNL     1       0.037  -2.087   1.182  0.00  0.00    +0.065 A 
ATOM     12  C   UNL     1       0.023  -0.693   1.195  0.00  0.00    +0.018 A 
ATOM     13  C   UNL     1       0.053  -2.875   2.423  0.00  0.00    +0.262 A 
ATOM     14  O   UNL     1       0.051  -2.337   3.515  0.00  0.00    -0.267 OA
ATOM     15  N   UNL     1       0.071  -4.223   2.304  0.00  0.00    -0.290 N 
ATOM     16  C   UNL     1       0.073  -4.810   1.079  0.00  0.00    +0.203 A 
ATOM     17  N   UNL     1       0.058  -4.140  -0.034  0.00  0.00    -0.237 NA
ENDBRANCH   5  15
ENDBRANCH   1   5
BRANCH   3  18
ATOM     18  C   UNL     1      -2.934  -6.418   5.426  0.00  0.00    +0.132 C 
BRANCH  18  19
ATOM     19  C   UNL     1      -2.916  -7.290   6.683  0.00  0.00    +0.179 C 
BRANCH  19  20
ATOM     20  O   UNL     1      -2.351  -6.550   7.767  0.00  0.00    -0.375 OA
BRANCH  20  21
ATOM     21  C   UNL     1      -2.288  -7.277   8.996  0.00  0.00    +0.121 C 
ATOM     22  C   UNL     1      -3.578  -7.053   9.788  0.00  0.00    +0.032 C 
ATOM     23  C   UNL     1      -3.510  -7.832  11.104  0.00  0.00    +0.003 C 
ATOM     24  C   UNL     1      -2.315  -7.343  11.925  0.00  0.00    +0.000 C 
ATOM     25  C   UNL     1      -1.026  -7.567  11.133  0.00  0.00    +0.006 C 
ATOM     26  C   UNL     1      -1.093  -6.788   9.817  0.00  0.00    +0.015 C 
ATOM     27  C   UNL     1       0.196  -7.012   9.025  0.00  0.00    +0.010 C 
ENDBRANCH  20  21
ENDBRANCH  19  20
ENDBRANCH  18  19
ENDBRANCH   3  18
TORSDOF 6
