REMARK  Name = ZINC39792265
REMARK  12 active torsions:
REMARK  status: ('A' for Active; 'I' for Inactive)
REMARK    1  A    between atoms: C_1  and  C_2
REMARK    2  A    between atoms: C_2  and  C_4
REMARK    3  A    between atoms: C_2  and  S_15
REMARK    4  A    between atoms: N_6  and  N_7
REMARK    5  A    between atoms: C_8  and  O_10
REMARK    6  A    between atoms: O_10  and  C_11
REMARK    7  A    between atoms: C_11  and  C_12
REMARK    8  A    between atoms: C_11  and  C_13
REMARK    9  A    between atoms: C_11  and  C_14
REMARK   10  A    between atoms: S_15  and  C_16
REMARK   11  A    between atoms: C_16  and  C_17
REMARK   12  A    between atoms: C_22  and  C_27
REMARK                            x       y       z     vdW  Elec       q    Type
REMARK                         _______ _______ _______ _____ _____    ______ ____
ROOT
ATOM      1  C   UNL     1      -2.354  -0.095   1.619  0.00  0.00    +0.143 C 
ENDROOT
BRANCH   1   2
ATOM      2  C   UNL     1      -3.781  -0.557   1.761  0.00  0.00    +0.133 C 
ATOM      3  N   UNL     1      -4.314  -1.242   0.777  0.00  0.00    -0.160 NA
ATOM      4  C   UNL     1      -5.571  -1.694   0.811  0.00  0.00    +0.272 C 
ATOM      5  O   UNL     1      -6.037  -2.329  -0.122  0.00  0.00    -0.268 OA
ATOM      6  C   UNL     1      -6.387  -1.401   2.025  0.00  0.00    +0.075 C 
ATOM      7  C   UNL     1      -7.688  -1.759   2.286  0.00  0.00    -0.015 C 
ATOM      8  C   UNL     1      -8.269  -1.323   3.612  0.00  0.00    +0.112 C 
ATOM      9  S   UNL     1      -6.856  -0.423   4.368  0.00  0.00    -0.100 S 
ATOM     10  C   UNL     1      -5.679  -0.628   3.056  0.00  0.00    +0.112 C 
ATOM     11  N   UNL     1      -4.431  -0.258   2.873  0.00  0.00    -0.227 NA
BRANCH   7  12
ATOM     12  C   UNL     1      -8.476  -2.528   1.323  0.00  0.00    -0.020 A 
ATOM     13  C   UNL     1      -8.802  -1.974   0.075  0.00  0.00    +0.008 A 
ATOM     14  C   UNL     1      -9.544  -2.706  -0.825  0.00  0.00    +0.001 A 
ATOM     15  C   UNL     1      -9.969  -3.984  -0.502  0.00  0.00    +0.000 A 
ATOM     16  C   UNL     1      -9.654  -4.539   0.727  0.00  0.00    +0.001 A 
ATOM     17  C   UNL     1      -8.907  -3.825   1.638  0.00  0.00    +0.008 A 
ENDBRANCH   7  12
ENDBRANCH   1   2
BRANCH   1  18
ATOM     18  S   UNL     1      -1.700  -0.632   0.015  0.00  0.00    -0.141 S 
BRANCH  18  20
ATOM     19  C   UNL     1      -0.019   1.526   0.010  0.00  0.00    +0.029 C 
ATOM     20  C   UNL     1       0.002  -0.004   0.002  0.00  0.00    +0.131 C 
BRANCH  20  21
ATOM     21  C   UNL     1       0.707  -0.490  -1.238  0.00  0.00    +0.242 C 
ATOM     22  O   UNL     1       0.066  -0.782  -2.225  0.00  0.00    -0.273 OA
ATOM     23  N   UNL     1       2.051  -0.601  -1.250  0.00  0.00    -0.231 N 
ATOM     24  H   UNL     1       2.563  -0.367  -0.460  0.00  0.00    +0.173 HD
BRANCH  23  25
ATOM     25  N   UNL     1       2.706  -1.052  -2.402  0.00  0.00    -0.200 N 
ATOM     26  C   UNL     1       4.050  -1.163  -2.414  0.00  0.00    +0.417 C 
ATOM     27  O   UNL     1       4.618  -1.555  -3.413  0.00  0.00    -0.225 OA
ATOM     28  H   UNL     1       2.194  -1.286  -3.192  0.00  0.00    +0.176 HD
BRANCH  26  29
ATOM     29  O   UNL     1       4.761  -0.839  -1.318  0.00  0.00    -0.444 OA
BRANCH  29  30
ATOM     30  C   UNL     1       6.181  -0.980  -1.401  0.00  0.00    +0.107 C 
ATOM     31  C   UNL     1       6.718  -0.085  -2.519  0.00  0.00    +0.055 C 
ATOM     32  C   UNL     1       6.813  -0.569  -0.070  0.00  0.00    +0.055 C 
ATOM     33  C   UNL     1       6.531  -2.439  -1.702  0.00  0.00    +0.055 C 
ENDBRANCH  29  30
ENDBRANCH  26  29
ENDBRANCH  23  25
ENDBRANCH  20  21
ENDBRANCH  18  20
ENDBRANCH   1  18
TORSDOF 8
