REMARK  Name = ZINC66561511
REMARK  6 active torsions:
REMARK  status: ('A' for Active; 'I' for Inactive)
REMARK    1  A    between atoms: C_1  and  C_2
REMARK    2  A    between atoms: N_5  and  C_9
REMARK    3  A    between atoms: N_12  and  C_15
REMARK    4  A    between atoms: C_15  and  C_16
REMARK    5  A    between atoms: N_18  and  C_19
REMARK    6  A    between atoms: C_20  and  C_24
REMARK                            x       y       z     vdW  Elec       q    Type
REMARK                         _______ _______ _______ _____ _____    ______ ____
ROOT
ATOM      1  C   UNL     1       1.771  -4.740  -6.041  0.00  0.00    +0.019 C 
ENDROOT
BRANCH   1   5
ATOM      2  C   UNL     1       1.439  -2.486  -2.440  0.00  0.00    +0.053 C 
ATOM      3  C   UNL     1       0.609  -2.080  -3.662  0.00  0.00    +0.000 C 
ATOM      4  C   UNL     1       1.230  -2.692  -4.919  0.00  0.00    -0.077 C 
ATOM      5  N   UNL     1       1.246  -4.155  -4.800  0.00  0.00    +0.385 N 
ATOM      6  C   UNL     1       2.098  -4.554  -3.674  0.00  0.00    -0.077 C 
ATOM      7  C   UNL     1       1.510  -4.014  -2.368  0.00  0.00    +0.000 C 
ATOM      8  H   UNL     1       0.306  -4.488  -4.645  0.00  0.00    -0.081 HD
BRANCH   2  12
ATOM      9  C   UNL     1      -0.019   1.526   0.010  0.00  0.00    +0.039 C 
ATOM     10  C   UNL     1       0.002  -0.004   0.002  0.00  0.00    +0.129 C 
ATOM     11  C   UNL     1       0.720  -0.499  -1.256  0.00  0.00    +0.116 C 
ATOM     12  N   UNL     1       0.805  -1.966  -1.221  0.00  0.00    -0.295 NA
ATOM     13  C   UNL     1       1.523  -2.417  -0.020  0.00  0.00    +0.113 C 
ATOM     14  C   UNL     1       0.797  -1.904   1.226  0.00  0.00    +0.175 C 
ATOM     15  O   UNL     1       0.695  -0.479   1.159  0.00  0.00    -0.374 OA
ENDBRANCH   2  12
ENDBRANCH   1   5
BRANCH   1  16
ATOM     16  C   UNL     1       1.673  -6.242  -5.969  0.00  0.00    +0.201 C 
ATOM     17  O   UNL     1       1.211  -6.773  -4.981  0.00  0.00    -0.278 OA
ATOM     18  N   UNL     1       2.098  -6.996  -7.002  0.00  0.00    -0.281 N 
ATOM     19  H   UNL     1       2.467  -6.571  -7.792  0.00  0.00    +0.155 HD
BRANCH  18  20
ATOM     20  C   UNL     1       2.008  -8.378  -6.935  0.00  0.00    +0.084 A 
ATOM     21  C   UNL     1       2.398  -9.305  -7.891  0.00  0.00    +0.065 A 
ATOM     22  C   UNL     1       2.190 -10.697  -7.563  0.00  0.00    +0.022 A 
ATOM     23  C   UNL     1       1.638 -10.940  -6.360  0.00  0.00    +0.048 A 
ATOM     24  S   UNL     1       1.410  -9.313  -5.677  0.00  0.00    -0.081 S 
BRANCH  21  25
ATOM     25  C   UNL     1       2.990  -8.893  -9.168  0.00  0.00    +0.244 C 
ATOM     26  O   UNL     1       3.150  -7.712  -9.411  0.00  0.00    -0.270 OA
ATOM     27  N   UNL     1       3.356  -9.824 -10.072  0.00  0.00    -0.325 N 
ATOM     28  H   UNL     1       3.228 -10.765  -9.877  0.00  0.00    +0.145 HD
ATOM     29  H   UNL     1       3.748  -9.552 -10.916  0.00  0.00    +0.145 HD
ENDBRANCH  21  25
ENDBRANCH  18  20
ENDBRANCH   1  16
TORSDOF 5
