REMARK  Name = ZINC16064556
REMARK  6 active torsions:
REMARK  status: ('A' for Active; 'I' for Inactive)
REMARK    1  A    between atoms: C_1  and  C_2
REMARK    2  A    between atoms: C_2  and  C_4
REMARK    3  A    between atoms: C_2  and  O_20
REMARK    4  A    between atoms: N_6  and  N_7
REMARK    5  A    between atoms: C_8  and  C_10
REMARK    6  A    between atoms: O_20  and  C_21
REMARK                            x       y       z     vdW  Elec       q    Type
REMARK                         _______ _______ _______ _____ _____    ______ ____
ROOT
ATOM      1  C   UNL     1       3.361  10.062  -0.224  0.00  0.00    +0.270 C 
ATOM      2  O   UNL     1       2.201  10.381  -0.382  0.00  0.00    -0.270 OA
ATOM      3  N   UNL     1       3.714   8.762  -0.275  0.00  0.00    -0.231 N 
ATOM      4  H   UNL     1       4.641   8.507  -0.148  0.00  0.00    +0.173 HD
ENDROOT
BRANCH   3   5
ATOM      5  N   UNL     1       2.743   7.780  -0.509  0.00  0.00    -0.230 N 
ATOM      6  C   UNL     1       3.097   6.481  -0.559  0.00  0.00    +0.268 C 
ATOM      7  O   UNL     1       4.260   6.160  -0.401  0.00  0.00    -0.268 OA
ATOM      8  H   UNL     1       1.816   8.036  -0.636  0.00  0.00    +0.173 HD
BRANCH   6   9
ATOM      9  C   UNL     1       2.079   5.452  -0.805  0.00  0.00    +0.095 A 
ATOM     10  C   UNL     1       2.239   4.103  -0.890  0.00  0.00    +0.068 A 
ATOM     11  C   UNL     1       1.125   3.278  -1.134  0.00  0.00    +0.008 A 
ATOM     12  C   UNL     1       1.088   1.865  -1.255  0.00  0.00    +0.010 A 
ATOM     13  C   UNL     1      -0.082   1.219  -1.493  0.00  0.00    +0.001 A 
ATOM     14  C   UNL     1      -1.280   1.908  -1.632  0.00  0.00    +0.001 A 
ATOM     15  C   UNL     1      -1.291   3.283  -1.516  0.00  0.00    +0.016 A 
ATOM     16  C   UNL     1      -0.110   3.954  -1.275  0.00  0.00    +0.021 A 
ATOM     17  S   UNL     1       0.326   5.662  -1.066  0.00  0.00    -0.082 S 
ATOM     18 CL   UNL     1       3.816   3.401  -0.699  0.00  0.00    -0.082 Cl
ENDBRANCH   6   9
ENDBRANCH   3   5
BRANCH   1  20
ATOM     19  C   UNL     1       5.392  11.149  -1.141  0.00  0.00    +0.062 C 
ATOM     20  C   UNL     1       4.405  11.118   0.028  0.00  0.00    +0.257 C 
BRANCH  20  21
ATOM     21  O   UNL     1       3.773  12.394   0.151  0.00  0.00    -0.480 OA
BRANCH  21  22
ATOM     22  C   UNL     1       4.434  13.344   0.865  0.00  0.00    +0.122 A 
ATOM     23  C   UNL     1       5.711  13.089   1.344  0.00  0.00    +0.048 A 
ATOM     24  C   UNL     1       6.384  14.057   2.064  0.00  0.00    +0.042 A 
ATOM     25  C   UNL     1       5.780  15.277   2.316  0.00  0.00    +0.124 A 
ATOM     26  C   UNL     1       4.503  15.531   1.844  0.00  0.00    +0.042 A 
ATOM     27  C   UNL     1       3.831  14.566   1.119  0.00  0.00    +0.048 A 
ATOM     28  F   UNL     1       6.437  16.222   3.024  0.00  0.00    -0.205 F 
ENDBRANCH  21  22
ENDBRANCH  20  21
ENDBRANCH   1  20
TORSDOF 5
