REMARK  Name = ZINC02195623
REMARK  7 active torsions:
REMARK  status: ('A' for Active; 'I' for Inactive)
REMARK    1  A    between atoms: C_1  and  C_2
REMARK    2  A    between atoms: C_3  and  N_9
REMARK    3  A    between atoms: C_10  and  C_12
REMARK    4  A    between atoms: C_12  and  S_13
REMARK    5  A    between atoms: S_13  and  C_14
REMARK    6  A    between atoms: C_17  and  C_20
REMARK    7  A    between atoms: N_18  and  N_19
REMARK                            x       y       z     vdW  Elec       q    Type
REMARK                         _______ _______ _______ _____ _____    ______ ____
ROOT
ATOM      1  C   UNL     1       0.611   0.022  -0.153  0.00  0.00    +0.209 A 
ATOM      2  N   UNL     1       1.676  -0.748  -0.162  0.00  0.00    -0.121 NA
ATOM      3  N   UNL     1       1.327  -1.984  -0.207  0.00  0.00    -0.127 NA
ATOM      4  C   UNL     1       0.018  -2.079  -0.238  0.00  0.00    +0.182 A 
ATOM      5  N   UNL     1      -0.481  -0.797  -0.204  0.00  0.00    -0.224 N 
ENDROOT
BRANCH   4   6
ATOM      6  C   UNL     1      -0.770  -3.328  -0.297  0.00  0.00    +0.021 A 
ATOM      7  C   UNL     1      -0.182  -4.545   0.050  0.00  0.00    +0.014 A 
ATOM      8  C   UNL     1      -0.923  -5.707  -0.004  0.00  0.00    +0.039 A 
ATOM      9  C   UNL     1      -2.248  -5.668  -0.411  0.00  0.00    +0.123 A 
ATOM     10  C   UNL     1      -2.835  -4.463  -0.762  0.00  0.00    +0.039 A 
ATOM     11  C   UNL     1      -2.104  -3.295  -0.707  0.00  0.00    +0.014 A 
ATOM     12  F   UNL     1      -2.968  -6.810  -0.467  0.00  0.00    -0.205 F 
ENDBRANCH   4   6
BRANCH   5  13
ATOM     13  N   UNL     1      -1.794  -0.423  -0.218  0.00  0.00    -0.295 N 
ATOM     14  H   UNL     1      -2.104  -0.227  -1.158  0.00  0.00    +0.163 HD
ATOM     15  H   UNL     1      -2.375  -1.124   0.215  0.00  0.00    +0.163 HD
ENDBRANCH   5  13
BRANCH   1  16
ATOM     16  S   UNL     1       0.594   1.783  -0.093  0.00  0.00    -0.075 S 
BRANCH  16  17
ATOM     17  C   UNL     1       2.373   2.113  -0.044  0.00  0.00    +0.173 C 
BRANCH  17  19
ATOM     18  N   UNL     1       3.864   4.084   0.055  0.00  0.00    -0.285 N 
ATOM     19  C   UNL     1       2.607   3.600   0.012  0.00  0.00    +0.227 C 
ATOM     20  O   UNL     1       1.663   4.363   0.018  0.00  0.00    -0.275 OA
ATOM     21  H   UNL     1       4.619   3.478  -0.008  0.00  0.00    +0.155 HD
BRANCH  18  24
ATOM     22  C   UNL     1       6.115   4.948   1.566  0.00  0.00    +0.047 C 
ATOM     23  C   UNL     1       5.167   5.925   0.919  0.00  0.00    -0.011 A 
ATOM     24  C   UNL     1       4.080   5.460   0.190  0.00  0.00    +0.038 A 
ATOM     25  C   UNL     1       3.206   6.363  -0.400  0.00  0.00    +0.023 A 
ATOM     26  C   UNL     1       3.421   7.721  -0.265  0.00  0.00    +0.003 A 
ATOM     27  C   UNL     1       4.506   8.181   0.457  0.00  0.00    +0.020 A 
ATOM     28  C   UNL     1       5.381   7.284   1.046  0.00  0.00    +0.046 A 
ATOM     29 CL   UNL     1       6.743   7.867   1.951  0.00  0.00    -0.083 Cl
ENDBRANCH  18  24
ENDBRANCH  17  19
ENDBRANCH  16  17
ENDBRANCH   1  16
TORSDOF 6
