REMARK  Name = ZINC11846231
REMARK  6 active torsions:
REMARK  status: ('A' for Active; 'I' for Inactive)
REMARK    1  A    between atoms: C_1  and  N_2
REMARK    2  A    between atoms: C_6  and  C_7
REMARK    3  A    between atoms: C_7  and  C_9
REMARK    4  A    between atoms: C_7  and  N_51
REMARK    5  A    between atoms: C_9  and  N_10
REMARK    6  A    between atoms: C_11  and  C_13
REMARK                            x       y       z     vdW  Elec       q    Type
REMARK                         _______ _______ _______ _____ _____    ______ ____
ROOT
ATOM      1  C   UNL     1      -0.741  -1.766   1.478  0.00  0.00    -0.003 C 
ENDROOT
BRANCH   1   8
ATOM      2  C   UNL     1      -0.033   0.288   0.395  0.00  0.00    -0.078 C 
ATOM      3  C   UNL     1       0.093   1.739   0.787  0.00  0.00    -0.019 C 
ATOM      4  C   UNL     1       1.546   2.231   0.681  0.00  0.00    -0.002 C 
ATOM      5  C   UNL     1       2.550   1.181   1.199  0.00  0.00    -0.002 C 
ATOM      6  C   UNL     1       2.079   0.502   2.460  0.00  0.00    -0.019 C 
ATOM      7  C   UNL     1       1.326  -0.792   2.083  0.00  0.00    -0.078 C 
ATOM      8  N   UNL     1       0.000  -0.504   1.664  0.00  0.00    +0.386 N 
ATOM      9  H   UNL     1      -0.458   0.045   2.401  0.00  0.00    -0.081 HD
ENDBRANCH   1   8
BRANCH   1  15
ATOM     10  C   UNL     1      -2.073  -4.503   2.067  0.00  0.00    +0.148 C 
ATOM     11  N   UNL     1      -1.579  -3.571   3.084  0.00  0.00    -0.355 N 
ATOM     12  C   UNL     1      -1.627  -3.768   4.432  0.00  0.00    +0.085 A 
ATOM     13  C   UNL     1      -1.083  -2.692   5.035  0.00  0.00    +0.019 A 
ATOM     14  C   UNL     1      -0.679  -1.800   4.022  0.00  0.00    +0.021 A 
ATOM     15  C   UNL     1      -0.991  -2.366   2.838  0.00  0.00    +0.006 A 
ENDBRANCH   1  15
BRANCH   1  16
ATOM     16  C   UNL     1       0.047  -2.759   0.620  0.00  0.00    +0.095 C 
BRANCH  16  17
ATOM     17  N   UNL     1       0.250  -2.194  -0.716  0.00  0.00    -0.312 N 
ATOM     18  C   UNL     1       1.030  -2.838  -1.608  0.00  0.00    +0.245 C 
ATOM     19  O   UNL     1       1.564  -3.886  -1.303  0.00  0.00    -0.270 OA
ATOM     20  H   UNL     1      -0.176  -1.357  -0.960  0.00  0.00    +0.149 HD
BRANCH  18  21
ATOM     21  C   UNL     1       1.235  -2.268  -2.956  0.00  0.00    +0.056 A 
ATOM     22  C   UNL     1       0.619  -1.067  -3.311  0.00  0.00    +0.029 A 
ATOM     23  C   UNL     1       0.819  -0.539  -4.570  0.00  0.00    +0.019 A 
ATOM     24  C   UNL     1       1.621  -1.202  -5.484  0.00  0.00    +0.017 A 
ATOM     25  C   UNL     1       2.230  -2.395  -5.141  0.00  0.00    +0.022 A 
ATOM     26  C   UNL     1       2.043  -2.933  -3.882  0.00  0.00    +0.053 A 
ATOM     27 CL   UNL     1       2.809  -4.430  -3.453  0.00  0.00    -0.083 Cl
ATOM     28 BR   UNL     1      -0.009   1.092  -5.051  0.00  0.00    -0.050 Br
ENDBRANCH  18  21
ENDBRANCH  16  17
ENDBRANCH   1  16
TORSDOF 5
