REMARK  Name = ZINC12877165
REMARK  7 active torsions:
REMARK  status: ('A' for Active; 'I' for Inactive)
REMARK    1  A    between atoms: C_1  and  C_2
REMARK    2  A    between atoms: C_7  and  C_8
REMARK    3  A    between atoms: C_8  and  C_9
REMARK    4  A    between atoms: C_9  and  N_10
REMARK    5  A    between atoms: C_11  and  C_13
REMARK    6  A    between atoms: C_13  and  C_15
REMARK    7  A    between atoms: C_13  and  N_16
REMARK                            x       y       z     vdW  Elec       q    Type
REMARK                         _______ _______ _______ _____ _____    ______ ____
ROOT
ATOM      1  C   UNL     1       4.707   4.633  -0.017  0.00  0.00    +0.155 C 
ATOM      2  C   UNL     1       5.024   5.053   1.420  0.00  0.00    +0.038 C 
ENDROOT
BRANCH   1   3
ATOM      3  N   UNL     1       3.598   3.675  -0.012  0.00  0.00    -0.316 N 
ATOM      4  C   UNL     1       2.297   4.128   0.003  0.00  0.00    +0.150 C 
ATOM      5  N   UNL     1       2.045   5.398   0.012  0.00  0.00    -0.113 NA
ATOM      6  S   UNL     1       0.377   5.534   0.029  0.00  0.00    +0.101 S 
ATOM      7  O   UNL     1      -0.024   6.089  -1.216  0.00  0.00    -0.146 OA
ATOM      8  O   UNL     1      -0.002   6.075   1.287  0.00  0.00    -0.146 OA
ATOM      9  C   UNL     1      -0.067   3.819   0.023  0.00  0.00    +0.123 A 
ATOM     10  C   UNL     1       1.177   3.173   0.008  0.00  0.00    +0.043 A 
ATOM     11  C   UNL     1       1.177   1.770   0.000  0.00  0.00    +0.013 A 
ATOM     12  C   UNL     1      -0.013   1.076   0.008  0.00  0.00    +0.001 A 
ATOM     13  C   UNL     1      -1.226   1.741   0.017  0.00  0.00    +0.002 A 
ATOM     14  C   UNL     1      -1.244   3.129   0.031  0.00  0.00    +0.030 A 
ATOM     15  H   UNL     1       3.780   2.722  -0.018  0.00  0.00    +0.148 HD
ENDBRANCH   1   3
BRANCH   1  17
ATOM     16  N   UNL     1       7.071   4.688  -0.742  0.00  0.00    -0.313 N 
ATOM     17  C   UNL     1       5.923   3.990  -0.632  0.00  0.00    +0.233 C 
ATOM     18  O   UNL     1       5.869   2.845  -1.027  0.00  0.00    -0.274 OA
ATOM     19  H   UNL     1       7.114   5.604  -0.426  0.00  0.00    +0.149 HD
BRANCH  16  20
ATOM     20  C   UNL     1       8.253   4.063  -1.340  0.00  0.00    +0.109 C 
BRANCH  20  21
ATOM     21  C   UNL     1       9.411   5.063  -1.346  0.00  0.00    +0.054 C 
BRANCH  21  28
ATOM     22  C   UNL     1       9.755   5.072  -4.214  0.00  0.00    +0.044 C 
ATOM     23  C   UNL     1      10.792   4.424  -3.333  0.00  0.00    -0.047 A 
ATOM     24  C   UNL     1      11.908   3.835  -3.897  0.00  0.00    +0.003 A 
ATOM     25  C   UNL     1      12.859   3.241  -3.089  0.00  0.00    +0.000 A 
ATOM     26  C   UNL     1      12.694   3.237  -1.716  0.00  0.00    +0.000 A 
ATOM     27  C   UNL     1      11.581   3.831  -1.152  0.00  0.00    +0.004 A 
ATOM     28  C   UNL     1      10.627   4.420  -1.961  0.00  0.00    -0.043 A 
ENDBRANCH  21  28
ENDBRANCH  20  21
ENDBRANCH  16  20
ENDBRANCH   1  17
TORSDOF 5
