REMARK  Name = ZINC09144580
REMARK  13 active torsions:
REMARK  status: ('A' for Active; 'I' for Inactive)
REMARK    1  A    between atoms: C_1  and  C_2
REMARK    2  A    between atoms: C_2  and  C_3
REMARK    3  A    between atoms: C_3  and  C_5
REMARK    4  A    between atoms: C_3  and  C_6
REMARK    5  A    between atoms: C_9  and  O_12
REMARK    6  A    between atoms: O_12  and  C_13
REMARK    7  A    between atoms: C_13  and  C_14
REMARK    8  A    between atoms: C_14  and  O_15
REMARK    9  A    between atoms: O_15  and  C_16
REMARK   10  A    between atoms: C_21  and  C_22
REMARK   11  A    between atoms: C_32  and  C_34
REMARK   12  A    between atoms: C_34  and  C_35
REMARK   13  A    between atoms: C_34  and  C_36
REMARK                            x       y       z     vdW  Elec       q    Type
REMARK                         _______ _______ _______ _____ _____    ______ ____
ROOT
ATOM      1  C   UNL     1      -2.511 -10.350  -0.144  0.00  0.00    +0.128 A 
ATOM      2  C   UNL     1      -1.698 -11.244  -0.822  0.00  0.00    +0.047 A 
ATOM      3  C   UNL     1      -1.488 -12.512  -0.316  0.00  0.00    +0.023 A 
ATOM      4  C   UNL     1      -2.086 -12.903   0.874  0.00  0.00    +0.042 A 
ATOM      5  C   UNL     1      -2.897 -12.030   1.564  0.00  0.00    +0.031 A 
ATOM      6  C   UNL     1      -3.116 -10.738   1.065  0.00  0.00    +0.019 A 
ATOM      7 CL   UNL     1      -1.810 -14.500   1.495  0.00  0.00    -0.084 Cl
ENDROOT
BRANCH   6   8
ATOM      8  C   UNL     1      -3.972  -9.801   1.795  0.00  0.00    +0.028 C 
ATOM      9  C   UNL     1      -5.138 -10.245   2.378  0.00  0.00    +0.081 C 
ATOM     10  C   UNL     1      -5.955  -9.369   3.266  0.00  0.00    +0.153 C 
ATOM     11  N   UNL     1      -6.054  -8.077   3.104  0.00  0.00    -0.283 NA
ATOM     12  N   UNL     1      -6.610 -10.074   4.298  0.00  0.00    -0.152 N 
ATOM     13  C   UNL     1      -6.844 -11.418   4.102  0.00  0.00    +0.181 C 
ATOM     14  N   UNL     1      -6.445 -12.160   3.099  0.00  0.00    -0.152 NA
ATOM     15  C   UNL     1      -5.652 -11.618   2.151  0.00  0.00    +0.273 C 
ATOM     16  O   UNL     1      -5.362 -12.238   1.141  0.00  0.00    -0.268 OA
ATOM     17  S   UNL     1      -7.781 -11.846   5.545  0.00  0.00    -0.038 S 
ATOM     18  C   UNL     1      -7.711 -10.252   6.351  0.00  0.00    +0.102 C 
ATOM     19  N   UNL     1      -7.051  -9.535   5.488  0.00  0.00    -0.169 NA
ATOM     20  H   UNL     1      -6.600  -7.553   3.711  0.00  0.00    +0.188 HD
BRANCH  18  21
ATOM     21  C   UNL     1      -8.274  -9.843   7.688  0.00  0.00    +0.040 C 
ATOM     22  C   UNL     1      -7.275 -10.195   8.791  0.00  0.00    +0.014 C 
ATOM     23  C   UNL     1      -8.529  -8.334   7.693  0.00  0.00    +0.014 C 
ENDBRANCH  18  21
ENDBRANCH   6   8
BRANCH   1  24
ATOM     24  O   UNL     1      -2.717  -9.105  -0.640  0.00  0.00    -0.488 OA
BRANCH  24  25
ATOM     25  C   UNL     1      -2.070  -8.782  -1.873  0.00  0.00    +0.270 C 
BRANCH  25  26
ATOM     26  C   UNL     1      -2.419  -7.347  -2.272  0.00  0.00    +0.270 C 
BRANCH  26  27
ATOM     27  O   UNL     1      -1.875  -6.440  -1.311  0.00  0.00    -0.489 OA
BRANCH  27  31
ATOM     28  C   UNL     1      -2.543  -2.418  -1.942  0.00  0.00    -0.044 A 
ATOM     29  C   UNL     1      -1.821  -2.833  -0.838  0.00  0.00    +0.007 A 
ATOM     30  C   UNL     1      -1.595  -4.179  -0.625  0.00  0.00    +0.046 A 
ATOM     31  C   UNL     1      -2.095  -5.115  -1.518  0.00  0.00    +0.121 A 
ATOM     32  C   UNL     1      -2.820  -4.697  -2.625  0.00  0.00    +0.046 A 
ATOM     33  C   UNL     1      -3.047  -3.349  -2.831  0.00  0.00    +0.007 A 
BRANCH  28  34
ATOM     34  C   UNL     1      -2.787  -0.949  -2.173  0.00  0.00    +0.016 C 
ATOM     35  C   UNL     1      -3.551  -0.366  -0.983  0.00  0.00    +0.012 C 
BRANCH  34  37
ATOM     36  C   UNL     1      -1.694   1.240  -2.679  0.00  0.00    +0.004 C 
ATOM     37  C   UNL     1      -1.446  -0.227  -2.321  0.00  0.00    +0.004 C 
ENDBRANCH  34  37
ENDBRANCH  28  34
ENDBRANCH  27  31
ENDBRANCH  26  27
ENDBRANCH  25  26
ENDBRANCH  24  25
ENDBRANCH   1  24
TORSDOF 9
