REMARK  Name = ZINC49543763
REMARK  9 active torsions:
REMARK  status: ('A' for Active; 'I' for Inactive)
REMARK    1  A    between atoms: C_1  and  C_2
REMARK    2  A    between atoms: C_2  and  C_3
REMARK    3  A    between atoms: C_2  and  C_4
REMARK    4  A    between atoms: C_2  and  C_5
REMARK    5  A    between atoms: C_11  and  C_13
REMARK    6  A    between atoms: C_13  and  C_14
REMARK    7  A    between atoms: C_14  and  C_15
REMARK    8  A    between atoms: C_15  and  C_16
REMARK    9  A    between atoms: C_16  and  C_17
REMARK                            x       y       z     vdW  Elec       q    Type
REMARK                         _______ _______ _______ _____ _____    ______ ____
ROOT
ATOM      1  C   UNL     1       0.328  -2.944  -6.753  0.00  0.00    +0.096 C 
ENDROOT
BRANCH   1   8
ATOM      2  C   UNL     1       0.707  -0.490  -1.238  0.00  0.00    +0.056 A 
ATOM      3  C   UNL     1       2.057  -0.430  -1.354  0.00  0.00    +0.072 A 
ATOM      4  S   UNL     1       2.282  -1.127  -2.983  0.00  0.00    -0.060 S 
ATOM      5  C   UNL     1       0.662  -1.416  -3.337  0.00  0.00    +0.165 A 
ATOM      6  N   UNL     1       0.039  -0.999  -2.257  0.00  0.00    -0.229 NA
ATOM      7  N   UNL     1       0.116  -1.968  -4.490  0.00  0.00    -0.265 N 
ATOM      8  C   UNL     1       0.920  -2.346  -5.503  0.00  0.00    +0.219 C 
ATOM      9  O   UNL     1       2.121  -2.206  -5.409  0.00  0.00    -0.275 OA
ATOM     10  H   UNL     1      -0.845  -2.080  -4.566  0.00  0.00    +0.157 HD
BRANCH   2  12
ATOM     11  C   UNL     1      -0.019   1.526   0.010  0.00  0.00    +0.017 C 
ATOM     12  C   UNL     1       0.002  -0.004   0.002  0.00  0.00    +0.005 C 
ATOM     13  C   UNL     1       0.742  -0.511   1.242  0.00  0.00    +0.017 C 
ATOM     14  C   UNL     1      -1.433  -0.534   0.013  0.00  0.00    +0.017 C 
ENDBRANCH   2  12
ENDBRANCH   1   8
BRANCH   1  15
ATOM     15  C   UNL     1       1.449  -3.284  -7.737  0.00  0.00    +0.009 C 
BRANCH  15  16
ATOM     16  C   UNL     1       0.848  -3.891  -9.006  0.00  0.00    +0.002 C 
BRANCH  16  17
ATOM     17  C   UNL     1       1.969  -4.231  -9.990  0.00  0.00    +0.016 C 
BRANCH  17  18
ATOM     18  C   UNL     1       1.367  -4.838 -11.259  0.00  0.00    +0.069 C 
ATOM     19  C   UNL     1       2.466  -5.155 -12.296  0.00  0.00    +0.108 C 
ATOM     20  C   UNL     1       2.250  -6.480 -13.035  0.00  0.00    +0.105 C 
ATOM     21  C   UNL     1       0.982  -7.239 -12.589  0.00  0.00    +0.093 C 
ATOM     22  S   UNL     1       0.680  -6.518 -10.928  0.00  0.00    -0.154 S 
ATOM     23  N   UNL     1       3.431  -7.283 -12.681  0.00  0.00    -0.294 N 
ATOM     24  C   UNL     1       4.220  -6.565 -11.870  0.00  0.00    +0.300 C 
ATOM     25  O   UNL     1       5.269  -6.986 -11.421  0.00  0.00    -0.253 OA
ATOM     26  N   UNL     1       3.746  -5.351 -11.597  0.00  0.00    -0.294 N 
ATOM     27  H   UNL     1       3.610  -8.186 -12.985  0.00  0.00    +0.151 HD
ATOM     28  H   UNL     1       4.181  -4.698 -11.026  0.00  0.00    +0.151 HD
ENDBRANCH  17  18
ENDBRANCH  16  17
ENDBRANCH  15  16
ENDBRANCH   1  15
TORSDOF 6
