REMARK  Name = ZINC37711254
REMARK  5 active torsions:
REMARK  status: ('A' for Active; 'I' for Inactive)
REMARK    1  A    between atoms: C_5  and  O_9
REMARK    2  A    between atoms: C_6  and  C_7
REMARK    3  A    between atoms: C_7  and  N_8
REMARK    4  A    between atoms: O_9  and  C_10
REMARK    5  A    between atoms: C_16  and  O_18
REMARK                            x       y       z     vdW  Elec       q    Type
REMARK                         _______ _______ _______ _____ _____    ______ ____
ROOT
ATOM      1  C   UNL     1       0.085   1.365   0.066  0.00  0.00    +0.025 A 
ATOM      2  C   UNL     1       1.244   2.072  -0.206  0.00  0.00    +0.043 A 
ATOM      3  C   UNL     1       2.434   1.399  -0.413  0.00  0.00    +0.043 A 
ATOM      4  C   UNL     1       2.469   0.018  -0.348  0.00  0.00    +0.084 A 
ATOM      5  C   UNL     1       1.308  -0.692  -0.075  0.00  0.00    +0.141 A 
ATOM      6  C   UNL     1       0.116  -0.015   0.132  0.00  0.00    -0.020 A 
ATOM      7 CL   UNL     1       3.964  -0.826  -0.608  0.00  0.00    -0.080 Cl
ATOM      8 CL   UNL     1       1.202   3.805  -0.289  0.00  0.00    -0.083 Cl
ENDROOT
BRANCH   6   9
ATOM      9  C   UNL     1      -1.146  -0.783   0.428  0.00  0.00    -0.047 C 
BRANCH   9  10
ATOM     10  N   UNL     1      -1.212  -1.080   1.866  0.00  0.00    +0.381 N 
ATOM     11  H   UNL     1      -2.011  -1.667   2.052  0.00  0.00    -0.090 HD
ATOM     12  H   UNL     1      -0.370  -1.558   2.150  0.00  0.00    -0.090 HD
ATOM     13  H   UNL     1      -1.300  -0.218   2.383  0.00  0.00    -0.090 HD
ENDBRANCH   9  10
ENDBRANCH   6   9
BRANCH   5  14
ATOM     14  O   UNL     1       1.340  -2.050  -0.011  0.00  0.00    -0.485 OA
BRANCH  14  15
ATOM     15  C   UNL     1       1.582  -2.633   1.271  0.00  0.00    +0.202 C 
ATOM     16  C   UNL     1       3.081  -2.885   1.442  0.00  0.00    +0.047 C 
ATOM     17  C   UNL     1       3.340  -3.510   2.814  0.00  0.00    +0.004 C 
ATOM     18  C   UNL     1       2.584  -4.836   2.921  0.00  0.00    +0.003 C 
ATOM     19  C   UNL     1       1.085  -4.584   2.750  0.00  0.00    +0.035 C 
ATOM     20  C   UNL     1       0.826  -3.959   1.378  0.00  0.00    +0.155 C 
BRANCH  20  21
ATOM     21  O   UNL     1      -0.574  -3.724   1.218  0.00  0.00    -0.388 OA
ATOM     22  H   UNL     1      -1.116  -4.523   1.274  0.00  0.00    +0.210 HD
ENDBRANCH  20  21
ENDBRANCH  14  15
ENDBRANCH   5  14
TORSDOF 5
