REMARK  Name = ZINC27564148
REMARK  3 active torsions:
REMARK  status: ('A' for Active; 'I' for Inactive)
REMARK    1  A    between atoms: C_6  and  C_7
REMARK    2  A    between atoms: C_7  and  O_8
REMARK    3  A    between atoms: O_8  and  C_9
REMARK                            x       y       z     vdW  Elec       q    Type
REMARK                         _______ _______ _______ _____ _____    ______ ____
ROOT
ATOM      1  C   UNL     1      -2.916  -1.780  -1.439  0.00  0.00    +0.259 C 
ATOM      2  C   UNL     1      -3.104  -2.269  -2.856  0.00  0.00    +0.132 A 
ATOM      3  C   UNL     1      -3.886  -1.575  -3.747  0.00  0.00    +0.161 A 
ATOM      4  N   UNL     1      -3.838  -2.261  -4.923  0.00  0.00    -0.329 N 
ATOM      5  C   UNL     1      -3.041  -3.352  -4.713  0.00  0.00    +0.198 A 
ATOM      6  N   UNL     1      -2.616  -3.336  -3.474  0.00  0.00    -0.234 NA
ATOM      7  N   UNL     1      -4.548  -0.436  -3.396  0.00  0.00    -0.199 NA
ATOM      8  C   UNL     1      -4.597  -0.104  -2.122  0.00  0.00    +0.182 C 
ATOM      9  N   UNL     1      -4.070  -0.911  -1.139  0.00  0.00    -0.287 N 
ATOM     10  N   UNL     1      -5.191   1.081  -1.763  0.00  0.00    -0.331 N 
ATOM     11  H   UNL     1      -5.567   1.661  -2.443  0.00  0.00    +0.145 HD
ATOM     12  H   UNL     1      -5.235   1.338  -0.828  0.00  0.00    +0.145 HD
ATOM     13  H   UNL     1      -4.284  -2.022  -5.750  0.00  0.00    +0.168 HD
ATOM     14  H   UNL     1      -4.457  -0.911  -0.250  0.00  0.00    +0.151 HD
ENDROOT
BRANCH   1  15
ATOM     15  O   UNL     1      -1.701  -1.035  -1.334  0.00  0.00    -0.348 OA
BRANCH  15  16
ATOM     16  C   UNL     1      -1.282  -0.793   0.011  0.00  0.00    +0.198 C 
BRANCH  16  22
ATOM     17  C   UNL     1      -0.017   1.383   0.010  0.00  0.00    +0.025 A 
ATOM     18  C   UNL     1       1.180   2.073   0.002  0.00  0.00    +0.113 A 
ATOM     19  N   UNL     1       2.331   1.429  -0.013  0.00  0.00    -0.244 NA
ATOM     20  C   UNL     1       2.388   0.110  -0.020  0.00  0.00    +0.130 A 
ATOM     21  C   UNL     1       1.230  -0.647  -0.014  0.00  0.00    +0.046 A 
ATOM     22  C   UNL     1       0.002  -0.004   0.002  0.00  0.00    -0.018 A 
ATOM     23 CL   UNL     1       3.932  -0.683  -0.039  0.00  0.00    -0.062 Cl
ENDBRANCH  16  22
ENDBRANCH  15  16
ENDBRANCH   1  15
TORSDOF 3
