REMARK  Name = ZINC31692918
REMARK  8 active torsions:
REMARK  status: ('A' for Active; 'I' for Inactive)
REMARK    1  A    between atoms: C_1  and  C_2
REMARK    2  A    between atoms: C_2  and  C_3
REMARK    3  A    between atoms: C_3  and  C_4
REMARK    4  A    between atoms: C_13  and  O_15
REMARK    5  A    between atoms: O_15  and  C_16
REMARK    6  A    between atoms: C_16  and  C_17
REMARK    7  A    between atoms: N_19  and  C_20
REMARK    8  A    between atoms: C_21  and  C_28
REMARK                            x       y       z     vdW  Elec       q    Type
REMARK                         _______ _______ _______ _____ _____    ______ ____
ROOT
ATOM      1  C   UNL     1      -0.814  -5.110  -7.145  0.00  0.00    +0.255 C 
ATOM      2  O   UNL     1      -0.812  -6.309  -6.964  0.00  0.00    -0.272 OA
ATOM      3  N   UNL     1      -0.722  -4.617  -8.396  0.00  0.00    -0.277 N 
ATOM      4  H   UNL     1      -0.723  -3.658  -8.541  0.00  0.00    +0.155 HD
ENDROOT
BRANCH   3   5
ATOM      5  C   UNL     1      -0.627  -5.482  -9.476  0.00  0.00    +0.084 A 
ATOM      6  C   UNL     1      -0.520  -5.159 -10.817  0.00  0.00    +0.068 A 
ATOM      7  C   UNL     1      -0.432  -6.266 -11.767  0.00  0.00    -0.023 A 
ATOM      8  C   UNL     1      -0.469  -7.484 -11.197  0.00  0.00    -0.004 A 
ATOM      9  S   UNL     1      -0.606  -7.159  -9.457  0.00  0.00    -0.077 S 
ATOM     10  C   UNL     1      -0.380  -8.585 -12.218  0.00  0.00    +0.043 C 
ATOM     11  C   UNL     1      -0.712  -7.899 -13.562  0.00  0.00    +0.010 C 
ATOM     12  C   UNL     1      -0.304  -6.439 -13.279  0.00  0.00    +0.037 C 
BRANCH   6  13
ATOM     13  C   UNL     1      -0.497  -3.764 -11.266  0.00  0.00    +0.244 C 
ATOM     14  O   UNL     1       0.563  -3.174 -11.367  0.00  0.00    -0.270 OA
ATOM     15  N   UNL     1      -1.650  -3.133 -11.567  0.00  0.00    -0.325 N 
ATOM     16  H   UNL     1      -2.495  -3.603 -11.486  0.00  0.00    +0.145 HD
ATOM     17  H   UNL     1      -1.634  -2.210 -11.864  0.00  0.00    +0.145 HD
ENDBRANCH   6  13
ENDBRANCH   3   5
BRANCH   1  18
ATOM     18  C   UNL     1      -0.917  -4.171  -5.971  0.00  0.00    +0.324 C 
BRANCH  18  19
ATOM     19  O   UNL     1      -1.002  -4.928  -4.762  0.00  0.00    -0.483 OA
BRANCH  19  29
ATOM     20  C   UNL     1      -1.413  -2.041   0.005  0.00  0.00    -0.030 A 
ATOM     21  C   UNL     1      -1.500  -2.746   1.162  0.00  0.00    +0.096 A 
ATOM     22  C   UNL     1      -1.479  -4.155   1.128  0.00  0.00    +0.337 A 
ATOM     23  O   UNL     1      -1.558  -4.775   2.174  0.00  0.00    -0.245 OA
ATOM     24  O   UNL     1      -1.375  -4.831  -0.027  0.00  0.00    -0.422 OA
ATOM     25  C   UNL     1      -1.285  -4.191  -1.212  0.00  0.00    +0.143 A 
ATOM     26  C   UNL     1      -1.305  -2.784  -1.252  0.00  0.00    +0.021 A 
ATOM     27  C   UNL     1      -1.217  -2.117  -2.479  0.00  0.00    +0.015 A 
ATOM     28  C   UNL     1      -1.117  -2.835  -3.636  0.00  0.00    +0.046 A 
ATOM     29  C   UNL     1      -1.102  -4.228  -3.603  0.00  0.00    +0.125 A 
ATOM     30  C   UNL     1      -1.177  -4.904  -2.396  0.00  0.00    +0.092 A 
BRANCH  20  31
ATOM     31  C   UNL     1      -1.433  -0.534   0.013  0.00  0.00    +0.036 C 
BRANCH  31  33
ATOM     32  C   UNL     1      -0.019   1.526   0.010  0.00  0.00    +0.004 C 
ATOM     33  C   UNL     1       0.002  -0.004   0.002  0.00  0.00    +0.001 C 
ENDBRANCH  31  33
ENDBRANCH  20  31
ENDBRANCH  19  29
ENDBRANCH  18  19
ENDBRANCH   1  18
TORSDOF 7
