REMARK  Name = ZINC36500821
REMARK  12 active torsions:
REMARK  status: ('A' for Active; 'I' for Inactive)
REMARK    1  A    between atoms: C_1  and  C_2
REMARK    2  A    between atoms: C_2  and  C_3
REMARK    3  A    between atoms: C_2  and  C_4
REMARK    4  A    between atoms: C_2  and  N_5
REMARK    5  A    between atoms: C_6  and  C_8
REMARK    6  A    between atoms: C_8  and  C_10
REMARK    7  A    between atoms: C_8  and  N_15
REMARK    8  A    between atoms: N_15  and  C_16
REMARK    9  A    between atoms: C_16  and  C_17
REMARK   10  A    between atoms: C_22  and  C_24
REMARK   11  A    between atoms: C_28  and  O_31
REMARK   12  A    between atoms: C_29  and  O_30
REMARK                            x       y       z     vdW  Elec       q    Type
REMARK                         _______ _______ _______ _____ _____    ______ ____
ROOT
ATOM      1  N   UNL     1       6.619  -2.255  -6.864  0.00  0.00    -0.272 N 
ATOM      2  C   UNL     1       7.180  -3.284  -6.199  0.00  0.00    +0.252 C 
ATOM      3  O   UNL     1       7.348  -4.351  -6.759  0.00  0.00    -0.270 OA
ENDROOT
BRANCH   2   4
ATOM      4  C   UNL     1       7.591  -3.117  -4.792  0.00  0.00    +0.082 A 
ATOM      5  C   UNL     1       8.199  -1.929  -4.374  0.00  0.00    +0.017 A 
ATOM      6  C   UNL     1       8.581  -1.776  -3.059  0.00  0.00    +0.005 A 
ATOM      7  C   UNL     1       8.367  -2.795  -2.145  0.00  0.00    +0.049 A 
ATOM      8  C   UNL     1       7.767  -3.977  -2.544  0.00  0.00    +0.159 A 
ATOM      9  C   UNL     1       7.370  -4.144  -3.868  0.00  0.00    +0.171 A 
BRANCH   9  10
ATOM     10  O   UNL     1       6.776  -5.300  -4.261  0.00  0.00    -0.503 OA
ATOM     11  H   UNL     1       7.396  -5.976  -4.566  0.00  0.00    +0.292 HD
ENDBRANCH   9  10
BRANCH   8  12
ATOM     12  O   UNL     1       7.560  -4.973  -1.641  0.00  0.00    -0.503 OA
ATOM     13  H   UNL     1       6.707  -4.923  -1.189  0.00  0.00    +0.292 HD
ENDBRANCH   8  12
ENDBRANCH   2   4
BRANCH   1  14
ATOM     14  C   UNL     1       6.203  -2.424  -8.259  0.00  0.00    +0.229 C 
BRANCH  14  15
ATOM     15  C   UNL     1       5.461  -1.194  -8.714  0.00  0.00    +0.134 A 
ATOM     16  C   UNL     1       4.213  -1.168  -9.214  0.00  0.00    +0.047 A 
ATOM     17  C   UNL     1       3.916   0.182  -9.508  0.00  0.00    +0.041 A 
ATOM     18  C   UNL     1       5.001   0.902  -9.169  0.00  0.00    +0.195 A 
ATOM     19  O   UNL     1       5.931   0.064  -8.684  0.00  0.00    -0.465 OA
ENDBRANCH  14  15
BRANCH  14  21
ATOM     20  N   UNL     1       7.279  -2.803 -10.454  0.00  0.00    -0.309 N 
ATOM     21  C   UNL     1       7.420  -2.625  -9.125  0.00  0.00    +0.242 C 
ATOM     22  O   UNL     1       8.526  -2.628  -8.627  0.00  0.00    -0.273 OA
ATOM     23  H   UNL     1       6.395  -2.801 -10.852  0.00  0.00    +0.149 HD
BRANCH  20  25
ATOM     24  C   UNL     1       9.216  -4.248 -10.834  0.00  0.00    +0.031 C 
ATOM     25  C   UNL     1       8.462  -2.999 -11.296  0.00  0.00    +0.026 C 
ATOM     26  C   UNL     1       9.378  -1.779 -11.181  0.00  0.00    +0.031 C 
ATOM     27  C   UNL     1       8.027  -3.175 -12.752  0.00  0.00    +0.031 C 
ENDBRANCH  20  25
ENDBRANCH  14  21
ENDBRANCH   1  14
BRANCH   1  28
ATOM     28  C   UNL     1       6.426  -0.967  -6.193  0.00  0.00    +0.183 C 
BRANCH  28  29
ATOM     29  C   UNL     1       7.527  -0.020  -6.595  0.00  0.00    +0.122 A 
ATOM     30  C   UNL     1       7.669   1.247  -6.168  0.00  0.00    +0.046 A 
ATOM     31  C   UNL     1       8.828   1.762  -6.793  0.00  0.00    +0.041 A 
ATOM     32  C   UNL     1       9.324   0.779  -7.565  0.00  0.00    +0.195 A 
ATOM     33  O   UNL     1       8.535  -0.300  -7.437  0.00  0.00    -0.466 OA
ENDBRANCH  28  29
ENDBRANCH   1  28
TORSDOF 9
