REMARK  Name = ZINC09467089
REMARK  9 active torsions:
REMARK  status: ('A' for Active; 'I' for Inactive)
REMARK    1  A    between atoms: C_1  and  C_2
REMARK    2  A    between atoms: C_2  and  C_28
REMARK    3  A    between atoms: N_9  and  C_27
REMARK    4  A    between atoms: C_11  and  C_12
REMARK    5  A    between atoms: C_12  and  C_14
REMARK    6  A    between atoms: C_14  and  O_15
REMARK    7  A    between atoms: O_15  and  C_16
REMARK    8  A    between atoms: C_16  and  C_18
REMARK    9  A    between atoms: C_20  and  N_25
REMARK                            x       y       z     vdW  Elec       q    Type
REMARK                         _______ _______ _______ _____ _____    ______ ____
ROOT
ATOM      1  C   UNL     1       2.245   6.588  -3.222  0.00  0.00    +0.311 C 
ENDROOT
BRANCH   1   2
ATOM      2  C   UNL     1       2.040   5.636  -2.072  0.00  0.00    +0.195 C 
ATOM      3  O   UNL     1       1.176   5.857  -1.246  0.00  0.00    -0.289 OA
BRANCH   2  14
ATOM      4  C   UNL     1       4.113   3.060   0.544  0.00  0.00    +0.022 C 
ATOM      5  C   UNL     1       3.265   2.396  -0.543  0.00  0.00    +0.030 C 
ATOM      6  C   UNL     1       2.267   1.442   0.074  0.00  0.00    -0.015 A 
ATOM      7  C   UNL     1       2.413   0.305   0.837  0.00  0.00    +0.006 A 
ATOM      8  C   UNL     1       1.293  -0.382   1.273  0.00  0.00    +0.000 A 
ATOM      9  C   UNL     1       0.032   0.076   0.940  0.00  0.00    +0.002 A 
ATOM     10  C   UNL     1      -0.118   1.214   0.176  0.00  0.00    +0.024 A 
ATOM     11  C   UNL     1       1.005   1.913  -0.267  0.00  0.00    +0.038 A 
ATOM     12  N   UNL     1       1.110   3.069  -1.037  0.00  0.00    -0.305 N 
ATOM     13  C   UNL     1       2.406   3.424  -1.248  0.00  0.00    +0.024 C 
ATOM     14  C   UNL     1       2.846   4.495  -1.954  0.00  0.00    +0.069 C 
ATOM     15  C   UNL     1      -0.038   3.813  -1.559  0.00  0.00    +0.135 C 
ATOM     16  C   UNL     1       4.156   1.662  -1.547  0.00  0.00    +0.022 C 
ENDBRANCH   2  14
ENDBRANCH   1   2
BRANCH   1  17
ATOM     17  O   UNL     1       1.294   7.681  -3.120  0.00  0.00    -0.452 OA
BRANCH  17  18
ATOM     18  C   UNL     1       1.345   8.626  -4.079  0.00  0.00    +0.358 C 
ATOM     19  O   UNL     1       2.161   8.540  -4.974  0.00  0.00    -0.243 OA
BRANCH  18  20
ATOM     20  C   UNL     1       0.407   9.769  -4.040  0.00  0.00    +0.146 A 
ATOM     21  C   UNL     1       0.465  10.743  -5.034  0.00  0.00    +0.093 A 
ATOM     22  C   UNL     1      -0.427  11.815  -4.984  0.00  0.00    +0.067 A 
ATOM     23  C   UNL     1      -1.343  11.864  -3.934  0.00  0.00    +0.098 A 
ATOM     24  C   UNL     1      -1.338  10.857  -2.982  0.00  0.00    +0.128 A 
ATOM     25 CL   UNL     1      -2.476  10.912  -1.673  0.00  0.00    -0.062 Cl
ATOM     26 CL   UNL     1      -2.477  13.174  -3.820  0.00  0.00    -0.079 Cl
ATOM     27 CL   UNL     1       1.629  10.624  -6.317  0.00  0.00    -0.079 Cl
ATOM     28  N   UNL     1      -0.489   9.797  -3.004  0.00  0.00    -0.338 N 
ATOM     29  H   UNL     1      -0.517   9.062  -2.288  0.00  0.00    +0.167 HD
BRANCH  22  30
ATOM     30  N   UNL     1      -0.403  12.810  -5.958  0.00  0.00    -0.356 N 
ATOM     31  H   UNL     1       0.240  12.764  -6.683  0.00  0.00    +0.142 HD
ATOM     32  H   UNL     1      -1.028  13.550  -5.911  0.00  0.00    +0.142 HD
ENDBRANCH  22  30
ENDBRANCH  18  20
ENDBRANCH  17  18
ENDBRANCH   1  17
TORSDOF 6
