REMARK  Name = ZINC39911835
REMARK  14 active torsions:
REMARK  status: ('A' for Active; 'I' for Inactive)
REMARK    1  A    between atoms: C_1  and  C_2
REMARK    2  A    between atoms: C_2  and  C_3
REMARK    3  A    between atoms: C_3  and  N_4
REMARK    4  A    between atoms: C_5  and  C_24
REMARK    5  A    between atoms: C_8  and  C_15
REMARK    6  A    between atoms: C_17  and  C_23
REMARK    7  A    between atoms: C_19  and  C_22
REMARK    8  A    between atoms: C_20  and  O_21
REMARK    9  A    between atoms: C_27  and  O_33
REMARK   10  A    between atoms: C_28  and  O_30
REMARK   11  A    between atoms: O_30  and  C_31
REMARK   12  A    between atoms: C_31  and  C_32
REMARK   13  A    between atoms: O_33  and  C_34
REMARK   14  A    between atoms: C_34  and  C_35
REMARK                            x       y       z     vdW  Elec       q    Type
REMARK                         _______ _______ _______ _____ _____    ______ ____
ROOT
ATOM      1  N   UNL     1      -0.864  -2.663  -0.115  0.00  0.00    -0.285 N 
ATOM      2  C   UNL     1      -1.189  -3.417  -1.332  0.00  0.00    +0.141 C 
ATOM      3  C   UNL     1      -1.517  -4.814  -0.882  0.00  0.00    +0.035 A 
ATOM      4  C   UNL     1      -1.901  -6.110  -1.242  0.00  0.00    +0.102 A 
ATOM      5  N   UNL     1      -1.980  -6.821  -0.135  0.00  0.00    -0.173 NA
ATOM      6  N   UNL     1      -1.683  -6.103   0.889  0.00  0.00    -0.272 N 
ATOM      7  H   UNL     1      -1.675  -6.417   1.807  0.00  0.00    +0.189 HD
ATOM      8  C   UNL     1      -1.383  -4.830   0.493  0.00  0.00    +0.126 A 
ATOM      9  C   UNL     1      -0.975  -3.493   0.938  0.00  0.00    +0.265 C 
ATOM     10  O   UNL     1      -0.768  -3.179   2.095  0.00  0.00    -0.268 OA
ENDROOT
BRANCH   4  11
ATOM     11  C   UNL     1      -2.171  -6.596  -2.619  0.00  0.00    +0.044 A 
ATOM     12  C   UNL     1      -2.164  -5.704  -3.688  0.00  0.00    +0.017 A 
ATOM     13  C   UNL     1      -2.415  -6.160  -4.967  0.00  0.00    -0.049 A 
ATOM     14  C   UNL     1      -2.675  -7.501  -5.190  0.00  0.00    +0.010 A 
ATOM     15  C   UNL     1      -2.684  -8.394  -4.135  0.00  0.00    -0.008 A 
ATOM     16  C   UNL     1      -2.428  -7.950  -2.848  0.00  0.00    +0.129 A 
ATOM     17  C   UNL     1      -2.967  -9.853  -4.386  0.00  0.00    +0.047 C 
ATOM     18  C   UNL     1      -2.408  -5.195  -6.124  0.00  0.00    +0.044 C 
BRANCH  16  19
ATOM     19  O   UNL     1      -2.431  -8.828  -1.810  0.00  0.00    -0.506 OA
ATOM     20  H   UNL     1      -3.296  -8.939  -1.392  0.00  0.00    +0.292 HD
ENDBRANCH  16  19
ENDBRANCH   4  11
BRANCH   2  21
ATOM     21  C   UNL     1      -0.004  -3.436  -2.263  0.00  0.00    -0.019 A 
ATOM     22  C   UNL     1      -0.174  -3.142  -3.603  0.00  0.00    +0.009 A 
ATOM     23  C   UNL     1       0.910  -3.158  -4.460  0.00  0.00    +0.050 A 
ATOM     24  C   UNL     1       2.171  -3.468  -3.977  0.00  0.00    +0.162 A 
ATOM     25  C   UNL     1       2.342  -3.764  -2.628  0.00  0.00    +0.162 A 
ATOM     26  C   UNL     1       1.252  -3.742  -1.773  0.00  0.00    +0.055 A 
BRANCH  25  27
ATOM     27  O   UNL     1       3.578  -4.069  -2.149  0.00  0.00    -0.489 OA
BRANCH  27  28
ATOM     28  C   UNL     1       3.706  -4.223  -0.734  0.00  0.00    +0.226 C 
ATOM     29  C   UNL     1       5.175  -4.455  -0.377  0.00  0.00    +0.048 C 
ENDBRANCH  27  28
ENDBRANCH  25  27
BRANCH  24  30
ATOM     30  O   UNL     1       3.239  -3.485  -4.820  0.00  0.00    -0.489 OA
BRANCH  30  31
ATOM     31  C   UNL     1       2.987  -3.172  -6.191  0.00  0.00    +0.226 C 
ATOM     32  C   UNL     1       4.298  -3.240  -6.978  0.00  0.00    +0.048 C 
ENDBRANCH  30  31
ENDBRANCH  24  30
ENDBRANCH   2  21
BRANCH   1  33
ATOM     33  C   UNL     1      -0.480  -1.250  -0.057  0.00  0.00    +0.109 C 
BRANCH  33  35
ATOM     34  C   UNL     1       1.442   0.345  -0.124  0.00  0.00    +0.005 C 
ATOM     35  C   UNL     1       1.040  -1.130  -0.184  0.00  0.00    +0.016 C 
ENDBRANCH  33  35
ENDBRANCH   1  33
TORSDOF 9
