REMARK  Name = ZINC20528128
REMARK  6 active torsions:
REMARK  status: ('A' for Active; 'I' for Inactive)
REMARK    1  A    between atoms: C_5  and  C_7
REMARK    2  A    between atoms: C_7  and  S_8
REMARK    3  A    between atoms: S_8  and  C_9
REMARK    4  A    between atoms: N_13  and  N_14
REMARK    5  A    between atoms: N_15  and  N_16
REMARK    6  A    between atoms: C_17  and  C_18
REMARK                            x       y       z     vdW  Elec       q    Type
REMARK                         _______ _______ _______ _____ _____    ______ ____
ROOT
ATOM      1  C   UNL     1      -3.333  -1.974  -1.520  0.00  0.00    +0.210 A 
ATOM      2  N   UNL     1      -3.895  -2.321  -0.387  0.00  0.00    -0.119 NA
ATOM      3  N   UNL     1      -5.073  -3.019  -0.684  0.00  0.00    -0.109 NA
ATOM      4  C   UNL     1      -5.192  -3.076  -1.988  0.00  0.00    +0.254 A 
ATOM      5  N   UNL     1      -4.122  -2.427  -2.539  0.00  0.00    -0.211 N 
ATOM      6  N   UNL     1      -6.226  -3.683  -2.687  0.00  0.00    -0.204 N 
ATOM      7  H   UNL     1      -6.227  -3.672  -3.787  0.00  0.00    +0.177 HD
ENDROOT
BRANCH   5   8
ATOM      8  N   UNL     1      -3.883  -2.263  -3.874  0.00  0.00    -0.294 N 
ATOM      9  H   UNL     1      -4.588  -2.671  -4.613  0.00  0.00    +0.163 HD
ATOM     10  H   UNL     1      -2.985  -1.724  -4.210  0.00  0.00    +0.163 HD
ENDBRANCH   5   8
BRANCH   6  11
ATOM     11  N   UNL     1      -7.268  -4.310  -1.992  0.00  0.00    -0.187 NA
ATOM     12  C   UNL     1      -8.235  -4.879  -2.646  0.00  0.00    +0.141 C 
BRANCH  12  13
ATOM     13  C   UNL     1      -9.332  -5.538  -1.914  0.00  0.00    +0.030 A 
ATOM     14  C   UNL     1     -10.377  -6.146  -2.614  0.00  0.00    +0.012 A 
ATOM     15  C   UNL     1     -11.398  -6.765  -1.923  0.00  0.00    +0.001 A 
ATOM     16  C   UNL     1     -11.394  -6.778  -0.539  0.00  0.00    +0.003 A 
ATOM     17  C   UNL     1     -10.366  -6.174   0.163  0.00  0.00    +0.039 A 
ATOM     18  C   UNL     1      -9.334  -5.554  -0.515  0.00  0.00    +0.132 A 
ATOM     19  F   UNL     1      -8.331  -4.964   0.171  0.00  0.00    -0.205 F 
ENDBRANCH  12  13
ENDBRANCH   6  11
BRANCH   1  20
ATOM     20  S   UNL     1      -1.828  -1.076  -1.697  0.00  0.00    -0.080 S 
BRANCH  20  21
ATOM     21  C   UNL     1      -1.292  -0.775   0.010  0.00  0.00    +0.114 C 
BRANCH  21  26
ATOM     22  C   UNL     1       2.396   0.029  -0.021  0.00  0.00    +0.000 A 
ATOM     23  C   UNL     1       2.378   1.411  -0.013  0.00  0.00    +0.001 A 
ATOM     24  C   UNL     1       1.173   2.087   0.002  0.00  0.00    +0.020 A 
ATOM     25  C   UNL     1      -0.017   1.379   0.010  0.00  0.00    +0.045 A 
ATOM     26  C   UNL     1       0.002  -0.004   0.002  0.00  0.00    -0.019 A 
ATOM     27  C   UNL     1       1.209  -0.679  -0.013  0.00  0.00    +0.006 A 
ATOM     28 CL   UNL     1      -1.532   2.227   0.021  0.00  0.00    -0.083 Cl
ENDBRANCH  21  26
ENDBRANCH  20  21
ENDBRANCH   1  20
TORSDOF 6
