REMARK  Name = ZINC32986820
REMARK  3 active torsions:
REMARK  status: ('A' for Active; 'I' for Inactive)
REMARK    1  A    between atoms: C_5  and  C_7
REMARK    2  A    between atoms: N_19  and  C_20
REMARK    3  A    between atoms: C_20  and  C_21
REMARK                            x       y       z     vdW  Elec       q    Type
REMARK                         _______ _______ _______ _____ _____    ______ ____
ROOT
ATOM      1  C   UNL     1      -0.852   2.698   1.831  0.00  0.00    +0.196 C 
ATOM      2  N   UNL     1      -2.234   3.186   1.833  0.00  0.00    -0.322 N 
ATOM      3  C   UNL     1      -3.310   2.431   2.292  0.00  0.00    +0.055 A 
ATOM      4  C   UNL     1      -4.479   3.089   2.670  0.00  0.00    +0.025 A 
ATOM      5  C   UNL     1      -5.575   2.368   3.096  0.00  0.00    +0.002 A 
ATOM      6  C   UNL     1      -5.522   0.987   3.152  0.00  0.00    +0.002 A 
ATOM      7  C   UNL     1      -4.363   0.327   2.786  0.00  0.00    +0.030 A 
ATOM      8  C   UNL     1      -3.264   1.045   2.363  0.00  0.00    +0.126 A 
ATOM      9  S   UNL     1      -1.781   0.198   1.908  0.00  0.00    +0.065 S 
ATOM     10  O   UNL     1      -2.130  -0.733   0.892  0.00  0.00    -0.153 OA
ATOM     11  O   UNL     1      -1.134  -0.185   3.113  0.00  0.00    -0.153 OA
ATOM     12  N   UNL     1      -0.828   1.366   1.193  0.00  0.00    -0.148 NA
ATOM     13  H   UNL     1      -2.461   4.195   1.459  0.00  0.00    +0.148 HD
ENDROOT
BRANCH   1  18
ATOM     14  C   UNL     1      -0.428   3.286   5.536  0.00  0.00    +0.000 A 
ATOM     15  C   UNL     1       0.577   2.388   5.846  0.00  0.00    +0.001 A 
ATOM     16  C   UNL     1       1.120   1.590   4.857  0.00  0.00    +0.020 A 
ATOM     17  C   UNL     1       0.654   1.686   3.557  0.00  0.00    +0.047 A 
ATOM     18  C   UNL     1      -0.348   2.588   3.247  0.00  0.00    +0.007 A 
ATOM     19  C   UNL     1      -0.890   3.386   4.237  0.00  0.00    +0.008 A 
ATOM     20 CL   UNL     1       1.331   0.679   2.316  0.00  0.00    -0.083 Cl
ENDBRANCH   1  18
BRANCH  12  21
ATOM     21  C   UNL     1      -0.013   1.086   0.008  0.00  0.00    +0.148 C 
BRANCH  21  22
ATOM     22  C   UNL     1      -0.790   1.442  -1.233  0.00  0.00    -0.013 A 
ATOM     23  C   UNL     1      -1.490   0.464  -1.915  0.00  0.00    +0.009 A 
ATOM     24  C   UNL     1      -2.208   0.790  -3.049  0.00  0.00    +0.039 A 
ATOM     25  C   UNL     1      -2.218   2.096  -3.510  0.00  0.00    +0.125 A 
ATOM     26  C   UNL     1      -1.514   3.075  -2.830  0.00  0.00    +0.058 A 
ATOM     27  C   UNL     1      -0.800   2.747  -1.692  0.00  0.00    +0.048 A 
ATOM     28 CL   UNL     1       0.084   3.974  -0.838  0.00  0.00    -0.083 Cl
ATOM     29  F   UNL     1      -2.916   2.415  -4.622  0.00  0.00    -0.205 F 
ENDBRANCH  21  22
ENDBRANCH  12  21
TORSDOF 3
