REMARK  Name = ZINC33937257
REMARK  13 active torsions:
REMARK  status: ('A' for Active; 'I' for Inactive)
REMARK    1  A    between atoms: C_1  and  C_2
REMARK    2  A    between atoms: C_7  and  C_15
REMARK    3  A    between atoms: C_13  and  C_14
REMARK    4  A    between atoms: C_15  and  N_16
REMARK    5  A    between atoms: N_16  and  C_17
REMARK    6  A    between atoms: N_16  and  C_24
REMARK    7  A    between atoms: C_17  and  C_18
REMARK    8  A    between atoms: C_24  and  C_26
REMARK    9  A    between atoms: C_24  and  C_39
REMARK   10  A    between atoms: N_30  and  C_31
REMARK   11  A    between atoms: C_31  and  C_32
REMARK   12  A    between atoms: C_39  and  C_40
REMARK   13  A    between atoms: C_39  and  C_41
REMARK                            x       y       z     vdW  Elec       q    Type
REMARK                         _______ _______ _______ _____ _____    ______ ____
ROOT
ATOM      1  N   UNL     1       2.160  -6.569   1.139  0.00  0.00    +0.391 N 
ATOM      2  H   UNL     1       1.724  -5.915   1.771  0.00  0.00    -0.080 HD
ENDROOT
BRANCH   1   3
ATOM      3  C   UNL     1       1.311  -6.743  -0.048  0.00  0.00    -0.036 C 
BRANCH   3  10
ATOM      4  C   UNL     1       5.093 -11.305  -5.386  0.00  0.00    +0.044 C 
ATOM      5  C   UNL     1       4.296 -10.644  -4.292  0.00  0.00    -0.046 A 
ATOM      6  C   UNL     1       3.552 -11.424  -3.416  0.00  0.00    +0.004 A 
ATOM      7  C   UNL     1       2.822 -10.845  -2.418  0.00  0.00    +0.010 A 
ATOM      8  C   UNL     1       2.824  -9.453  -2.275  0.00  0.00    -0.001 A 
ATOM      9  C   UNL     1       2.053  -8.800  -1.216  0.00  0.00    +0.017 A 
ATOM     10  C   UNL     1       2.093  -7.447  -1.126  0.00  0.00    +0.001 A 
ATOM     11  C   UNL     1       2.864  -6.697  -2.040  0.00  0.00    +0.251 A 
ATOM     12  O   UNL     1       2.886  -5.482  -1.941  0.00  0.00    -0.268 OA
ATOM     13  N   UNL     1       3.575  -7.288  -3.016  0.00  0.00    -0.322 N 
ATOM     14  H   UNL     1       4.094  -6.742  -3.627  0.00  0.00    +0.169 HD
ATOM     15  C   UNL     1       3.576  -8.659  -3.161  0.00  0.00    +0.052 A 
ATOM     16  C   UNL     1       4.316  -9.272  -4.167  0.00  0.00    -0.024 A 
ATOM     17  C   UNL     1       5.133  -8.438  -5.120  0.00  0.00    +0.046 C 
ENDBRANCH   3  10
ENDBRANCH   1   3
BRANCH   1  18
ATOM     18  C   UNL     1       3.473  -6.055   0.730  0.00  0.00    -0.045 C 
BRANCH  18  19
ATOM     19  C   UNL     1       3.570  -4.569   1.080  0.00  0.00    +0.102 C 
ATOM     20  C   UNL     1       4.854  -3.954   0.468  0.00  0.00    +0.032 C 
ATOM     21  C   UNL     1       4.445  -2.460   0.363  0.00  0.00    +0.030 C 
ATOM     22  C   UNL     1       2.936  -2.554   0.051  0.00  0.00    +0.160 C 
ATOM     23  O   UNL     1       2.483  -3.844   0.483  0.00  0.00    -0.378 OA
ENDBRANCH  18  19
ENDBRANCH   1  18
BRANCH   1  24
ATOM     24  C   UNL     1       2.329  -7.864   1.813  0.00  0.00    +0.006 C 
BRANCH  24  25
ATOM     25  C   UNL     1       3.247  -8.738   0.998  0.00  0.00    +0.139 A 
ATOM     26  N   UNL     1       4.056  -8.348   0.044  0.00  0.00    -0.115 NA
ATOM     27  N   UNL     1       4.670  -9.387  -0.407  0.00  0.00    -0.023 NA
ATOM     28  N   UNL     1       4.273 -10.430   0.235  0.00  0.00    -0.044 NA
ATOM     29  N   UNL     1       3.399 -10.070   1.114  0.00  0.00    -0.226 N 
BRANCH  29  30
ATOM     30  C   UNL     1       2.701 -10.948   2.057  0.00  0.00    +0.182 C 
BRANCH  30  31
ATOM     31  C   UNL     1       1.503 -11.561   1.380  0.00  0.00    -0.026 A 
ATOM     32  C   UNL     1       0.281 -10.917   1.423  0.00  0.00    +0.008 A 
ATOM     33  C   UNL     1      -0.819 -11.478   0.802  0.00  0.00    +0.038 A 
ATOM     34  C   UNL     1      -0.696 -12.687   0.137  0.00  0.00    +0.123 A 
ATOM     35  C   UNL     1       0.528 -13.331   0.095  0.00  0.00    +0.038 A 
ATOM     36  C   UNL     1       1.628 -12.765   0.712  0.00  0.00    +0.008 A 
ATOM     37  F   UNL     1      -1.771 -13.237  -0.469  0.00  0.00    -0.205 F 
ENDBRANCH  30  31
ENDBRANCH  29  30
ENDBRANCH  24  25
BRANCH  24  38
ATOM     38  C   UNL     1       2.935  -7.641   3.200  0.00  0.00    -0.024 C 
ATOM     39  C   UNL     1       4.277  -6.920   3.061  0.00  0.00    +0.006 C 
ATOM     40  C   UNL     1       1.983  -6.788   4.041  0.00  0.00    +0.006 C 
ENDBRANCH  24  38
ENDBRANCH   1  24
TORSDOF 9
