REMARK  Name = ZINC40010248
REMARK  7 active torsions:
REMARK  status: ('A' for Active; 'I' for Inactive)
REMARK    1  A    between atoms: C_1  and  C_2
REMARK    2  A    between atoms: C_7  and  C_14
REMARK    3  A    between atoms: C_18  and  O_34
REMARK    4  A    between atoms: C_19  and  O_32
REMARK    5  A    between atoms: C_25  and  C_27
REMARK    6  A    between atoms: O_32  and  C_33
REMARK    7  A    between atoms: O_34  and  C_35
REMARK                            x       y       z     vdW  Elec       q    Type
REMARK                         _______ _______ _______ _____ _____    ______ ____
ROOT
ATOM      1  C   UNL     1      -0.954  -5.656   1.182  0.00  0.00    +0.123 C 
ATOM      2  C   UNL     1      -0.568  -6.456   2.401  0.00  0.00    -0.019 A 
ATOM      3  C   UNL     1      -0.735  -5.860   3.644  0.00  0.00    +0.055 A 
ATOM      4  C   UNL     1      -0.391  -6.536   4.800  0.00  0.00    +0.162 A 
ATOM      5  C   UNL     1       0.129  -7.825   4.712  0.00  0.00    +0.162 A 
ATOM      6  C   UNL     1       0.289  -8.415   3.473  0.00  0.00    +0.053 A 
ATOM      7  C   UNL     1      -0.064  -7.734   2.313  0.00  0.00    -0.037 A 
ATOM      8  C   UNL     1       0.115  -8.454   1.002  0.00  0.00    +0.054 C 
ATOM      9  C   UNL     1       0.155  -7.464  -0.161  0.00  0.00    +0.113 C 
ATOM     10  N   UNL     1      -0.969  -6.529   0.003  0.00  0.00    -0.289 N 
ATOM     11  C   UNL     1      -1.972  -6.476  -0.895  0.00  0.00    +0.254 C 
ATOM     12  O   UNL     1      -2.837  -5.626  -0.792  0.00  0.00    -0.269 OA
ENDROOT
BRANCH   1  19
ATOM     13  C   UNL     1       4.390  -4.185  -3.866  0.00  0.00    +0.044 C 
ATOM     14  C   UNL     1       3.593  -4.436  -2.613  0.00  0.00    -0.049 A 
ATOM     15  C   UNL     1       4.153  -5.229  -1.611  0.00  0.00    +0.004 A 
ATOM     16  C   UNL     1       3.483  -5.491  -0.459  0.00  0.00    +0.010 A 
ATOM     17  C   UNL     1       2.146  -4.923  -0.275  0.00  0.00    -0.007 A 
ATOM     18  C   UNL     1       1.437  -5.159   0.865  0.00  0.00    -0.003 C 
ATOM     19  C   UNL     1       0.061  -4.531   0.969  0.00  0.00    +0.123 C 
ATOM     20  C   UNL     1      -0.412  -3.695  -0.199  0.00  0.00    +0.226 C 
ATOM     21  O   UNL     1      -1.508  -3.167  -0.168  0.00  0.00    -0.275 OA
ATOM     22  N   UNL     1       0.370  -3.539  -1.254  0.00  0.00    -0.284 N 
ATOM     23  C   UNL     1       1.580  -4.089  -1.350  0.00  0.00    +0.041 A 
ATOM     24  C   UNL     1       2.360  -3.876  -2.501  0.00  0.00    +0.027 A 
ATOM     25  H   UNL     1       0.048  -2.999  -1.992  0.00  0.00    +0.155 HD
ENDBRANCH   1  19
BRANCH  11  26
ATOM     26  C   UNL     1      -2.022  -7.442  -1.996  0.00  0.00    +0.074 A 
ATOM     27  C   UNL     1      -2.721  -7.371  -3.191  0.00  0.00    +0.021 A 
ATOM     28  C   UNL     1      -2.569  -8.443  -4.037  0.00  0.00    +0.008 A 
ATOM     29  C   UNL     1      -1.769  -9.471  -3.661  0.00  0.00    +0.046 A 
ATOM     30  S   UNL     1      -1.192  -9.013  -2.151  0.00  0.00    -0.092 S 
ENDBRANCH  11  26
BRANCH   5  31
ATOM     31  O   UNL     1       0.477  -8.499   5.841  0.00  0.00    -0.491 OA
ATOM     32  C   UNL     1       1.003  -9.817   5.672  0.00  0.00    +0.277 C 
ENDBRANCH   5  31
BRANCH   4  33
ATOM     33  O   UNL     1      -0.558  -5.947   6.014  0.00  0.00    -0.491 OA
ATOM     34  C   UNL     1      -1.096  -4.623   6.023  0.00  0.00    +0.277 C 
ENDBRANCH   4  33
TORSDOF 4
