REMARK  Name = ZINC36599561
REMARK  13 active torsions:
REMARK  status: ('A' for Active; 'I' for Inactive)
REMARK    1  A    between atoms: C_1  and  C_2
REMARK    2  A    between atoms: C_5  and  S_8
REMARK    3  A    between atoms: S_8  and  C_11
REMARK    4  A    between atoms: C_11  and  N_12
REMARK    5  A    between atoms: C_13  and  C_15
REMARK    6  A    between atoms: C_15  and  C_17
REMARK    7  A    between atoms: C_15  and  N_24
REMARK    8  A    between atoms: N_24  and  C_25
REMARK    9  A    between atoms: C_25  and  C_26
REMARK   10  A    between atoms: C_29  and  C_31
REMARK   11  A    between atoms: C_32  and  C_34
REMARK   12  A    between atoms: C_35  and  C_36
REMARK   13  A    between atoms: C_35  and  C_37
REMARK                            x       y       z     vdW  Elec       q    Type
REMARK                         _______ _______ _______ _____ _____    ______ ____
ROOT
ATOM      1  C   UNL     1       3.429  -4.827   3.435  0.00  0.00    +0.193 C 
ENDROOT
BRANCH   1   2
ATOM      2  C   UNL     1       4.455  -3.734   3.277  0.00  0.00    -0.018 A 
ATOM      3  C   UNL     1       5.755  -4.051   2.932  0.00  0.00    +0.007 A 
ATOM      4  C   UNL     1       6.696  -3.049   2.787  0.00  0.00    +0.020 A 
ATOM      5  C   UNL     1       6.336  -1.728   2.987  0.00  0.00    +0.041 A 
ATOM      6  C   UNL     1       5.034  -1.412   3.332  0.00  0.00    +0.020 A 
ATOM      7  C   UNL     1       4.093  -2.414   3.471  0.00  0.00    +0.007 A 
ATOM      8 CL   UNL     1       7.517  -0.469   2.806  0.00  0.00    -0.084 Cl
ENDBRANCH   1   2
BRANCH   1  10
ATOM      9  N   UNL     1       1.696  -5.114   1.694  0.00  0.00    -0.294 N 
ATOM     10  C   UNL     1       2.976  -5.291   2.074  0.00  0.00    +0.239 C 
ATOM     11  O   UNL     1       3.764  -5.824   1.322  0.00  0.00    -0.273 OA
ATOM     12  H   UNL     1       1.065  -4.688   2.296  0.00  0.00    +0.150 HD
BRANCH   9  13
ATOM     13  C   UNL     1       1.255  -5.565   0.371  0.00  0.00    +0.278 C 
BRANCH  13  14
ATOM     14  S   UNL     1       0.531  -7.223   0.508  0.00  0.00    +0.013 S 
ATOM     15  O   UNL     1       1.378  -8.065   1.278  0.00  0.00    -0.168 OA
ATOM     16  O   UNL     1       0.042  -7.649  -0.756  0.00  0.00    -0.168 OA
BRANCH  14  21
ATOM     17  C   UNL     1      -4.404  -6.488   3.901  0.00  0.00    +0.044 C 
ATOM     18  C   UNL     1      -3.171  -6.672   3.054  0.00  0.00    -0.050 A 
ATOM     19  C   UNL     1      -3.254  -6.553   1.679  0.00  0.00    +0.005 A 
ATOM     20  C   UNL     1      -2.123  -6.721   0.901  0.00  0.00    +0.027 A 
ATOM     21  C   UNL     1      -0.910  -7.008   1.499  0.00  0.00    +0.090 A 
ATOM     22  C   UNL     1      -0.827  -7.125   2.874  0.00  0.00    +0.027 A 
ATOM     23  C   UNL     1      -1.957  -6.953   3.651  0.00  0.00    +0.005 A 
ENDBRANCH  14  21
ENDBRANCH  13  14
ENDBRANCH   9  13
ENDBRANCH   1  10
BRANCH   1  24
ATOM     24  N   UNL     1       4.023  -5.952   4.162  0.00  0.00    -0.275 N 
ATOM     25  C   UNL     1       4.462  -5.782   5.425  0.00  0.00    +0.241 C 
ATOM     26  O   UNL     1       5.024  -6.694   6.001  0.00  0.00    -0.271 OA
BRANCH  25  27
ATOM     27  C   UNL     1       4.262  -4.493   6.105  0.00  0.00    +0.066 C 
ATOM     28  C   UNL     1       4.701  -4.323   7.349  0.00  0.00    -0.071 C 
ATOM     29  C   UNL     1       5.183  -5.508   8.147  0.00  0.00    +0.039 C 
ATOM     30  C   UNL     1       4.716  -2.946   7.961  0.00  0.00    +0.039 C 
ENDBRANCH  25  27
BRANCH  24  31
ATOM     31  C   UNL     1       4.139  -7.262   3.516  0.00  0.00    +0.183 C 
BRANCH  31  32
ATOM     32  C   UNL     1       5.510  -7.403   2.908  0.00  0.00    +0.122 A 
ATOM     33  C   UNL     1       6.595  -7.908   3.522  0.00  0.00    +0.046 A 
ATOM     34  C   UNL     1       7.657  -7.851   2.590  0.00  0.00    +0.045 A 
ATOM     35  C   UNL     1       7.157  -7.314   1.462  0.00  0.00    +0.102 A 
ATOM     36  O   UNL     1       5.855  -7.050   1.659  0.00  0.00    -0.463 OA
ATOM     37  C   UNL     1       7.927  -7.058   0.192  0.00  0.00    +0.086 C 
ENDBRANCH  31  32
ENDBRANCH  24  31
ENDBRANCH   1  24
TORSDOF 9
