REMARK  Name = ZINC66865705
REMARK  7 active torsions:
REMARK  status: ('A' for Active; 'I' for Inactive)
REMARK    1  A    between atoms: C_1  and  C_2
REMARK    2  A    between atoms: C_5  and  C_9
REMARK    3  A    between atoms: C_7  and  C_8
REMARK    4  A    between atoms: C_9  and  C_11
REMARK    5  A    between atoms: C_9  and  O_26
REMARK    6  A    between atoms: C_11  and  N_12
REMARK    7  A    between atoms: C_18  and  C_20
REMARK                            x       y       z     vdW  Elec       q    Type
REMARK                         _______ _______ _______ _____ _____    ______ ____
ROOT
ATOM      1  N   UNL     1       2.396  -5.811   1.186  0.00  0.00    -0.297 NA
ATOM      2  C   UNL     1       1.607  -6.665   2.084  0.00  0.00    +0.103 C 
ATOM      3  C   UNL     1       1.270  -7.978   1.371  0.00  0.00    +0.123 C 
ATOM      4  N   UNL     1       2.521  -8.578   0.882  0.00  0.00    -0.299 N 
ATOM      5  C   UNL     1       3.431  -7.739   0.087  0.00  0.00    +0.123 C 
ATOM      6  C   UNL     1       3.683  -6.435   0.852  0.00  0.00    +0.103 C 
ATOM      7  C   UNL     1       2.825  -9.863   1.154  0.00  0.00    +0.219 C 
ATOM      8  O   UNL     1       2.104 -10.516   1.878  0.00  0.00    -0.275 OA
ENDROOT
BRANCH   7   9
ATOM      9  C   UNL     1       4.060 -10.487   0.558  0.00  0.00    +0.075 C 
ATOM     10  C   UNL     1       3.759 -10.954  -0.868  0.00  0.00    +0.013 C 
ATOM     11  C   UNL     1       5.013 -11.588  -1.472  0.00  0.00    +0.001 C 
ATOM     12  C   UNL     1       5.438 -12.787  -0.623  0.00  0.00    +0.000 C 
ATOM     13  C   UNL     1       5.739 -12.321   0.803  0.00  0.00    +0.001 C 
ATOM     14  C   UNL     1       4.485 -11.686   1.408  0.00  0.00    +0.013 C 
ENDBRANCH   7   9
BRANCH   1  15
ATOM     15  C   UNL     1       2.593  -4.476   1.767  0.00  0.00    +0.120 C 
BRANCH  15  16
ATOM     16  C   UNL     1       1.244  -3.760   1.870  0.00  0.00    +0.158 C 
BRANCH  16  21
ATOM     17  C   UNL     1       2.017   1.491   4.154  0.00  0.00    +0.044 C 
ATOM     18  C   UNL     1       1.815   0.122   3.558  0.00  0.00    -0.048 A 
ATOM     19  C   UNL     1       1.983  -0.073   2.200  0.00  0.00    +0.004 A 
ATOM     20  C   UNL     1       1.798  -1.329   1.653  0.00  0.00    +0.006 A 
ATOM     21  C   UNL     1       1.447  -2.391   2.466  0.00  0.00    -0.018 A 
ATOM     22  C   UNL     1       1.280  -2.197   3.824  0.00  0.00    +0.009 A 
ATOM     23  C   UNL     1       1.469  -0.941   4.371  0.00  0.00    -0.047 A 
ATOM     24  C   UNL     1       1.293  -0.731   5.853  0.00  0.00    +0.044 C 
ENDBRANCH  16  21
BRANCH  16  25
ATOM     25  O   UNL     1       0.672  -3.633   0.567  0.00  0.00    -0.386 OA
ATOM     26  H   UNL     1       1.215  -3.129  -0.054  0.00  0.00    +0.210 HD
ENDBRANCH  16  25
ENDBRANCH  15  16
ENDBRANCH   1  15
TORSDOF 5
