REMARK  Name = ZINC27962302
REMARK  4 active torsions:
REMARK  status: ('A' for Active; 'I' for Inactive)
REMARK    1  A    between atoms: C_1  and  C_2
REMARK    2  A    between atoms: N_11  and  S_12
REMARK    3  A    between atoms: S_12  and  C_15
REMARK    4  A    between atoms: C_17  and  C_21
REMARK                            x       y       z     vdW  Elec       q    Type
REMARK                         _______ _______ _______ _____ _____    ______ ____
ROOT
ATOM      1  S   UNL     1      -2.490   2.174  -7.277  0.00  0.00    +0.063 S 
ATOM      2  O   UNL     1      -3.266   3.330  -7.565  0.00  0.00    -0.153 OA
ATOM      3  O   UNL     1      -1.236   1.925  -7.895  0.00  0.00    -0.153 OA
ENDROOT
BRANCH   1  13
ATOM      4  C   UNL     1      -5.455   0.952  -9.021  0.00  0.00    +0.031 C 
ATOM      5  C   UNL     1      -4.913   0.992  -7.591  0.00  0.00    +0.107 C 
ATOM      6  C   UNL     1      -5.473  -0.185  -6.793  0.00  0.00    -0.019 A 
ATOM      7  C   UNL     1      -6.794  -0.250  -6.354  0.00  0.00    +0.013 A 
ATOM      8  C   UNL     1      -7.223  -1.327  -5.656  0.00  0.00    +0.046 A 
ATOM      9  S   UNL     1      -5.745  -2.328  -5.580  0.00  0.00    -0.101 S 
ATOM     10  C   UNL     1      -4.672  -1.239  -6.479  0.00  0.00    -0.004 A 
ATOM     11  C   UNL     1      -3.229  -1.428  -6.815  0.00  0.00    +0.060 C 
ATOM     12  C   UNL     1      -2.848  -0.436  -7.933  0.00  0.00    +0.115 C 
ATOM     13  N   UNL     1      -3.450   0.866  -7.609  0.00  0.00    -0.169 NA
ENDBRANCH   1  13
BRANCH   1  14
ATOM     14  C   UNL     1      -2.203   2.181  -5.539  0.00  0.00    +0.123 A 
ATOM     15  C   UNL     1      -1.147   1.547  -4.876  0.00  0.00    +0.060 A 
ATOM     16  C   UNL     1      -1.300   1.806  -3.531  0.00  0.00    +0.104 A 
ATOM     17  N   UNL     1      -2.430   2.577  -3.382  0.00  0.00    -0.355 N 
ATOM     18  H   UNL     1      -2.749   2.898  -2.379  0.00  0.00    +0.166 HD
ATOM     19  C   UNL     1      -2.965   2.803  -4.607  0.00  0.00    +0.112 A 
BRANCH  16  20
ATOM     20  C   UNL     1      -0.421   1.339  -2.453  0.00  0.00    +0.263 C 
ATOM     21  O   UNL     1       0.605   0.742  -2.720  0.00  0.00    -0.268 OA
ATOM     22  N   UNL     1      -0.749   1.572  -1.167  0.00  0.00    -0.296 N 
ATOM     23  C   UNL     1      -1.897   2.367  -0.706  0.00  0.00    +0.108 C 
ATOM     24  C   UNL     1      -1.861   2.378   0.837  0.00  0.00    +0.020 C 
ATOM     25  C   UNL     1      -0.370   2.063   1.148  0.00  0.00    +0.020 C 
ATOM     26  C   UNL     1      -0.018   1.071   0.011  0.00  0.00    +0.108 C 
ENDBRANCH  16  20
ENDBRANCH   1  14
TORSDOF 3
