REMARK  Name = ZINC31164502
REMARK  14 active torsions:
REMARK  status: ('A' for Active; 'I' for Inactive)
REMARK    1  A    between atoms: C_1  and  C_2
REMARK    2  A    between atoms: C_2  and  C_3
REMARK    3  A    between atoms: C_2  and  C_4
REMARK    4  A    between atoms: C_4  and  O_6
REMARK    5  A    between atoms: O_6  and  C_7
REMARK    6  A    between atoms: C_10  and  C_33
REMARK    7  A    between atoms: C_16  and  C_32
REMARK    8  A    between atoms: C_23  and  C_27
REMARK    9  A    between atoms: C_27  and  O_28
REMARK   10  A    between atoms: O_28  and  C_29
REMARK   11  A    between atoms: C_29  and  C_31
REMARK   12  A    between atoms: C_33  and  O_34
REMARK   13  A    between atoms: O_34  and  C_35
REMARK   14  A    between atoms: C_35  and  C_37
REMARK                            x       y       z     vdW  Elec       q    Type
REMARK                         _______ _______ _______ _____ _____    ______ ____
ROOT
ATOM      1  C   UNL     1       1.202   2.499   0.414  0.00  0.00    +0.210 C 
ATOM      2  C   UNL     1       1.180   3.027  -1.001  0.00  0.00    +0.090 C 
ATOM      3  C   UNL     1       2.543   3.061  -1.664  0.00  0.00    +0.137 C 
ATOM      4  C   UNL     1       3.869   2.981  -0.922  0.00  0.00    +0.177 C 
ATOM      5  O   UNL     1       3.353   4.218  -1.427  0.00  0.00    -0.357 OA
ATOM      6  C   UNL     1       4.052   2.868   0.550  0.00  0.00    +0.006 C 
ATOM      7  C   UNL     1       4.147   1.772   1.248  0.00  0.00    +0.008 C 
ATOM      8  C   UNL     1       3.635   0.438   0.786  0.00  0.00    +0.115 C 
ATOM      9  C   UNL     1       2.344   0.033   1.516  0.00  0.00    +0.200 C 
ATOM     10  O   UNL     1       3.540  -0.717   1.620  0.00  0.00    -0.357 OA
ATOM     11  C   UNL     1       1.145  -0.166   0.614  0.00  0.00    +0.239 C 
ATOM     12  C   UNL     1       0.467   1.192   0.544  0.00  0.00    +0.026 C 
ATOM     13  C   UNL     1      -0.828   0.980   0.736  0.00  0.00    +0.080 C 
ATOM     14  C   UNL     1      -1.043  -0.441   1.038  0.00  0.00    +0.339 C 
ATOM     15  O   UNL     1      -2.130  -0.968   1.172  0.00  0.00    -0.245 OA
ATOM     16  O   UNL     1       0.146  -1.075   1.148  0.00  0.00    -0.451 OA
ATOM     17  C   UNL     1       3.822   0.105  -0.697  0.00  0.00    +0.049 C 
ENDROOT
BRANCH   1  18
ATOM     18  O   UNL     1       0.583   3.477   1.290  0.00  0.00    -0.456 OA
BRANCH  18  19
ATOM     19  C   UNL     1       1.066   3.570   2.539  0.00  0.00    +0.310 C 
ATOM     20  O   UNL     1       2.029   2.916   2.864  0.00  0.00    -0.251 OA
BRANCH  19  22
ATOM     21  C   UNL     1       0.996   4.238   4.926  0.00  0.00    +0.019 C 
ATOM     22  C   UNL     1       0.408   4.489   3.535  0.00  0.00    +0.092 C 
ATOM     23  C   UNL     1       0.659   5.943   3.131  0.00  0.00    +0.019 C 
ENDBRANCH  19  22
ENDBRANCH  18  19
ENDBRANCH   1  18
BRANCH  13  24
ATOM     24  C   UNL     1      -1.907   2.028   0.650  0.00  0.00    +0.275 C 
BRANCH  24  25
ATOM     25  O   UNL     1      -1.334   3.276   0.176  0.00  0.00    -0.460 OA
BRANCH  25  26
ATOM     26  C   UNL     1      -2.158   4.332   0.093  0.00  0.00    +0.304 C 
ATOM     27  O   UNL     1      -3.314   4.224   0.426  0.00  0.00    -0.251 OA
ATOM     28  C   UNL     1      -1.640   5.653  -0.416  0.00  0.00    +0.136 C 
ENDBRANCH  25  26
ENDBRANCH  24  25
ENDBRANCH  13  24
BRANCH   3  29
ATOM     29  C   UNL     1       2.540   2.548  -3.122  0.00  0.00    +0.270 C 
BRANCH  29  30
ATOM     30  O   UNL     1       1.288   2.912  -3.761  0.00  0.00    -0.462 OA
BRANCH  30  31
ATOM     31  C   UNL     1       1.125   2.538  -5.039  0.00  0.00    +0.304 C 
ATOM     32  O   UNL     1       1.999   1.927  -5.606  0.00  0.00    -0.251 OA
ATOM     33  C   UNL     1      -0.149   2.881  -5.768  0.00  0.00    +0.136 C 
ENDBRANCH  30  31
ENDBRANCH  29  30
ENDBRANCH   3  29
TORSDOF 9
