REMARK  Name = ZINC12098498
REMARK  15 active torsions:
REMARK  status: ('A' for Active; 'I' for Inactive)
REMARK    1  A    between atoms: C_1  and  C_2
REMARK    2  A    between atoms: C_2  and  C_3
REMARK    3  A    between atoms: C_2  and  C_4
REMARK    4  A    between atoms: C_4  and  C_5
REMARK    5  A    between atoms: C_8  and  C_11
REMARK    6  A    between atoms: C_19  and  C_23
REMARK    7  A    between atoms: C_23  and  C_25
REMARK    8  A    between atoms: C_23  and  N_29
REMARK    9  A    between atoms: C_25  and  C_26
REMARK   10  A    between atoms: C_26  and  C_27
REMARK   11  A    between atoms: C_26  and  C_28
REMARK   12  A    between atoms: C_30  and  C_32
REMARK   13  A    between atoms: C_32  and  N_74
REMARK   14  A    between atoms: C_33  and  N_74
REMARK   15  A    between atoms: C_34  and  N_74
REMARK                            x       y       z     vdW  Elec       q    Type
REMARK                         _______ _______ _______ _____ _____    ______ ____
ROOT
ATOM      1  C   UNL     1       3.561   3.455   6.541  0.00  0.00    +0.247 C 
ATOM      2  O   UNL     1       3.689   4.558   6.048  0.00  0.00    -0.270 OA
ATOM      3  N   UNL     1       3.840   2.355   5.814  0.00  0.00    -0.295 N 
ATOM      4  C   UNL     1       3.816   1.029   6.434  0.00  0.00    +0.116 C 
ATOM      5  C   UNL     1       4.864   0.151   5.743  0.00  0.00    +0.095 C 
ATOM      6  C   UNL     1       4.270  -0.435   4.490  0.00  0.00    +0.135 A 
ATOM      7  N   UNL     1       4.352  -1.676   4.097  0.00  0.00    -0.134 NA
ATOM      8  N   UNL     1       3.767  -1.806   2.958  0.00  0.00    -0.132 NA
ATOM      9  C   UNL     1       3.287  -0.653   2.576  0.00  0.00    +0.154 A 
ATOM     10  N   UNL     1       3.572   0.244   3.551  0.00  0.00    -0.312 N 
ATOM     11  C   UNL     1       3.169   1.650   3.572  0.00  0.00    +0.144 C 
ATOM     12  C   UNL     1       4.173   2.471   4.385  0.00  0.00    +0.129 C 
ENDROOT
BRANCH   1  16
ATOM     13  C   UNL     1       2.235   3.064  10.558  0.00  0.00    -0.047 A 
ATOM     14  C   UNL     1       2.965   4.176  10.179  0.00  0.00    +0.004 A 
ATOM     15  C   UNL     1       3.399   4.309   8.876  0.00  0.00    +0.013 A 
ATOM     16  C   UNL     1       3.100   3.319   7.939  0.00  0.00    +0.037 A 
ATOM     17  C   UNL     1       2.358   2.202   8.327  0.00  0.00    +0.013 A 
ATOM     18  C   UNL     1       1.935   2.078   9.634  0.00  0.00    +0.004 A 
BRANCH  13  19
ATOM     19  C   UNL     1       1.766   2.925  11.983  0.00  0.00    +0.038 C 
BRANCH  19  21
ATOM     20  C   UNL     1      -0.147   3.316  13.542  0.00  0.00    +0.007 C 
ATOM     21  C   UNL     1       0.384   3.566  12.129  0.00  0.00    -0.013 C 
ATOM     22  C   UNL     1       0.492   5.072  11.884  0.00  0.00    +0.007 C 
ENDBRANCH  19  21
ENDBRANCH  13  19
ENDBRANCH   1  16
BRANCH   9  23
ATOM     23  C   UNL     1       2.547  -0.374   1.293  0.00  0.00    +0.141 C 
BRANCH  23  24
ATOM     24  N   UNL     1       3.250  -1.008   0.176  0.00  0.00    -0.307 N 
ATOM     25  C   UNL     1       3.110  -0.520  -1.073  0.00  0.00    +0.197 C 
ATOM     26  O   UNL     1       2.402   0.444  -1.271  0.00  0.00    -0.278 OA
ATOM     27  H   UNL     1       3.817  -1.780   0.335  0.00  0.00    +0.149 HD
BRANCH  25  28
ATOM     28  C   UNL     1       3.834  -1.173  -2.222  0.00  0.00    +0.018 C 
BRANCH  28  31
ATOM     29  C   UNL     1       4.061   0.905  -3.443  0.00  0.00    -0.096 C 
ATOM     30  C   UNL     1       4.010  -1.201  -4.637  0.00  0.00    -0.096 C 
ATOM     31  N   UNL     1       3.490  -0.458  -3.469  0.00  0.00    +0.382 N 
ATOM     32  H   UNL     1       2.469  -0.391  -3.545  0.00  0.00    -0.082 HD
ENDBRANCH  28  31
ENDBRANCH  25  28
ENDBRANCH  23  24
BRANCH  23  33
ATOM     33  C   UNL     1       1.128  -0.939   1.389  0.00  0.00    +0.033 C 
BRANCH  33  34
ATOM     34  C   UNL     1       0.338  -0.547   0.139  0.00  0.00    -0.015 C 
ATOM     35  C   UNL     1       0.167   0.973   0.099  0.00  0.00    +0.007 C 
ATOM     36  C   UNL     1      -1.038  -1.215   0.176  0.00  0.00    +0.007 C 
ENDBRANCH  33  34
ENDBRANCH  23  33
ENDBRANCH   9  23
TORSDOF 9
