REMARK  Name = ZINC28662230
REMARK  8 active torsions:
REMARK  status: ('A' for Active; 'I' for Inactive)
REMARK    1  A    between atoms: C_1  and  C_2
REMARK    2  A    between atoms: C_5  and  N_30
REMARK    3  A    between atoms: C_7  and  N_8
REMARK    4  A    between atoms: C_9  and  C_11
REMARK    5  A    between atoms: C_11  and  C_13
REMARK    6  A    between atoms: C_11  and  S_14
REMARK    7  A    between atoms: S_14  and  C_15
REMARK    8  A    between atoms: C_23  and  C_25
REMARK                            x       y       z     vdW  Elec       q    Type
REMARK                         _______ _______ _______ _____ _____    ______ ____
ROOT
ATOM      1  C   UNL     1       5.012   4.658  -0.005  0.00  0.00    +0.136 C 
ATOM      2  C   UNL     1       4.792   5.439  -1.302  0.00  0.00    +0.029 C 
ENDROOT
BRANCH   1   4
ATOM      3  N   UNL     1       7.370   5.092   0.601  0.00  0.00    -0.284 N 
ATOM      4  C   UNL     1       6.457   4.242   0.092  0.00  0.00    +0.230 C 
ATOM      5  O   UNL     1       6.798   3.142  -0.288  0.00  0.00    -0.274 OA
ATOM      6  H   UNL     1       7.079   6.120   0.862  0.00  0.00    +0.155 HD
BRANCH   3  13
ATOM      7  C   UNL     1       9.429   7.056   0.613  0.00  0.00    +0.045 C 
ATOM      8  C   UNL     1       9.723   5.592   0.812  0.00  0.00    -0.029 A 
ATOM      9  C   UNL     1      11.023   5.169   1.012  0.00  0.00    +0.007 A 
ATOM     10  C   UNL     1      11.295   3.825   1.190  0.00  0.00    +0.033 A 
ATOM     11  C   UNL     1      10.267   2.900   1.172  0.00  0.00    +0.128 A 
ATOM     12  C   UNL     1       8.965   3.317   0.977  0.00  0.00    +0.056 A 
ATOM     13  C   UNL     1       8.688   4.667   0.799  0.00  0.00    +0.038 A 
BRANCH  11  14
ATOM     14  N   UNL     1      10.562   1.462   1.361  0.00  0.00    +0.056 N 
ATOM     15  O   UNL     1       9.657   0.647   1.346  0.00  0.00    -0.126 OA
ATOM     16  O   UNL     1      11.710   1.094   1.533  0.00  0.00    -0.126 OA
ENDBRANCH  11  14
ENDBRANCH   3  13
ENDBRANCH   1   4
BRANCH   1  17
ATOM     17  S   UNL     1       3.958   3.186  -0.002  0.00  0.00    -0.093 S 
BRANCH  17  18
ATOM     18  C   UNL     1       2.369   3.947   0.030  0.00  0.00    +0.109 A 
ATOM     19  C   UNL     1       1.147   3.145   0.042  0.00  0.00    +0.032 A 
ATOM     20  C   UNL     1       1.172   1.748   0.029  0.00  0.00    +0.012 A 
ATOM     21  C   UNL     1      -0.004   1.055   0.042  0.00  0.00    +0.001 A 
ATOM     22  C   UNL     1      -1.226   1.722   0.062  0.00  0.00    +0.002 A 
ATOM     23  C   UNL     1      -1.284   3.084   0.081  0.00  0.00    +0.028 A 
ATOM     24  C   UNL     1      -0.095   3.827   0.068  0.00  0.00    +0.076 A 
ATOM     25  N   UNL     1      -0.094   5.166   0.081  0.00  0.00    -0.225 NA
ATOM     26  C   UNL     1       1.040   5.845   0.069  0.00  0.00    +0.197 A 
ATOM     27  N   UNL     1       2.241   5.267   0.044  0.00  0.00    -0.218 NA
BRANCH  26  28
ATOM     28  C   UNL     1       0.973   7.318   0.083  0.00  0.00    +0.172 A 
ATOM     29  C   UNL     1       2.037   8.167   0.074  0.00  0.00    +0.053 A 
ATOM     30  C   UNL     1       1.514   9.473   0.094  0.00  0.00    +0.042 A 
ATOM     31  C   UNL     1       0.170   9.361   0.114  0.00  0.00    +0.196 A 
ATOM     32  O   UNL     1      -0.153   8.059   0.102  0.00  0.00    -0.460 OA
ENDBRANCH  26  28
ENDBRANCH  17  18
ENDBRANCH   1  17
TORSDOF 6
