REMARK  Name = ZINC63213219
REMARK  6 active torsions:
REMARK  status: ('A' for Active; 'I' for Inactive)
REMARK    1  A    between atoms: C_1  and  C_2
REMARK    2  A    between atoms: C_4  and  S_8
REMARK    3  A    between atoms: N_6  and  C_7
REMARK    4  A    between atoms: S_8  and  N_11
REMARK    5  A    between atoms: N_11  and  C_12
REMARK    6  A    between atoms: C_19  and  N_21
REMARK                            x       y       z     vdW  Elec       q    Type
REMARK                         _______ _______ _______ _____ _____    ______ ____
ROOT
ATOM      1  N   UNL     1      -0.760  -2.992  -3.153  0.00  0.00    -0.187 NA
ATOM      2  H   UNL     1      -1.594  -3.427  -3.390  0.00  0.00    +0.148 HD
ENDROOT
BRANCH   1   3
ATOM      3  C   UNL     1      -0.211  -1.941  -4.013  0.00  0.00    +0.062 C 
ATOM      4  C   UNL     1       0.646  -2.596  -5.112  0.00  0.00    +0.019 C 
ATOM      5  C   UNL     1       0.905  -1.670  -6.269  0.00  0.00    +0.001 C 
ATOM      6  C   UNL     1      -0.165  -1.925  -7.351  0.00  0.00    -0.000 C 
ATOM      7  C   UNL     1      -1.428  -1.269  -7.048  0.00  0.00    -0.002 C 
ATOM      8  C   UNL     1      -2.058  -1.782  -5.738  0.00  0.00    -0.015 C 
ATOM      9  C   UNL     1      -1.375  -1.107  -4.583  0.00  0.00    -0.056 C 
BRANCH   9  10
ATOM     10  N   UNL     1      -2.361  -0.878  -3.519  0.00  0.00    +0.381 N 
ATOM     11  H   UNL     1      -1.925  -0.380  -2.758  0.00  0.00    -0.090 HD
ATOM     12  H   UNL     1      -3.128  -0.332  -3.883  0.00  0.00    -0.090 HD
ATOM     13  H   UNL     1      -2.708  -1.765  -3.185  0.00  0.00    -0.090 HD
ENDBRANCH   9  10
ENDBRANCH   1   3
BRANCH   1  14
ATOM     14  S   UNL     1       0.042  -3.437  -1.774  0.00  0.00    +0.077 S 
ATOM     15  O   UNL     1       1.398  -3.650  -2.144  0.00  0.00    -0.152 OA
ATOM     16  O   UNL     1      -0.745  -4.444  -1.153  0.00  0.00    -0.152 OA
BRANCH  14  20
ATOM     17  C   UNL     1      -0.018   1.503   0.010  0.00  0.00    +0.086 C 
ATOM     18  C   UNL     1       0.002  -0.004   0.002  0.00  0.00    +0.109 A 
ATOM     19  N   UNL     1       0.008  -0.759  -1.063  0.00  0.00    -0.213 NA
ATOM     20  C   UNL     1       0.028  -2.047  -0.691  0.00  0.00    +0.211 A 
ATOM     21  C   UNL     1       0.034  -2.093   0.655  0.00  0.00    +0.135 A 
ATOM     22  N   UNL     1       0.023  -0.797   1.095  0.00  0.00    -0.336 N 
ATOM     23  C   UNL     1       0.030  -0.353   2.491  0.00  0.00    +0.150 C 
ENDBRANCH  14  20
ENDBRANCH   1  14
TORSDOF 4
