REMARK  Name = ZINC39938340
REMARK  8 active torsions:
REMARK  status: ('A' for Active; 'I' for Inactive)
REMARK    1  A    between atoms: C_1  and  C_2
REMARK    2  A    between atoms: C_5  and  C_8
REMARK    3  A    between atoms: C_12  and  C_14
REMARK    4  A    between atoms: C_14  and  N_15
REMARK    5  A    between atoms: C_18  and  C_21
REMARK    6  A    between atoms: C_21  and  C_22
REMARK    7  A    between atoms: C_21  and  C_28
REMARK    8  A    between atoms: C_21  and  O_34
REMARK                            x       y       z     vdW  Elec       q    Type
REMARK                         _______ _______ _______ _____ _____    ______ ____
ROOT
ATOM      1  N   UNL     1      -0.963  -5.788   3.231  0.00  0.00    +0.380 N 
ATOM      2  C   UNL     1      -0.832  -7.197   2.842  0.00  0.00    -0.078 C 
ATOM      3  C   UNL     1      -0.524  -8.045   4.078  0.00  0.00    -0.012 C 
ATOM      4  C   UNL     1      -1.665  -7.898   5.089  0.00  0.00    +0.026 C 
ATOM      5  C   UNL     1      -1.841  -6.415   5.431  0.00  0.00    -0.012 C 
ATOM      6  C   UNL     1      -2.100  -5.628   4.145  0.00  0.00    -0.078 C 
ATOM      7  H   UNL     1      -0.117  -5.489   3.693  0.00  0.00    -0.082 HD
ENDROOT
BRANCH   1   8
ATOM      8  C   UNL     1      -1.181  -4.969   2.032  0.00  0.00    -0.063 C 
BRANCH   8  13
ATOM      9  C   UNL     1      -1.468  -2.619   1.212  0.00  0.00    +0.077 C 
ATOM     10  N   UNL     1      -0.412  -1.878   1.025  0.00  0.00    -0.153 NA
ATOM     11  N   UNL     1       0.587  -2.141   1.956  0.00  0.00    -0.161 NA
ATOM     12  C   UNL     1       0.248  -3.062   2.799  0.00  0.00    +0.115 C 
ATOM     13  C   UNL     1      -1.155  -3.488   2.414  0.00  0.00    +0.066 C 
BRANCH   9  18
ATOM     14  C   UNL     1      -6.319  -2.588  -1.874  0.00  0.00    +0.044 C 
ATOM     15  C   UNL     1      -5.047  -2.596  -1.065  0.00  0.00    -0.050 A 
ATOM     16  C   UNL     1      -4.011  -1.742  -1.402  0.00  0.00    +0.004 A 
ATOM     17  C   UNL     1      -2.845  -1.744  -0.667  0.00  0.00    +0.010 A 
ATOM     18  C   UNL     1      -2.710  -2.611   0.422  0.00  0.00    -0.001 A 
ATOM     19  C   UNL     1      -3.762  -3.470   0.757  0.00  0.00    +0.010 A 
ATOM     20  C   UNL     1      -4.924  -3.453   0.015  0.00  0.00    +0.004 A 
ENDBRANCH   9  18
ENDBRANCH   8  13
ENDBRANCH   1   8
BRANCH   4  21
ATOM     21  C   UNL     1      -1.326  -8.680   6.360  0.00  0.00    +0.119 C 
BRANCH  21  22
ATOM     22  C   UNL     1      -2.450  -8.533   7.353  0.00  0.00    -0.011 A 
ATOM     23  C   UNL     1      -3.748  -8.360   6.909  0.00  0.00    +0.007 A 
ATOM     24  C   UNL     1      -4.778  -8.226   7.820  0.00  0.00    +0.000 A 
ATOM     25  C   UNL     1      -4.511  -8.265   9.176  0.00  0.00    +0.000 A 
ATOM     26  C   UNL     1      -3.214  -8.439   9.620  0.00  0.00    +0.000 A 
ATOM     27  C   UNL     1      -2.184  -8.578   8.709  0.00  0.00    +0.007 A 
ENDBRANCH  21  22
BRANCH  21  28
ATOM     28  C   UNL     1      -1.143 -10.136   6.020  0.00  0.00    -0.011 A 
ATOM     29  C   UNL     1      -1.836 -10.691   4.960  0.00  0.00    +0.007 A 
ATOM     30  C   UNL     1      -1.668 -12.027   4.648  0.00  0.00    +0.000 A 
ATOM     31  C   UNL     1      -0.806 -12.808   5.395  0.00  0.00    +0.000 A 
ATOM     32  C   UNL     1      -0.113 -12.253   6.454  0.00  0.00    +0.000 A 
ATOM     33  C   UNL     1      -0.278 -10.916   6.764  0.00  0.00    +0.007 A 
ENDBRANCH  21  28
BRANCH  21  34
ATOM     34  O   UNL     1      -0.119  -8.167   6.927  0.00  0.00    -0.379 OA
ATOM     35  H   UNL     1      -0.165  -7.232   7.171  0.00  0.00    +0.211 HD
ENDBRANCH  21  34
ENDBRANCH   4  21
TORSDOF 7
