REMARK  Name = ZINC09836170
REMARK  8 active torsions:
REMARK  status: ('A' for Active; 'I' for Inactive)
REMARK    1  A    between atoms: C_1  and  C_2
REMARK    2  A    between atoms: C_8  and  C_9
REMARK    3  A    between atoms: C_8  and  N_61
REMARK    4  A    between atoms: C_9  and  C_10
REMARK    5  A    between atoms: C_10  and  N_11
REMARK    6  A    between atoms: C_12  and  C_14
REMARK    7  A    between atoms: C_14  and  O_33
REMARK    8  A    between atoms: N_24  and  C_25
REMARK                            x       y       z     vdW  Elec       q    Type
REMARK                         _______ _______ _______ _____ _____    ______ ____
ROOT
ATOM      1  C   UNL     1       0.086  -0.378  -0.183  0.00  0.00    +0.247 C 
ATOM      2  C   UNL     1       0.817  -0.814   1.066  0.00  0.00    +0.033 A 
ATOM      3  C   UNL     1       2.189  -0.760   1.147  0.00  0.00    +0.010 A 
ATOM      4  C   UNL     1       2.825  -1.167   2.308  0.00  0.00    +0.001 A 
ATOM      5  C   UNL     1       2.082  -1.626   3.380  0.00  0.00    +0.002 A 
ATOM      6  C   UNL     1       0.704  -1.681   3.301  0.00  0.00    +0.024 A 
ATOM      7  C   UNL     1       0.061  -1.273   2.139  0.00  0.00    +0.043 A 
ATOM      8  N   UNL     1      -1.329  -1.320   2.040  0.00  0.00    -0.269 N 
ATOM      9  C   UNL     1      -1.995  -0.938   0.942  0.00  0.00    +0.314 C 
ATOM     10  O   UNL     1      -3.208  -1.013   0.945  0.00  0.00    -0.252 OA
ATOM     11  N   UNL     1      -1.383  -0.476  -0.164  0.00  0.00    -0.214 N 
ATOM     12  H   UNL     1      -1.837  -1.643   2.800  0.00  0.00    +0.156 HD
ENDROOT
BRANCH  11  13
ATOM     13  C   UNL     1      -2.134  -0.092  -1.281  0.00  0.00    +0.043 A 
ATOM     14  C   UNL     1      -2.480   1.240  -1.462  0.00  0.00    +0.025 A 
ATOM     15  C   UNL     1      -3.215   1.618  -2.568  0.00  0.00    +0.023 A 
ATOM     16  C   UNL     1      -3.618   0.668  -3.490  0.00  0.00    +0.059 A 
ATOM     17  C   UNL     1      -3.280  -0.663  -3.309  0.00  0.00    +0.061 A 
ATOM     18  C   UNL     1      -2.539  -1.044  -2.207  0.00  0.00    +0.045 A 
ATOM     19 CL   UNL     1      -3.787  -1.852  -4.468  0.00  0.00    -0.082 Cl
ATOM     20 CL   UNL     1      -4.549   1.145  -4.876  0.00  0.00    -0.082 Cl
ENDBRANCH  11  13
BRANCH   1  22
ATOM     21  N   UNL     1       0.307  -2.529  -1.386  0.00  0.00    -0.311 N 
ATOM     22  C   UNL     1       0.592  -1.212  -1.332  0.00  0.00    +0.269 C 
ATOM     23  O   UNL     1       1.255  -0.699  -2.208  0.00  0.00    -0.270 OA
ATOM     24  H   UNL     1      -0.223  -2.939  -0.685  0.00  0.00    +0.149 HD
BRANCH  21  25
ATOM     25  C   UNL     1       0.798  -3.339  -2.503  0.00  0.00    +0.102 C 
BRANCH  25  26
ATOM     26  C   UNL     1       0.338  -4.787  -2.323  0.00  0.00    +0.000 C 
BRANCH  26  27
ATOM     27  C   UNL     1       0.851  -5.634  -3.489  0.00  0.00    -0.077 C 
BRANCH  27  34
ATOM     28  C   UNL     1       2.407  -7.405  -1.953  0.00  0.00    -0.013 C 
ATOM     29  C   UNL     1       0.889  -7.575  -2.042  0.00  0.00    -0.072 C 
ATOM     30  C   UNL     1       0.536  -9.062  -1.962  0.00  0.00    -0.016 C 
ATOM     31  C   UNL     1      -0.982  -9.227  -2.072  0.00  0.00    -0.003 C 
ATOM     32  C   UNL     1      -1.462  -8.604  -3.386  0.00  0.00    -0.019 C 
ATOM     33  C   UNL     1      -1.051  -7.130  -3.425  0.00  0.00    -0.078 C 
ATOM     34  N   UNL     1       0.422  -7.040  -3.339  0.00  0.00    +0.381 N 
ATOM     35  H   UNL     1       0.834  -7.597  -4.097  0.00  0.00    -0.081 HD
ENDBRANCH  27  34
ENDBRANCH  26  27
ENDBRANCH  25  26
ENDBRANCH  21  25
ENDBRANCH   1  22
BRANCH   1  36
ATOM     36  O   UNL     1       0.434   0.983  -0.445  0.00  0.00    -0.360 OA
ATOM     37  H   UNL     1       1.380   1.127  -0.587  0.00  0.00    +0.213 HD
ENDBRANCH   1  36
TORSDOF 7
