REMARK  Name = ZINC35450496
REMARK  11 active torsions:
REMARK  status: ('A' for Active; 'I' for Inactive)
REMARK    1  A    between atoms: C_1  and  C_2
REMARK    2  A    between atoms: C_2  and  C_3
REMARK    3  A    between atoms: C_3  and  C_5
REMARK    4  A    between atoms: C_3  and  S_6
REMARK    5  A    between atoms: S_6  and  C_7
REMARK    6  A    between atoms: C_14  and  C_26
REMARK    7  A    between atoms: C_20  and  C_24
REMARK    8  A    between atoms: C_20  and  C_25
REMARK    9  A    between atoms: C_29  and  C_32
REMARK   10  A    between atoms: C_32  and  C_33
REMARK   11  A    between atoms: C_32  and  C_34
REMARK                            x       y       z     vdW  Elec       q    Type
REMARK                         _______ _______ _______ _____ _____    ______ ____
ROOT
ATOM      1  C   UNL     1       3.154  -0.528   2.698  0.00  0.00    +0.171 A 
ATOM      2  N   UNL     1       2.375  -1.137   3.569  0.00  0.00    -0.208 NA
ATOM      3  C   UNL     1       2.849  -1.548   4.750  0.00  0.00    +0.135 A 
ATOM      4  C   UNL     1       4.178  -1.337   5.070  0.00  0.00    +0.069 A 
ATOM      5  C   UNL     1       5.002  -0.688   4.143  0.00  0.00    +0.258 A 
ATOM      6  O   UNL     1       6.179  -0.483   4.392  0.00  0.00    -0.267 OA
ATOM      7  N   UNL     1       4.470  -0.297   2.965  0.00  0.00    -0.302 N 
ATOM      8  C   UNL     1       4.734  -1.799   6.384  0.00  0.00    +0.092 C 
ATOM      9  C   UNL     1       3.635  -2.073   7.379  0.00  0.00    +0.024 C 
ATOM     10  C   UNL     1       2.357  -2.246   6.980  0.00  0.00    +0.017 C 
ATOM     11  N   UNL     1       2.019  -2.179   5.656  0.00  0.00    -0.302 N 
ATOM     12  C   UNL     1       1.260  -2.514   7.982  0.00  0.00    +0.058 C 
ATOM     13  C   UNL     1       1.832  -3.277   9.179  0.00  0.00    -0.023 C 
ATOM     14  C   UNL     1       2.955  -2.437   9.796  0.00  0.00    +0.086 C 
ATOM     15  C   UNL     1       3.985  -2.145   8.739  0.00  0.00    +0.162 C 
ATOM     16  O   UNL     1       5.141  -1.967   9.068  0.00  0.00    -0.292 OA
ATOM     17  C   UNL     1       2.392  -4.622   8.712  0.00  0.00    +0.011 C 
ATOM     18  C   UNL     1       0.732  -3.508  10.216  0.00  0.00    +0.011 C 
ATOM     19  H   UNL     1       1.189  -2.578   5.351  0.00  0.00    +0.153 HD
ATOM     20  H   UNL     1       5.026   0.152   2.308  0.00  0.00    +0.171 HD
ENDROOT
BRANCH   8  21
ATOM     21  C   UNL     1       5.528  -3.062   6.168  0.00  0.00    -0.035 A 
ATOM     22  C   UNL     1       4.913  -4.182   5.641  0.00  0.00    +0.005 A 
ATOM     23  C   UNL     1       5.641  -5.341   5.442  0.00  0.00    +0.004 A 
ATOM     24  C   UNL     1       6.983  -5.378   5.770  0.00  0.00    -0.045 A 
ATOM     25  C   UNL     1       7.598  -4.257   6.296  0.00  0.00    +0.004 A 
ATOM     26  C   UNL     1       6.871  -3.098   6.490  0.00  0.00    +0.005 A 
BRANCH  24  27
ATOM     27  C   UNL     1       7.777  -6.641   5.554  0.00  0.00    +0.013 C 
ATOM     28  C   UNL     1       8.927  -6.362   4.585  0.00  0.00    +0.012 C 
ATOM     29  C   UNL     1       8.342  -7.123   6.891  0.00  0.00    +0.012 C 
ENDBRANCH  24  27
ENDBRANCH   8  21
BRANCH   1  30
ATOM     30  S   UNL     1       2.482  -0.007   1.155  0.00  0.00    -0.085 S 
BRANCH  30  31
ATOM     31  C   UNL     1       0.742  -0.511   1.242  0.00  0.00    +0.051 C 
ATOM     32  C   UNL     1       0.655  -2.037   1.299  0.00  0.00    +0.019 C 
BRANCH  31  34
ATOM     33  C   UNL     1      -0.019   1.526   0.010  0.00  0.00    +0.005 C 
ATOM     34  C   UNL     1       0.002  -0.004   0.002  0.00  0.00    +0.011 C 
ENDBRANCH  31  34
ENDBRANCH  30  31
ENDBRANCH   1  30
TORSDOF 5
