REMARK  Name = ZINC44973526
REMARK  8 active torsions:
REMARK  status: ('A' for Active; 'I' for Inactive)
REMARK    1  A    between atoms: C_1  and  C_2
REMARK    2  A    between atoms: C_2  and  C_3
REMARK    3  A    between atoms: C_3  and  S_4
REMARK    4  A    between atoms: S_4  and  C_5
REMARK    5  A    between atoms: C_14  and  C_16
REMARK    6  A    between atoms: C_19  and  N_22
REMARK    7  A    between atoms: C_28  and  C_30
REMARK    8  A    between atoms: C_28  and  C_31
REMARK                            x       y       z     vdW  Elec       q    Type
REMARK                         _______ _______ _______ _____ _____    ______ ____
ROOT
ATOM      1  C   UNL     1      -3.112  -2.797   0.017  0.00  0.00    +0.192 A 
ATOM      2  N   UNL     1      -4.031  -1.842   0.025  0.00  0.00    -0.207 NA
ATOM      3  C   UNL     1      -5.328  -2.142   0.034  0.00  0.00    +0.126 A 
ATOM      4  C   UNL     1      -5.709  -3.482   0.034  0.00  0.00    +0.044 A 
ATOM      5  C   UNL     1      -4.718  -4.453   0.028  0.00  0.00    +0.133 A 
ATOM      6  N   UNL     1      -3.441  -4.081   0.013  0.00  0.00    -0.206 NA
ATOM      7  N   UNL     1      -5.068  -5.792   0.037  0.00  0.00    -0.302 N 
ATOM      8  C   UNL     1      -6.320  -6.180   0.429  0.00  0.00    +0.017 C 
ATOM      9  C   UNL     1      -7.347  -5.304   0.447  0.00  0.00    +0.024 C 
ATOM     10  C   UNL     1      -7.158  -3.865   0.037  0.00  0.00    +0.090 C 
ATOM     11  C   UNL     1      -8.634  -5.706   0.846  0.00  0.00    +0.162 C 
ATOM     12  O   UNL     1      -9.531  -4.888   0.872  0.00  0.00    -0.292 OA
ATOM     13  C   UNL     1      -8.922  -7.128   1.240  0.00  0.00    +0.086 C 
ATOM     14  C   UNL     1      -7.947  -8.056   0.508  0.00  0.00    -0.023 C 
ATOM     15  C   UNL     1      -6.519  -7.618   0.844  0.00  0.00    +0.058 C 
ATOM     16  C   UNL     1      -8.165  -9.499   0.967  0.00  0.00    +0.011 C 
ATOM     17  C   UNL     1      -8.174  -7.955  -1.002  0.00  0.00    +0.011 C 
ATOM     18  N   UNL     1      -6.284  -1.139   0.043  0.00  0.00    -0.343 N 
ATOM     19  H   UNL     1      -4.421  -6.461  -0.237  0.00  0.00    +0.153 HD
ATOM     20  H   UNL     1      -6.010  -0.208   0.043  0.00  0.00    +0.144 HD
ATOM     21  H   UNL     1      -7.226  -1.367   0.049  0.00  0.00    +0.144 HD
ENDROOT
BRANCH  10  22
ATOM     22  C   UNL     1      -7.722  -3.669  -1.347  0.00  0.00    -0.035 A 
ATOM     23  C   UNL     1      -7.193  -4.369  -2.415  0.00  0.00    +0.007 A 
ATOM     24  C   UNL     1      -7.710  -4.189  -3.684  0.00  0.00    +0.033 A 
ATOM     25  C   UNL     1      -8.758  -3.309  -3.885  0.00  0.00    +0.126 A 
ATOM     26  C   UNL     1      -9.288  -2.610  -2.817  0.00  0.00    +0.033 A 
ATOM     27  C   UNL     1      -8.773  -2.793  -1.547  0.00  0.00    +0.007 A 
BRANCH  25  28
ATOM     28  N   UNL     1      -9.312  -3.116  -5.244  0.00  0.00    +0.056 N 
ATOM     29  O   UNL     1      -8.848  -3.727  -6.178  0.00  0.00    -0.126 OA
ATOM     30  O   UNL     1     -10.227  -2.347  -5.420  0.00  0.00    -0.126 OA
ENDBRANCH  25  28
ENDBRANCH  10  22
BRANCH   1  31
ATOM     31  S   UNL     1      -1.409  -2.348   0.003  0.00  0.00    -0.086 S 
BRANCH  31  32
ATOM     32  C   UNL     1      -1.433  -0.534   0.013  0.00  0.00    +0.077 C 
BRANCH  32  34
ATOM     33  C   UNL     1      -0.019   1.526   0.010  0.00  0.00    +0.004 C 
ATOM     34  C   UNL     1       0.002  -0.004   0.002  0.00  0.00    +0.008 C 
ENDBRANCH  32  34
ENDBRANCH  31  32
ENDBRANCH   1  31
TORSDOF 5
