REMARK  Name = ZINC32716841
REMARK  9 active torsions:
REMARK  status: ('A' for Active; 'I' for Inactive)
REMARK    1  A    between atoms: C_4  and  C_7
REMARK    2  A    between atoms: C_7  and  O_8
REMARK    3  A    between atoms: O_8  and  C_9
REMARK    4  A    between atoms: N_11  and  C_12
REMARK    5  A    between atoms: C_12  and  C_14
REMARK    6  A    between atoms: C_12  and  C_25
REMARK    7  A    between atoms: C_14  and  C_15
REMARK    8  A    between atoms: N_27  and  C_28
REMARK    9  A    between atoms: C_28  and  C_29
REMARK                            x       y       z     vdW  Elec       q    Type
REMARK                         _______ _______ _______ _____ _____    ______ ____
ROOT
ATOM      1  C   UNL     1       1.278   2.115   0.001  0.00  0.00    +0.166 C 
ENDROOT
BRANCH   1   4
ATOM      2  C   UNL     1       1.901   4.417   0.501  0.00  0.00    +0.401 C 
ATOM      3  O   UNL     1       2.960   4.006   0.933  0.00  0.00    -0.226 OA
ATOM      4  N   UNL     1       0.991   3.551   0.012  0.00  0.00    -0.269 N 
ATOM      5  H   UNL     1       0.033   3.924  -0.380  0.00  0.00    +0.153 HD
BRANCH   2   6
ATOM      6  O   UNL     1       1.637   5.737   0.510  0.00  0.00    -0.446 OA
BRANCH   6   7
ATOM      7  C   UNL     1       2.663   6.610   1.052  0.00  0.00    +0.269 C 
BRANCH   7  11
ATOM      8  C   UNL     1       1.333  10.665   0.850  0.00  0.00    +0.000 A 
ATOM      9  C   UNL     1       1.063   9.904   1.972  0.00  0.00    +0.000 A 
ATOM     10  C   UNL     1       1.493   8.592   2.037  0.00  0.00    +0.007 A 
ATOM     11  C   UNL     1       2.194   8.041   0.981  0.00  0.00    -0.010 A 
ATOM     12  C   UNL     1       2.469   8.803  -0.139  0.00  0.00    +0.007 A 
ATOM     13  C   UNL     1       2.035  10.114  -0.206  0.00  0.00    +0.000 A 
ENDBRANCH   7  11
ENDBRANCH   6   7
ENDBRANCH   2   6
ENDBRANCH   1   4
BRANCH   1  14
ATOM     14  C   UNL     1      -0.016   1.344   0.009  0.00  0.00    +0.234 C 
ATOM     15  O   UNL     1      -1.075   1.936   0.018  0.00  0.00    -0.274 OA
ATOM     16  N   UNL     1       0.002  -0.004   0.002  0.00  0.00    -0.307 N 
ATOM     17  H   UNL     1       0.962  -0.541  -0.010  0.00  0.00    +0.149 HD
BRANCH  16  18
ATOM     18  C   UNL     1      -1.256  -0.754   0.010  0.00  0.00    +0.181 C 
BRANCH  18  19
ATOM     19  C   UNL     1      -0.961  -2.232  -0.001  0.00  0.00    +0.155 A 
ATOM     20  N   UNL     1      -0.800  -2.996   1.049  0.00  0.00    -0.132 NA
ATOM     21  N   UNL     1      -0.561  -4.207   0.686  0.00  0.00    -0.129 NA
ATOM     22  C   UNL     1      -0.557  -4.280  -0.635  0.00  0.00    +0.161 A 
ATOM     23  N   UNL     1      -0.819  -3.015  -1.104  0.00  0.00    -0.285 N 
ATOM     24  C   UNL     1      -0.874  -2.773  -2.445  0.00  0.00    +0.094 A 
ATOM     25  C   UNL     1      -0.682  -3.773  -3.330  0.00  0.00    +0.018 A 
ATOM     26  C   UNL     1      -0.417  -5.079  -2.881  0.00  0.00    +0.005 A 
ATOM     27  C   UNL     1      -0.355  -5.334  -1.547  0.00  0.00    +0.048 A 
ENDBRANCH  18  19
ENDBRANCH  16  18
ENDBRANCH   1  14
BRANCH   1  28
ATOM     28  C   UNL     1       2.074   1.763  -1.258  0.00  0.00    +0.069 C 
BRANCH  28  29
ATOM     29  C   UNL     1       3.420   2.438  -1.206  0.00  0.00    -0.020 A 
ATOM     30  C   UNL     1       3.745   3.613  -1.767  0.00  0.00    +0.087 A 
ATOM     31  N   UNL     1       5.057   3.907  -1.508  0.00  0.00    -0.360 N 
ATOM     32  H   UNL     1       5.497   4.841  -1.888  0.00  0.00    +0.165 HD
ATOM     33  C   UNL     1       5.624   2.898  -0.762  0.00  0.00    +0.047 A 
ATOM     34  C   UNL     1       4.623   1.933  -0.541  0.00  0.00    +0.003 A 
ATOM     35  C   UNL     1       4.915   0.785   0.197  0.00  0.00    +0.010 A 
ATOM     36  C   UNL     1       6.172   0.602   0.700  0.00  0.00    +0.001 A 
ATOM     37  C   UNL     1       7.162   1.550   0.484  0.00  0.00    +0.002 A 
ATOM     38  C   UNL     1       6.896   2.691  -0.241  0.00  0.00    +0.026 A 
ENDBRANCH  28  29
ENDBRANCH   1  28
TORSDOF 9
