REMARK  Name = ZINC09841194
REMARK  10 active torsions:
REMARK  status: ('A' for Active; 'I' for Inactive)
REMARK    1  A    between atoms: C_1  and  C_2
REMARK    2  A    between atoms: C_3  and  C_28
REMARK    3  A    between atoms: C_4  and  C_27
REMARK    4  A    between atoms: C_9  and  S_11
REMARK    5  A    between atoms: S_11  and  C_12
REMARK    6  A    between atoms: C_12  and  C_13
REMARK    7  A    between atoms: N_15  and  C_16
REMARK    8  A    between atoms: C_21  and  C_26
REMARK    9  A    between atoms: C_23  and  C_25
REMARK   10  A    between atoms: C_28  and  C_29
REMARK                            x       y       z     vdW  Elec       q    Type
REMARK                         _______ _______ _______ _____ _____    ______ ____
ROOT
ATOM      1  C   UNL     1       0.309   0.659   2.655  0.00  0.00    +0.066 C 
ATOM      2  C   UNL     1       0.230  -0.373   1.560  0.00  0.00    +0.047 A 
ATOM      3  C   UNL     1       0.188   0.033   0.222  0.00  0.00    -0.001 A 
ATOM      4  C   UNL     1       0.112  -0.908  -0.755  0.00  0.00    +0.049 A 
ATOM      5  N   UNL     1       0.089  -2.221  -0.406  0.00  0.00    -0.200 N 
ATOM      6  C   UNL     1       0.131  -2.584   0.911  0.00  0.00    +0.254 A 
ATOM      7  N   UNL     1       0.201  -1.651   1.867  0.00  0.00    -0.216 NA
ATOM      8  N   UNL     1       0.089  -3.912   0.957  0.00  0.00    -0.183 NA
ATOM      9  C   UNL     1       0.023  -4.402  -0.279  0.00  0.00    +0.211 A 
ATOM     10  N   UNL     1       0.020  -3.409  -1.145  0.00  0.00    -0.137 NA
ATOM     11  C   UNL     1       0.059  -0.502  -2.205  0.00  0.00    +0.066 C 
ENDROOT
BRANCH   9  12
ATOM     12  S   UNL     1      -0.049  -6.114  -0.692  0.00  0.00    -0.075 S 
BRANCH  12  13
ATOM     13  C   UNL     1      -0.011  -6.955   0.915  0.00  0.00    +0.173 C 
BRANCH  13  14
ATOM     14  C   UNL     1      -0.068  -8.446   0.702  0.00  0.00    +0.224 C 
ATOM     15  O   UNL     1      -0.128  -8.896  -0.422  0.00  0.00    -0.275 OA
ATOM     16  N   UNL     1      -0.051  -9.279   1.762  0.00  0.00    -0.312 N 
ATOM     17  H   UNL     1      -0.003  -8.918   2.661  0.00  0.00    +0.149 HD
BRANCH  16  18
ATOM     18  C   UNL     1      -0.107 -10.728   1.556  0.00  0.00    +0.076 C 
ATOM     19  C   UNL     1      -1.565 -11.168   1.418  0.00  0.00    +0.022 C 
ATOM     20  C   UNL     1      -1.623 -12.682   1.202  0.00  0.00    +0.002 C 
ATOM     21  C   UNL     1      -0.987 -13.392   2.399  0.00  0.00    +0.003 C 
ATOM     22  C   UNL     1       0.472 -12.952   2.537  0.00  0.00    -0.009 C 
ATOM     23  C   UNL     1       0.530 -11.438   2.752  0.00  0.00    +0.009 C 
ATOM     24  C   UNL     1      -0.235 -11.075   4.027  0.00  0.00    +0.009 C 
ATOM     25  C   UNL     1       1.108 -13.662   3.733  0.00  0.00    +0.008 C 
ENDBRANCH  16  18
ENDBRANCH  13  14
ENDBRANCH  12  13
ENDBRANCH   9  12
BRANCH   3  26
ATOM     26  C   UNL     1       0.221   1.498  -0.132  0.00  0.00    +0.078 C 
BRANCH  26  27
ATOM     27  C   UNL     1       1.608   1.875  -0.583  0.00  0.00    +0.010 A 
ATOM     28  C   UNL     1       2.631   1.989   0.343  0.00  0.00    +0.128 A 
ATOM     29  C   UNL     1       3.906   2.330  -0.073  0.00  0.00    +0.039 A 
ATOM     30  C   UNL     1       4.156   2.567  -1.412  0.00  0.00    +0.004 A 
ATOM     31  C   UNL     1       3.134   2.458  -2.336  0.00  0.00    +0.020 A 
ATOM     32  C   UNL     1       1.859   2.112  -1.922  0.00  0.00    +0.047 A 
ATOM     33 CL   UNL     1       0.576   1.976  -3.083  0.00  0.00    -0.083 Cl
ATOM     34  F   UNL     1       2.385   1.763   1.653  0.00  0.00    -0.205 F 
ENDBRANCH  26  27
ENDBRANCH   3  26
TORSDOF 6
