REMARK  Name = ZINC47262476
REMARK  5 active torsions:
REMARK  status: ('A' for Active; 'I' for Inactive)
REMARK    1  A    between atoms: C_1  and  C_2
REMARK    2  A    between atoms: C_8  and  N_10
REMARK    3  A    between atoms: C_11  and  C_13
REMARK    4  A    between atoms: C_13  and  N_14
REMARK    5  A    between atoms: C_17  and  C_20
REMARK                            x       y       z     vdW  Elec       q    Type
REMARK                         _______ _______ _______ _____ _____    ______ ____
ROOT
ATOM      1  N   UNL     1       4.721   0.705   3.754  0.00  0.00    +0.385 N 
ATOM      2  C   UNL     1       4.805  -0.659   4.291  0.00  0.00    -0.077 C 
ATOM      3  C   UNL     1       5.264  -0.610   5.750  0.00  0.00    -0.006 C 
ATOM      4  C   UNL     1       6.641   0.055   5.824  0.00  0.00    +0.072 C 
ATOM      5  C   UNL     1       6.560   1.448   5.194  0.00  0.00    -0.006 C 
ATOM      6  C   UNL     1       6.053   1.323   3.756  0.00  0.00    -0.077 C 
ATOM      7  H   UNL     1       4.097   1.252   4.328  0.00  0.00    -0.081 HD
ENDROOT
BRANCH   4   8
ATOM      8  C   UNL     1       7.065   0.177   7.265  0.00  0.00    +0.221 C 
ATOM      9  O   UNL     1       6.338  -0.227   8.147  0.00  0.00    -0.275 OA
ATOM     10  N   UNL     1       8.252   0.736   7.573  0.00  0.00    -0.270 N 
ATOM     11  C   UNL     1       8.598   0.946   8.908  0.00  0.00    +0.125 A 
ATOM     12  C   UNL     1       9.776   1.617   9.216  0.00  0.00    +0.045 A 
ATOM     13  C   UNL     1      10.108   1.819  10.543  0.00  0.00    +0.025 A 
ATOM     14  C   UNL     1       9.246   1.340  11.522  0.00  0.00    +0.059 A 
ATOM     15  C   UNL     1       8.093   0.681  11.143  0.00  0.00    +0.132 A 
ATOM     16  N   UNL     1       7.800   0.509   9.868  0.00  0.00    -0.239 NA
ATOM     17 CL   UNL     1       9.616   1.566  13.203  0.00  0.00    -0.082 Cl
ATOM     18  H   UNL     1       8.866   0.991   6.867  0.00  0.00    +0.156 HD
ENDBRANCH   4   8
BRANCH   1  19
ATOM     19  C   UNL     1       4.206   0.658   2.379  0.00  0.00    +0.019 C 
BRANCH  19  21
ATOM     20  N   UNL     1       2.113   0.007   1.233  0.00  0.00    -0.314 N 
ATOM     21  C   UNL     1       2.792   0.137   2.390  0.00  0.00    +0.197 C 
ATOM     22  O   UNL     1       2.265  -0.165   3.440  0.00  0.00    -0.278 OA
ATOM     23  H   UNL     1       2.534   0.249   0.394  0.00  0.00    +0.149 HD
BRANCH  20  30
ATOM     24  C   UNL     1      -0.021   1.540   0.015  0.00  0.00    +0.009 C 
ATOM     25  C   UNL     1      -0.002   0.010   0.005  0.00  0.00    +0.006 C 
ATOM     26  C   UNL     1      -1.438  -0.519   0.016  0.00  0.00    +0.005 C 
ATOM     27  C   UNL     1      -1.418  -2.049   0.006  0.00  0.00    +0.000 C 
ATOM     28  C   UNL     1      -0.678  -2.557   1.245  0.00  0.00    +0.002 C 
ATOM     29  C   UNL     1       0.758  -2.029   1.234  0.00  0.00    +0.022 C 
ATOM     30  C   UNL     1       0.738  -0.499   1.244  0.00  0.00    +0.076 C 
ENDBRANCH  20  30
ENDBRANCH  19  21
ENDBRANCH   1  19
TORSDOF 4
