REMARK  Name = ZINC63386404
REMARK  12 active torsions:
REMARK  status: ('A' for Active; 'I' for Inactive)
REMARK    1  A    between atoms: C_1  and  C_2
REMARK    2  A    between atoms: C_6  and  O_8
REMARK    3  A    between atoms: O_8  and  C_9
REMARK    4  A    between atoms: C_9  and  C_11
REMARK    5  A    between atoms: C_12  and  C_36
REMARK    6  A    between atoms: C_14  and  C_19
REMARK    7  A    between atoms: C_19  and  C_20
REMARK    8  A    between atoms: N_22  and  C_23
REMARK    9  A    between atoms: C_23  and  C_24
REMARK   10  A    between atoms: C_24  and  C_25
REMARK   11  A    between atoms: C_28  and  O_34
REMARK   12  A    between atoms: O_34  and  C_35
REMARK                            x       y       z     vdW  Elec       q    Type
REMARK                         _______ _______ _______ _____ _____    ______ ____
ROOT
ATOM      1  C   UNL     1       2.279  -3.802  -1.132  0.00  0.00    +0.111 C 
ENDROOT
BRANCH   1  10
ATOM      2  C   UNL     1      -1.542   1.199   1.109  0.00  0.00    +0.044 C 
ATOM      3  C   UNL     1      -1.104  -0.213   0.820  0.00  0.00    -0.043 A 
ATOM      4  C   UNL     1      -0.789  -0.589  -0.470  0.00  0.00    +0.050 A 
ATOM      5  C   UNL     1      -0.386  -1.892  -0.745  0.00  0.00    +0.139 A 
ATOM      6  C   UNL     1      -0.305  -2.817   0.279  0.00  0.00    +0.041 A 
ATOM      7  C   UNL     1      -0.618  -2.434   1.579  0.00  0.00    +0.139 A 
ATOM      8  C   UNL     1      -1.013  -1.133   1.847  0.00  0.00    +0.050 A 
ATOM      9  C   UNL     1       0.104  -4.247   0.031  0.00  0.00    +0.037 C 
ATOM     10  C   UNL     1       0.859  -4.348  -1.298  0.00  0.00    +0.114 C 
ATOM     11  C   UNL     1       0.105  -3.519  -2.318  0.00  0.00    +0.317 C 
ATOM     12  O   UNL     1      -0.316  -4.004  -3.342  0.00  0.00    -0.250 OA
ATOM     13  O   UNL     1      -0.075  -2.215  -2.030  0.00  0.00    -0.425 OA
ATOM     14  C   UNL     1       1.013  -4.720   1.167  0.00  0.00    +0.013 C 
BRANCH   7  15
ATOM     15  O   UNL     1      -0.533  -3.338   2.590  0.00  0.00    -0.426 OA
BRANCH  15  16
ATOM     16  C   UNL     1      -1.606  -4.105   2.842  0.00  0.00    +0.309 C 
ATOM     17  O   UNL     1      -2.574  -4.045   2.122  0.00  0.00    -0.251 OA
ATOM     18  C   UNL     1      -1.603  -5.040   4.024  0.00  0.00    +0.136 C 
ENDBRANCH  15  16
ENDBRANCH   7  15
ENDBRANCH   1  10
BRANCH   1  19
ATOM     19  C   UNL     1       3.053  -4.017  -2.407  0.00  0.00    +0.214 C 
ATOM     20  O   UNL     1       2.521  -4.554  -3.355  0.00  0.00    -0.276 OA
ATOM     21  N   UNL     1       4.336  -3.613  -2.493  0.00  0.00    -0.315 N 
ATOM     22  H   UNL     1       4.761  -3.183  -1.734  0.00  0.00    +0.149 HD
BRANCH  21  23
ATOM     23  C   UNL     1       5.088  -3.822  -3.732  0.00  0.00    +0.108 C 
BRANCH  23  24
ATOM     24  C   UNL     1       6.507  -3.276  -3.566  0.00  0.00    +0.052 C 
BRANCH  24  25
ATOM     25  C   UNL     1       7.281  -3.491  -4.841  0.00  0.00    -0.040 C 
ATOM     26  C   UNL     1       7.452  -2.605  -5.848  0.00  0.00    +0.002 A 
ATOM     27  C   UNL     1       6.987  -1.229  -6.052  0.00  0.00    +0.055 A 
ATOM     28  C   UNL     1       7.322  -0.573  -7.189  0.00  0.00    +0.121 A 
ATOM     29  C   UNL     1       8.108  -1.165  -8.193  0.00  0.00    +0.047 A 
ATOM     30  C   UNL     1       8.582  -2.425  -8.096  0.00  0.00    +0.029 A 
ATOM     31  C   UNL     1       8.280  -3.228  -6.907  0.00  0.00    +0.043 A 
ATOM     32  N   UNL     1       8.607  -4.449  -6.567  0.00  0.00    -0.380 N 
ATOM     33  C   UNL     1       8.030  -4.740  -5.250  0.00  0.00    +0.144 C 
ATOM     34  H   UNL     1       9.145  -5.059  -7.097  0.00  0.00    +0.160 HD
BRANCH  28  35
ATOM     35  O   UNL     1       6.884   0.702  -7.365  0.00  0.00    -0.495 OA
ATOM     36  C   UNL     1       7.261   1.356  -8.578  0.00  0.00    +0.277 C 
ENDBRANCH  28  35
ENDBRANCH  24  25
ENDBRANCH  23  24
ENDBRANCH  21  23
ENDBRANCH   1  19
TORSDOF 8
