REMARK  Name = ZINC63141394
REMARK  8 active torsions:
REMARK  status: ('A' for Active; 'I' for Inactive)
REMARK    1  A    between atoms: C_1  and  O_2
REMARK    2  A    between atoms: O_2  and  C_3
REMARK    3  A    between atoms: C_3  and  C_5
REMARK    4  A    between atoms: C_8  and  C_11
REMARK    5  A    between atoms: N_30  and  C_33
REMARK    6  A    between atoms: C_33  and  C_34
REMARK    7  A    between atoms: C_34  and  C_35
REMARK    8  A    between atoms: C_35  and  N_36
REMARK                            x       y       z     vdW  Elec       q    Type
REMARK                         _______ _______ _______ _____ _____    ______ ____
ROOT
ATOM      1  C   UNL     1       0.827  -6.343  -1.340  0.00  0.00    +0.133 C 
ATOM      2  C   UNL     1       2.245  -6.824  -1.020  0.00  0.00    +0.131 C 
ATOM      3  C   UNL     1       3.124  -6.406  -2.192  0.00  0.00    -0.034 C 
ATOM      4  C   UNL     1       4.114  -5.684  -1.679  0.00  0.00    -0.001 A 
ATOM      5  C   UNL     1       5.302  -5.073  -2.296  0.00  0.00    +0.010 A 
ATOM      6  C   UNL     1       6.120  -4.378  -1.462  0.00  0.00    +0.001 A 
ATOM      7  C   UNL     1       5.877  -4.231  -0.093  0.00  0.00    +0.002 A 
ATOM      8  C   UNL     1       4.813  -4.764   0.559  0.00  0.00    +0.026 A 
ATOM      9  C   UNL     1       3.884  -5.521  -0.211  0.00  0.00    +0.043 A 
ATOM     10  N   UNL     1       2.793  -6.162   0.165  0.00  0.00    -0.375 N 
ATOM     11  C   UNL     1       2.779  -6.742  -3.622  0.00  0.00    +0.065 C 
ATOM     12  C   UNL     1       1.313  -6.320  -3.831  0.00  0.00    +0.167 C 
ATOM     13  N   UNL     1       0.498  -6.789  -2.713  0.00  0.00    -0.279 N 
ATOM     14  C   UNL     1      -0.543  -7.615  -2.871  0.00  0.00    +0.234 C 
ATOM     15  O   UNL     1      -1.143  -7.962  -1.876  0.00  0.00    -0.274 OA
ATOM     16  C   UNL     1      -1.018  -8.139  -4.186  0.00  0.00    +0.203 C 
ATOM     17  N   UNL     1      -0.222  -7.642  -5.296  0.00  0.00    -0.291 N 
ATOM     18  C   UNL     1       0.826  -6.828  -5.148  0.00  0.00    +0.237 C 
ATOM     19  O   UNL     1       1.419  -6.476  -6.146  0.00  0.00    -0.274 OA
ATOM     20  H   UNL     1       2.413  -6.191   1.057  0.00  0.00    +0.160 HD
ENDROOT
BRANCH   1  24
ATOM     21  C   UNL     1       0.658  -2.076  -1.122  0.00  0.00    +0.059 A 
ATOM     22  C   UNL     1       1.538  -2.699  -2.010  0.00  0.00    +0.015 A 
ATOM     23  C   UNL     1       1.587  -4.076  -2.075  0.00  0.00    +0.006 A 
ATOM     24  C   UNL     1       0.767  -4.840  -1.263  0.00  0.00    -0.025 A 
ATOM     25  C   UNL     1      -0.107  -4.229  -0.382  0.00  0.00    +0.006 A 
ATOM     26  C   UNL     1      -0.162  -2.853  -0.301  0.00  0.00    +0.015 A 
BRANCH  21  27
ATOM     27  C   UNL     1       0.600  -0.602  -1.046  0.00  0.00    +0.339 C 
ATOM     28  O   UNL     1      -0.162  -0.063  -0.270  0.00  0.00    -0.245 OA
BRANCH  27  30
ATOM     29  C   UNL     1       1.284   1.564  -1.714  0.00  0.00    +0.280 C 
ATOM     30  O   UNL     1       1.393   0.145  -1.839  0.00  0.00    -0.464 OA
ENDBRANCH  27  30
ENDBRANCH  21  27
ENDBRANCH   1  24
BRANCH  17  31
ATOM     31  C   UNL     1      -0.587  -8.059  -6.652  0.00  0.00    +0.109 C 
BRANCH  31  32
ATOM     32  C   UNL     1      -1.588  -7.063  -7.239  0.00  0.00    +0.034 C 
BRANCH  32  33
ATOM     33  C   UNL     1      -1.970  -7.499  -8.655  0.00  0.00    +0.086 C 
BRANCH  33  34
ATOM     34  N   UNL     1      -2.931  -6.542  -9.220  0.00  0.00    -0.298 NA
ATOM     35  C   UNL     1      -4.207  -6.586  -8.492  0.00  0.00    +0.112 C 
ATOM     36  C   UNL     1      -5.157  -5.535  -9.073  0.00  0.00    +0.175 C 
ATOM     37  O   UNL     1      -5.324  -5.773 -10.473  0.00  0.00    -0.377 OA
ATOM     38  C   UNL     1      -4.101  -5.737 -11.213  0.00  0.00    +0.175 C 
ATOM     39  C   UNL     1      -3.141  -6.790 -10.654  0.00  0.00    +0.112 C 
ENDBRANCH  33  34
ENDBRANCH  32  33
ENDBRANCH  31  32
ENDBRANCH  17  31
TORSDOF 7
