REMARK  Name = ZINC36660330
REMARK  11 active torsions:
REMARK  status: ('A' for Active; 'I' for Inactive)
REMARK    1  A    between atoms: C_1  and  C_2
REMARK    2  A    between atoms: C_2  and  O_3
REMARK    3  A    between atoms: O_3  and  C_4
REMARK    4  A    between atoms: C_4  and  C_6
REMARK    5  A    between atoms: C_10  and  N_11
REMARK    6  A    between atoms: C_12  and  C_14
REMARK    7  A    between atoms: N_19  and  S_20
REMARK    8  A    between atoms: S_20  and  C_23
REMARK    9  A    between atoms: N_31  and  C_34
REMARK   10  A    between atoms: C_34  and  C_35
REMARK   11  A    between atoms: C_34  and  C_36
REMARK                            x       y       z     vdW  Elec       q    Type
REMARK                         _______ _______ _______ _____ _____    ______ ____
ROOT
ATOM      1  N   UNL     1      -0.035  -1.981  -3.899  0.00  0.00    -0.278 N 
ATOM      2  C   UNL     1      -0.810  -2.437  -4.903  0.00  0.00    +0.236 C 
ATOM      3  O   UNL     1      -0.362  -3.233  -5.702  0.00  0.00    -0.274 OA
ATOM      4  H   UNL     1      -0.393  -1.345  -3.260  0.00  0.00    +0.155 HD
ENDROOT
BRANCH   1   9
ATOM      5  C   UNL     1       2.210  -2.064  -2.818  0.00  0.00    +0.091 A 
ATOM      6  C   UNL     1       3.521  -2.677  -2.913  0.00  0.00    -0.025 A 
ATOM      7  C   UNL     1       3.662  -3.530  -3.953  0.00  0.00    -0.021 A 
ATOM      8  S   UNL     1       2.093  -3.507  -4.766  0.00  0.00    -0.079 S 
ATOM      9  C   UNL     1       1.274  -2.421  -3.779  0.00  0.00    +0.086 A 
ATOM     10  C   UNL     1       4.896  -4.300  -4.302  0.00  0.00    -0.035 C 
ATOM     11  N   UNL     1       6.034  -3.704  -3.578  0.00  0.00    +0.384 N 
ATOM     12  C   UNL     1       5.696  -3.566  -2.155  0.00  0.00    -0.073 C 
ATOM     13  C   UNL     1       4.682  -2.433  -1.960  0.00  0.00    +0.018 C 
ATOM     14  H   UNL     1       6.239  -2.794  -3.964  0.00  0.00    -0.081 HD
BRANCH  11  15
ATOM     15  C   UNL     1       7.212  -4.570  -3.719  0.00  0.00    -0.074 C 
ATOM     16  C   UNL     1       7.487  -4.818  -5.204  0.00  0.00    -0.014 C 
ATOM     17  C   UNL     1       8.425  -3.890  -3.082  0.00  0.00    -0.014 C 
ENDBRANCH  11  15
BRANCH   5  18
ATOM     18  C   UNL     1       1.886  -1.113  -1.752  0.00  0.00    +0.342 C 
ATOM     19  O   UNL     1       1.428  -1.514  -0.699  0.00  0.00    -0.245 OA
BRANCH  18  20
ATOM     20  O   UNL     1       2.096   0.206  -1.938  0.00  0.00    -0.461 OA
BRANCH  20  22
ATOM     21  C   UNL     1       2.062   2.522  -1.250  0.00  0.00    +0.048 C 
ATOM     22  C   UNL     1       1.757   1.076  -0.856  0.00  0.00    +0.229 C 
ENDBRANCH  20  22
ENDBRANCH  18  20
ENDBRANCH   5  18
ENDBRANCH   1   9
BRANCH   2  23
ATOM     23  C   UNL     1      -2.233  -1.959  -5.033  0.00  0.00    +0.166 C 
ATOM     24  C   UNL     1      -3.173  -2.885  -4.233  0.00  0.00    +0.031 C 
ATOM     25  C   UNL     1      -4.426  -2.978  -5.143  0.00  0.00    +0.019 C 
ATOM     26  C   UNL     1      -3.789  -2.955  -6.554  0.00  0.00    +0.110 C 
ATOM     27  N   UNL     1      -2.653  -2.017  -6.441  0.00  0.00    -0.165 NA
BRANCH  27  28
ATOM     28  S   UNL     1      -1.966  -1.171  -7.689  0.00  0.00    +0.062 S 
ATOM     29  O   UNL     1      -0.662  -0.802  -7.260  0.00  0.00    -0.153 OA
ATOM     30  O   UNL     1      -2.195  -1.930  -8.868  0.00  0.00    -0.153 OA
BRANCH  28  31
ATOM     31  C   UNL     1      -2.879   0.325  -7.868  0.00  0.00    +0.106 A 
ATOM     32  C   UNL     1      -4.036   0.342  -8.625  0.00  0.00    +0.031 A 
ATOM     33  C   UNL     1      -4.753   1.515  -8.766  0.00  0.00    +0.040 A 
ATOM     34  C   UNL     1      -4.313   2.674  -8.149  0.00  0.00    +0.124 A 
ATOM     35  C   UNL     1      -3.154   2.656  -7.392  0.00  0.00    +0.040 A 
ATOM     36  C   UNL     1      -2.441   1.480  -7.248  0.00  0.00    +0.031 A 
ATOM     37  F   UNL     1      -5.013   3.821  -8.287  0.00  0.00    -0.205 F 
ENDBRANCH  28  31
ENDBRANCH  27  28
ENDBRANCH   2  23
TORSDOF 8
