REMARK  Name = ZINC06166336
REMARK  8 active torsions:
REMARK  status: ('A' for Active; 'I' for Inactive)
REMARK    1  A    between atoms: C_1  and  C_2
REMARK    2  A    between atoms: N_13  and  C_16
REMARK    3  A    between atoms: C_16  and  C_18
REMARK    4  A    between atoms: C_16  and  C_19
REMARK    5  A    between atoms: N_21  and  N_22
REMARK    6  A    between atoms: C_23  and  C_24
REMARK    7  A    between atoms: C_27  and  O_30
REMARK    8  A    between atoms: O_30  and  C_31
REMARK                            x       y       z     vdW  Elec       q    Type
REMARK                         _______ _______ _______ _____ _____    ______ ____
ROOT
ATOM      1  C   UNL     1       2.462   0.920  -0.017  0.00  0.00    +0.176 C 
ATOM      2  C   UNL     1       2.567   0.035   1.227  0.00  0.00    +0.041 C 
ENDROOT
BRANCH   1  14
ATOM      3  C   UNL     1       9.843   3.741  -4.760  0.00  0.00    +0.008 C 
ATOM      4  C   UNL     1       8.876   3.257  -3.678  0.00  0.00    -0.009 C 
ATOM      5  C   UNL     1       7.537   2.876  -4.319  0.00  0.00    +0.008 C 
ATOM      6  C   UNL     1       6.656   2.160  -3.295  0.00  0.00    +0.037 C 
ATOM      7  C   UNL     1       6.563   3.021  -2.038  0.00  0.00    -0.023 A 
ATOM      8  C   UNL     1       7.466   3.995  -1.802  0.00  0.00    -0.004 A 
ATOM      9  S   UNL     1       6.970   4.716  -0.260  0.00  0.00    -0.073 S 
ATOM     10  C   UNL     1       5.549   3.703   0.062  0.00  0.00    +0.116 A 
ATOM     11  C   UNL     1       5.508   2.837  -1.042  0.00  0.00    +0.076 A 
ATOM     12  C   UNL     1       4.438   1.883  -1.044  0.00  0.00    +0.263 A 
ATOM     13  O   UNL     1       4.321   1.085  -1.958  0.00  0.00    -0.267 OA
ATOM     14  N   UNL     1       3.562   1.887  -0.022  0.00  0.00    -0.287 N 
ATOM     15  C   UNL     1       3.681   2.765   1.007  0.00  0.00    +0.204 A 
ATOM     16  N   UNL     1       4.648   3.643   1.039  0.00  0.00    -0.230 NA
ATOM     17  C   UNL     1       8.632   4.380  -2.660  0.00  0.00    +0.046 C 
ENDBRANCH   1  14
BRANCH   1  18
ATOM     18  C   UNL     1       1.147   1.655   0.000  0.00  0.00    +0.255 C 
ATOM     19  O   UNL     1       1.130   2.869   0.007  0.00  0.00    -0.272 OA
ATOM     20  N   UNL     1      -0.011   0.966   0.007  0.00  0.00    -0.205 N 
ATOM     21  H   UNL     1       0.002  -0.004   0.002  0.00  0.00    +0.177 HD
BRANCH  20  22
ATOM     22  N   UNL     1      -1.234   1.650   0.017  0.00  0.00    -0.188 NA
ATOM     23  C   UNL     1      -2.349   0.986   0.018  0.00  0.00    +0.138 C 
BRANCH  23  24
ATOM     24  C   UNL     1      -3.635   1.705   0.029  0.00  0.00    -0.005 A 
ATOM     25  C   UNL     1      -3.657   3.103   0.042  0.00  0.00    +0.013 A 
ATOM     26  C   UNL     1      -4.862   3.771   0.047  0.00  0.00    +0.046 A 
ATOM     27  C   UNL     1      -6.054   3.058   0.049  0.00  0.00    +0.120 A 
ATOM     28  C   UNL     1      -6.037   1.669   0.040  0.00  0.00    +0.046 A 
ATOM     29  C   UNL     1      -4.837   0.992   0.030  0.00  0.00    +0.013 A 
BRANCH  27  30
ATOM     30  O   UNL     1      -7.239   3.721   0.059  0.00  0.00    -0.495 OA
ATOM     31  C   UNL     1      -7.184   5.149   0.068  0.00  0.00    +0.277 C 
ENDBRANCH  27  30
ENDBRANCH  23  24
ENDBRANCH  20  22
ENDBRANCH   1  18
TORSDOF 5
