REMARK  Name = ZINC37014037
REMARK  7 active torsions:
REMARK  status: ('A' for Active; 'I' for Inactive)
REMARK    1  A    between atoms: C_1  and  C_2
REMARK    2  A    between atoms: C_2  and  C_3
REMARK    3  A    between atoms: C_3  and  C_5
REMARK    4  A    between atoms: C_3  and  N_10
REMARK    5  A    between atoms: N_10  and  C_11
REMARK    6  A    between atoms: C_13  and  C_18
REMARK    7  A    between atoms: C_16  and  C_17
REMARK                            x       y       z     vdW  Elec       q    Type
REMARK                         _______ _______ _______ _____ _____    ______ ____
ROOT
ATOM      1  C   UNL     1       0.113   1.153  -3.004  0.00  0.00    +0.031 A 
ATOM      2  C   UNL     1       1.016   2.046  -2.446  0.00  0.00    +0.036 A 
ATOM      3  C   UNL     1       1.180   3.310  -3.013  0.00  0.00    +0.040 A 
ATOM      4  C   UNL     1       0.434   3.667  -4.137  0.00  0.00    +0.013 A 
ATOM      5  C   UNL     1      -0.462   2.772  -4.685  0.00  0.00    +0.006 A 
ATOM      6  C   UNL     1      -0.621   1.518  -4.127  0.00  0.00    -0.030 A 
ATOM      7  C   UNL     1      -1.597   0.543  -4.735  0.00  0.00    +0.045 C 
ENDROOT
BRANCH   3   8
ATOM      8  C   UNL     1       2.140   4.268  -2.424  0.00  0.00    +0.248 A 
ATOM      9  N   UNL     1       2.903   4.060  -1.377  0.00  0.00    -0.108 NA
ATOM     10  N   UNL     1       3.610   5.112  -1.151  0.00  0.00    -0.116 NA
ATOM     11  C   UNL     1       3.327   6.024  -2.038  0.00  0.00    +0.332 A 
ATOM     12  O   UNL     1       2.398   5.515  -2.865  0.00  0.00    -0.423 OA
ENDBRANCH   3   8
BRANCH   1  13
ATOM     13  N   UNL     1      -0.055  -0.114  -2.441  0.00  0.00    -0.336 N 
ATOM     14  H   UNL     1      -0.683  -0.740  -2.833  0.00  0.00    +0.147 HD
BRANCH  13  15
ATOM     15  C   UNL     1       0.718  -0.497  -1.257  0.00  0.00    +0.107 C 
BRANCH  15  16
ATOM     16  C   UNL     1       0.847  -1.998  -1.206  0.00  0.00    +0.010 A 
ATOM     17  C   UNL     1       1.917  -2.751  -0.851  0.00  0.00    +0.013 A 
ATOM     18  C   UNL     1       1.806  -4.129  -0.879  0.00  0.00    +0.008 A 
ATOM     19  C   UNL     1       0.630  -4.686  -1.260  0.00  0.00    +0.045 A 
ATOM     20  S   UNL     1      -0.371  -3.245  -1.589  0.00  0.00    -0.100 S 
ENDBRANCH  15  16
BRANCH  15  22
ATOM     21  C   UNL     1      -0.019   1.526   0.010  0.00  0.00    +0.006 C 
ATOM     22  C   UNL     1       0.002  -0.004   0.002  0.00  0.00    +0.024 C 
ENDBRANCH  15  22
ENDBRANCH  13  15
ENDBRANCH   1  13
TORSDOF 5
