REMARK  Name = ZINC66555493
REMARK  5 active torsions:
REMARK  status: ('A' for Active; 'I' for Inactive)
REMARK    1  A    between atoms: C_4  and  C_7
REMARK    2  A    between atoms: N_9  and  N_10
REMARK    3  A    between atoms: C_11  and  C_13
REMARK    4  A    between atoms: C_13  and  C_14
REMARK    5  A    between atoms: C_14  and  C_15
REMARK                            x       y       z     vdW  Elec       q    Type
REMARK                         _______ _______ _______ _____ _____    ______ ____
ROOT
ATOM      1  N   UNL     1       3.258  -3.735  -0.051  0.00  0.00    -0.234 N 
ATOM      2  C   UNL     1       4.554  -4.103  -0.065  0.00  0.00    +0.229 C 
ATOM      3  O   UNL     1       5.424  -3.259  -0.069  0.00  0.00    -0.274 OA
ATOM      4  H   UNL     1       2.562  -4.411  -0.048  0.00  0.00    +0.173 HD
ENDROOT
BRANCH   1   7
ATOM      5  C   UNL     1       1.619  -2.009  -0.025  0.00  0.00    +0.268 C 
ATOM      6  O   UNL     1       0.745  -2.857  -0.021  0.00  0.00    -0.268 OA
ATOM      7  N   UNL     1       2.915  -2.377  -0.040  0.00  0.00    -0.230 N 
ATOM      8  H   UNL     1       3.611  -1.701  -0.042  0.00  0.00    +0.173 HD
BRANCH   5  12
ATOM      9  C   UNL     1      -0.017   1.371   0.010  0.00  0.00    +0.023 A 
ATOM     10  C   UNL     1       1.159   2.046   0.002  0.00  0.00    +0.047 A 
ATOM     11  S   UNL     1       2.328   0.839  -0.016  0.00  0.00    -0.091 S 
ATOM     12  C   UNL     1       1.260  -0.589  -0.013  0.00  0.00    +0.089 A 
ATOM     13  C   UNL     1       0.002  -0.004   0.002  0.00  0.00    +0.037 A 
ATOM     14 BR   UNL     1      -1.585  -1.032   0.012  0.00  0.00    -0.049 Br
ENDBRANCH   5  12
ENDBRANCH   1   7
BRANCH   2  15
ATOM     15  C   UNL     1       4.923  -5.565  -0.077  0.00  0.00    +0.097 C 
BRANCH  15  16
ATOM     16  C   UNL     1       6.446  -5.706  -0.093  0.00  0.00    +0.013 C 
BRANCH  16  17
ATOM     17  C   UNL     1       6.820  -7.190  -0.105  0.00  0.00    -0.011 C 
ATOM     18  C   UNL     1       6.366  -7.841   1.203  0.00  0.00    +0.003 C 
ATOM     19  C   UNL     1       6.740  -9.325   1.190  0.00  0.00    +0.000 C 
ATOM     20  C   UNL     1       8.257  -9.467   1.049  0.00  0.00    +0.000 C 
ATOM     21  C   UNL     1       8.711  -8.816  -0.259  0.00  0.00    +0.000 C 
ATOM     22  C   UNL     1       8.337  -7.332  -0.246  0.00  0.00    +0.003 C 
ENDBRANCH  16  17
ENDBRANCH  15  16
ENDBRANCH   2  15
TORSDOF 5
