REMARK  Name = ZINC64538101
REMARK  5 active torsions:
REMARK  status: ('A' for Active; 'I' for Inactive)
REMARK    1  A    between atoms: C_1  and  C_2
REMARK    2  A    between atoms: C_2  and  C_3
REMARK    3  A    between atoms: C_2  and  C_4
REMARK    4  A    between atoms: C_2  and  N_5
REMARK    5  A    between atoms: C_9  and  N_12
REMARK                            x       y       z     vdW  Elec       q    Type
REMARK                         _______ _______ _______ _____ _____    ______ ____
ROOT
ATOM      1  N   UNL     1       0.684  -0.477  -1.205  0.00  0.00    -0.223 N 
ATOM      2  C   UNL     1       0.983  -1.784  -1.334  0.00  0.00    +0.288 A 
ATOM      3  O   UNL     1       0.679  -2.574  -0.453  0.00  0.00    -0.265 OA
ATOM      4  C   UNL     1       1.644  -2.233  -2.487  0.00  0.00    +0.129 A 
ATOM      5  C   UNL     1       1.976  -1.318  -3.470  0.00  0.00    +0.074 A 
ATOM      6  C   UNL     1       1.643   0.042  -3.290  0.00  0.00    +0.157 A 
ATOM      7  N   UNL     1       1.024   0.433  -2.212  0.00  0.00    -0.174 NA
ATOM      8 CL   UNL     1       2.040  -3.913  -2.678  0.00  0.00    -0.076 Cl
ENDROOT
BRANCH   5   9
ATOM      9  N   UNL     1       2.629  -1.732  -4.618  0.00  0.00    -0.326 N 
ATOM     10  C   UNL     1       1.956  -2.645  -5.543  0.00  0.00    +0.116 C 
ATOM     11  C   UNL     1       1.699  -1.927  -6.873  0.00  0.00    +0.088 C 
ATOM     12  S   UNL     1       3.286  -1.329  -7.528  0.00  0.00    -0.158 S 
ATOM     13  C   UNL     1       3.968  -0.366  -6.145  0.00  0.00    +0.088 C 
ATOM     14  C   UNL     1       3.982  -1.246  -4.895  0.00  0.00    +0.116 C 
ENDBRANCH   5   9
BRANCH   1  16
ATOM     15  C   UNL     1      -0.233   1.505  -0.104  0.00  0.00    +0.036 C 
ATOM     16  C   UNL     1      -0.006  -0.005  -0.003  0.00  0.00    +0.059 C 
ATOM     17  C   UNL     1       0.848  -0.311   1.230  0.00  0.00    +0.036 C 
ATOM     18  C   UNL     1      -1.356  -0.715   0.122  0.00  0.00    +0.036 C 
ENDBRANCH   1  16
TORSDOF 2
