REMARK  Name = ZINC09253297
REMARK  8 active torsions:
REMARK  status: ('A' for Active; 'I' for Inactive)
REMARK    1  A    between atoms: C_1  and  C_2
REMARK    2  A    between atoms: N_10  and  N_14
REMARK    3  A    between atoms: C_15  and  C_17
REMARK    4  A    between atoms: C_17  and  S_18
REMARK    5  A    between atoms: S_18  and  C_19
REMARK    6  A    between atoms: C_22  and  C_25
REMARK    7  A    between atoms: N_23  and  C_24
REMARK    8  A    between atoms: C_25  and  C_26
REMARK                            x       y       z     vdW  Elec       q    Type
REMARK                         _______ _______ _______ _____ _____    ______ ____
ROOT
ATOM      1  N   UNL     1      -5.160   5.377  -8.193  0.00  0.00    -0.223 N 
ATOM      2  C   UNL     1      -4.443   5.897  -7.177  0.00  0.00    +0.240 C 
ATOM      3  O   UNL     1      -3.897   6.972  -7.308  0.00  0.00    -0.273 OA
ATOM      4  H   UNL     1      -5.596   4.518  -8.089  0.00  0.00    +0.174 HD
ENDROOT
BRANCH   1  14
ATOM      5  C   UNL     1      -5.430   8.971 -15.264  0.00  0.00    +0.007 C 
ATOM      6  C   UNL     1      -4.981   7.925 -14.242  0.00  0.00    -0.014 C 
ATOM      7  C   UNL     1      -4.301   8.624 -13.063  0.00  0.00    +0.006 C 
ATOM      8  C   UNL     1      -3.842   7.576 -12.046  0.00  0.00    +0.035 C 
ATOM      9  C   UNL     1      -5.044   6.775 -11.559  0.00  0.00    +0.114 C 
ATOM     10  C   UNL     1      -5.748   6.093 -12.727  0.00  0.00    +0.035 C 
ATOM     11  C   UNL     1      -6.199   7.147 -13.741  0.00  0.00    +0.006 C 
ATOM     12  C   UNL     1      -4.615   5.752 -10.532  0.00  0.00    +0.263 C 
ATOM     13  O   UNL     1      -3.841   4.832 -10.692  0.00  0.00    -0.271 OA
ATOM     14  N   UNL     1      -5.273   6.079  -9.401  0.00  0.00    -0.137 N 
ATOM     15  C   UNL     1      -6.053   7.152  -9.577  0.00  0.00    +0.326 C 
ATOM     16  O   UNL     1      -6.747   7.634  -8.703  0.00  0.00    -0.251 OA
ATOM     17  N   UNL     1      -5.979   7.641 -10.829  0.00  0.00    -0.284 N 
ATOM     18  H   UNL     1      -6.453   8.411 -11.182  0.00  0.00    +0.151 HD
ENDBRANCH   1  14
BRANCH   2  19
ATOM     19  C   UNL     1      -4.321   5.143  -5.878  0.00  0.00    +0.174 C 
BRANCH  19  20
ATOM     20  S   UNL     1      -3.304   6.095  -4.721  0.00  0.00    -0.077 S 
BRANCH  20  21
ATOM     21  C   UNL     1      -3.328   5.012  -3.331  0.00  0.00    +0.192 A 
ATOM     22  N   UNL     1      -3.943   3.854  -3.254  0.00  0.00    -0.122 NA
ATOM     23  N   UNL     1      -3.748   3.334  -2.095  0.00  0.00    -0.133 NA
ATOM     24  C   UNL     1      -3.004   4.120  -1.370  0.00  0.00    +0.138 A 
ATOM     25  N   UNL     1      -2.714   5.220  -2.130  0.00  0.00    -0.309 N 
ATOM     26  C   UNL     1      -1.909   6.379  -1.737  0.00  0.00    +0.152 C 
BRANCH  24  27
ATOM     27  C   UNL     1      -2.553   3.869   0.045  0.00  0.00    +0.111 C 
BRANCH  27  28
ATOM     28  C   UNL     1      -1.238   3.133   0.030  0.00  0.00    -0.040 A 
ATOM     29  C   UNL     1      -1.219   1.751   0.017  0.00  0.00    +0.004 A 
ATOM     30  C   UNL     1      -0.013   1.076   0.008  0.00  0.00    +0.000 A 
ATOM     31  C   UNL     1       1.175   1.783   0.000  0.00  0.00    +0.000 A 
ATOM     32  C   UNL     1       1.156   3.165   0.008  0.00  0.00    +0.000 A 
ATOM     33  C   UNL     1      -0.050   3.840   0.022  0.00  0.00    +0.004 A 
ENDBRANCH  27  28
ENDBRANCH  24  27
ENDBRANCH  20  21
ENDBRANCH  19  20
ENDBRANCH   2  19
TORSDOF 6
