REMARK  Name = ZINC39638452
REMARK  13 active torsions:
REMARK  status: ('A' for Active; 'I' for Inactive)
REMARK    1  A    between atoms: C_1  and  C_2
REMARK    2  A    between atoms: C_4  and  C_11
REMARK    3  A    between atoms: N_5  and  C_7
REMARK    4  A    between atoms: C_7  and  C_8
REMARK    5  A    between atoms: C_7  and  C_9
REMARK    6  A    between atoms: C_7  and  C_10
REMARK    7  A    between atoms: C_15  and  C_24
REMARK    8  A    between atoms: N_26  and  C_27
REMARK    9  A    between atoms: C_27  and  C_28
REMARK   10  A    between atoms: C_32  and  O_36
REMARK   11  A    between atoms: C_33  and  O_34
REMARK   12  A    between atoms: O_34  and  C_35
REMARK   13  A    between atoms: O_36  and  C_37
REMARK                            x       y       z     vdW  Elec       q    Type
REMARK                         _______ _______ _______ _____ _____    ______ ____
ROOT
ATOM      1  C   UNL     1      -0.571  -3.607  -1.417  0.00  0.00    +0.265 C 
ATOM      2  O   UNL     1      -0.780  -3.648  -2.615  0.00  0.00    -0.268 OA
ATOM      3  N   UNL     1      -0.521  -4.749  -0.703  0.00  0.00    -0.295 N 
ATOM      4  C   UNL     1      -0.412  -4.896   0.768  0.00  0.00    +0.121 C 
ATOM      5  C   UNL     1      -1.340  -6.083   1.111  0.00  0.00    +0.100 C 
ATOM      6  C   UNL     1      -1.433  -6.897  -0.190  0.00  0.00    -0.004 C 
ATOM      7  C   UNL     1      -0.569  -6.141  -1.210  0.00  0.00    +0.115 C 
ATOM      8  C   UNL     1      -2.878  -6.957  -0.674  0.00  0.00    -0.010 C 
ATOM      9  C   UNL     1      -2.954  -7.819  -1.937  0.00  0.00    -0.082 C 
ATOM     10  N   UNL     1      -2.460  -9.169  -1.640  0.00  0.00    +0.379 N 
ATOM     11  C   UNL     1      -1.042  -9.113  -1.264  0.00  0.00    -0.082 C 
ATOM     12  C   UNL     1      -0.886  -8.305   0.027  0.00  0.00    -0.010 C 
ATOM     13  H   UNL     1      -2.993  -9.561  -0.878  0.00  0.00    -0.086 HD
ATOM     14  H   UNL     1      -2.567  -9.752  -2.456  0.00  0.00    -0.086 HD
ENDROOT
BRANCH   1  18
ATOM     15  C   UNL     1       0.445   0.021   1.978  0.00  0.00    +0.067 C 
ATOM     16  C   UNL     1       0.067  -0.717   0.719  0.00  0.00    +0.061 A 
ATOM     17  C   UNL     1       0.023  -2.104   0.561  0.00  0.00    +0.057 A 
ATOM     18  C   UNL     1      -0.373  -2.311  -0.749  0.00  0.00    +0.124 A 
ATOM     19  N   UNL     1      -0.541  -1.072  -1.298  0.00  0.00    -0.254 N 
ATOM     20  N   UNL     1      -0.283  -0.172  -0.418  0.00  0.00    -0.175 NA
BRANCH  19  21
ATOM     21  C   UNL     1      -0.959  -0.808  -2.677  0.00  0.00    +0.056 C 
ATOM     22  C   UNL     1      -2.278  -1.531  -2.957  0.00  0.00    +0.036 C 
ATOM     23  C   UNL     1      -1.150   0.697  -2.873  0.00  0.00    +0.036 C 
ATOM     24  C   UNL     1       0.116  -1.316  -3.641  0.00  0.00    +0.036 C 
ENDBRANCH  19  21
ENDBRANCH   1  18
BRANCH   5  25
ATOM     25  C   UNL     1      -2.702  -5.583   1.519  0.00  0.00    +0.218 C 
ATOM     26  O   UNL     1      -3.147  -4.567   1.030  0.00  0.00    -0.275 OA
ATOM     27  N   UNL     1      -3.426  -6.267   2.428  0.00  0.00    -0.311 N 
ATOM     28  H   UNL     1      -3.040  -7.035   2.877  0.00  0.00    +0.149 HD
BRANCH  27  29
ATOM     29  C   UNL     1      -4.795  -5.849   2.737  0.00  0.00    +0.143 C 
BRANCH  29  30
ATOM     30  C   UNL     1      -5.379  -6.771   3.776  0.00  0.00    +0.015 A 
ATOM     31  C   UNL     1      -6.228  -7.794   3.394  0.00  0.00    +0.009 A 
ATOM     32  C   UNL     1      -6.766  -8.641   4.345  0.00  0.00    +0.004 A 
ATOM     33  C   UNL     1      -6.457  -8.470   5.682  0.00  0.00    +0.049 A 
ATOM     34  C   UNL     1      -5.607  -7.448   6.071  0.00  0.00    +0.162 A 
ATOM     35  C   UNL     1      -5.061  -6.598   5.114  0.00  0.00    +0.166 A 
BRANCH  35  36
ATOM     36  O   UNL     1      -4.222  -5.596   5.490  0.00  0.00    -0.491 OA
ATOM     37  C   UNL     1      -4.817  -4.336   5.806  0.00  0.00    +0.277 C 
ENDBRANCH  35  36
BRANCH  34  38
ATOM     38  O   UNL     1      -5.303  -7.279   7.386  0.00  0.00    -0.491 OA
ATOM     39  C   UNL     1      -5.895  -8.192   8.312  0.00  0.00    +0.277 C 
ENDBRANCH  34  38
ENDBRANCH  29  30
ENDBRANCH  27  29
ENDBRANCH   5  25
TORSDOF 7
