REMARK  Name = ZINC06078514
REMARK  10 active torsions:
REMARK  status: ('A' for Active; 'I' for Inactive)
REMARK    1  A    between atoms: C_1  and  C_2
REMARK    2  A    between atoms: C_2  and  N_3
REMARK    3  A    between atoms: N_3  and  C_4
REMARK    4  A    between atoms: N_3  and  C_6
REMARK    5  A    between atoms: C_4  and  C_5
REMARK    6  A    between atoms: C_9  and  C_12
REMARK    7  A    between atoms: C_17  and  C_21
REMARK    8  A    between atoms: C_17  and  C_22
REMARK    9  A    between atoms: C_24  and  C_34
REMARK   10  A    between atoms: C_25  and  C_26
REMARK                            x       y       z     vdW  Elec       q    Type
REMARK                         _______ _______ _______ _____ _____    ______ ____
ROOT
ATOM      1  C   UNL     1       1.181   2.116   0.248  0.00  0.00    +0.090 C 
ATOM      2  C   UNL     1      -0.016   1.199   0.270  0.00  0.00    +0.024 C 
ATOM      3  C   UNL     1       0.116  -0.114  -0.017  0.00  0.00    +0.016 C 
ATOM      4  C   UNL     1      -1.076  -1.038   0.008  0.00  0.00    +0.058 C 
ATOM      5  C   UNL     1      -2.337  -0.260  -0.375  0.00  0.00    -0.023 C 
ATOM      6  C   UNL     1      -2.511   0.899   0.612  0.00  0.00    +0.086 C 
ATOM      7  C   UNL     1      -1.270   1.749   0.591  0.00  0.00    +0.162 C 
ATOM      8  O   UNL     1      -1.351   2.931   0.860  0.00  0.00    -0.292 OA
ATOM      9  C   UNL     1      -2.190   0.290  -1.795  0.00  0.00    +0.011 C 
ATOM     10  C   UNL     1      -3.553  -1.186  -0.306  0.00  0.00    +0.011 C 
ATOM     11  N   UNL     1       1.341  -0.635  -0.333  0.00  0.00    -0.321 N 
ATOM     12  C   UNL     1       2.489   0.024   0.011  0.00  0.00    +0.014 C 
ATOM     13  C   UNL     1       2.460   1.335   0.301  0.00  0.00    +0.043 C 
ATOM     14  C   UNL     1       3.795  -0.726   0.067  0.00  0.00    +0.061 C 
ATOM     15  H   UNL     1       1.409  -1.593  -0.870  0.00  0.00    +0.152 HD
ENDROOT
BRANCH  13  16
ATOM     16  C   UNL     1       3.661   1.993   0.663  0.00  0.00    +0.245 C 
ATOM     17  O   UNL     1       4.312   2.582  -0.181  0.00  0.00    -0.270 OA
ATOM     18  N   UNL     1       4.084   1.968   1.943  0.00  0.00    -0.298 N 
ATOM     19  C   UNL     1       3.369   1.175   2.952  0.00  0.00    +0.108 C 
ATOM     20  C   UNL     1       4.375   0.245   3.646  0.00  0.00    +0.019 C 
ATOM     21  C   UNL     1       5.530   1.079   4.205  0.00  0.00    +0.003 C 
ATOM     22  C   UNL     1       6.247   1.795   3.058  0.00  0.00    +0.019 C 
ATOM     23  C   UNL     1       5.265   2.738   2.356  0.00  0.00    +0.108 C 
ENDBRANCH  13  16
BRANCH   1  27
ATOM     24  C   UNL     1       1.103   4.436  -3.342  0.00  0.00    +0.030 A 
ATOM     25  C   UNL     1       0.982   5.060  -2.107  0.00  0.00    +0.023 A 
ATOM     26  C   UNL     1       1.008   4.308  -0.949  0.00  0.00    +0.006 A 
ATOM     27  C   UNL     1       1.153   2.934  -1.018  0.00  0.00    -0.035 A 
ATOM     28  C   UNL     1       1.279   2.310  -2.245  0.00  0.00    +0.006 A 
ATOM     29  C   UNL     1       1.249   3.056  -3.407  0.00  0.00    +0.023 A 
BRANCH  24  30
ATOM     30  N   UNL     1       1.078   5.194  -4.514  0.00  0.00    -0.330 N 
BRANCH  30  32
ATOM     31  C   UNL     1      -0.183   4.155  -6.335  0.00  0.00    +0.024 C 
ATOM     32  C   UNL     1       1.206   4.533  -5.816  0.00  0.00    +0.102 C 
ENDBRANCH  30  32
BRANCH  30  33
ATOM     33  C   UNL     1       0.924   6.649  -4.443  0.00  0.00    +0.102 C 
ATOM     34  C   UNL     1       2.304   7.303  -4.353  0.00  0.00    +0.024 C 
ENDBRANCH  30  33
ENDBRANCH  24  30
ENDBRANCH   1  27
TORSDOF 5
