REMARK  Name = ZINC39704831
REMARK  8 active torsions:
REMARK  status: ('A' for Active; 'I' for Inactive)
REMARK    1  A    between atoms: C_1  and  C_2
REMARK    2  A    between atoms: C_2  and  C_3
REMARK    3  A    between atoms: C_8  and  C_12
REMARK    4  A    between atoms: C_12  and  C_14
REMARK    5  A    between atoms: C_14  and  S_15
REMARK    6  A    between atoms: S_15  and  C_16
REMARK    7  A    between atoms: C_21  and  C_34
REMARK    8  A    between atoms: N_27  and  C_28
REMARK                            x       y       z     vdW  Elec       q    Type
REMARK                         _______ _______ _______ _____ _____    ______ ____
ROOT
ATOM      1  C   UNL     1       9.981  -2.101  -3.290  0.00  0.00    +0.227 C 
ATOM      2  N   UNL     1       9.927  -2.623  -1.920  0.00  0.00    -0.316 N 
ATOM      3  C   UNL     1       8.859  -2.259  -1.105  0.00  0.00    +0.042 A 
ATOM      4  C   UNL     1       8.401  -3.088  -0.096  0.00  0.00    +0.038 A 
ATOM      5  C   UNL     1       7.334  -2.675   0.702  0.00  0.00    +0.065 A 
ATOM      6  C   UNL     1       6.732  -1.432   0.484  0.00  0.00    +0.016 A 
ATOM      7  C   UNL     1       7.183  -0.608  -0.523  0.00  0.00    +0.016 A 
ATOM      8  C   UNL     1       8.246  -1.014  -1.327  0.00  0.00    +0.058 A 
ATOM      9  C   UNL     1       8.742  -0.170  -2.432  0.00  0.00    +0.255 C 
ATOM     10  O   UNL     1       8.352   0.975  -2.552  0.00  0.00    -0.269 OA
ATOM     11  N   UNL     1       9.630  -0.681  -3.303  0.00  0.00    -0.239 N 
ATOM     12  H   UNL     1      10.623  -3.210  -1.587  0.00  0.00    +0.149 HD
ENDROOT
BRANCH  11  13
ATOM     13  C   UNL     1      10.228   0.166  -4.242  0.00  0.00    +0.039 A 
ATOM     14  C   UNL     1       9.623   0.376  -5.474  0.00  0.00    +0.023 A 
ATOM     15  C   UNL     1      10.216   1.213  -6.399  0.00  0.00    +0.002 A 
ATOM     16  C   UNL     1      11.412   1.840  -6.100  0.00  0.00    +0.000 A 
ATOM     17  C   UNL     1      12.017   1.633  -4.874  0.00  0.00    +0.002 A 
ATOM     18  C   UNL     1      11.426   0.802  -3.942  0.00  0.00    +0.023 A 
ENDBRANCH  11  13
BRANCH   5  19
ATOM     19  C   UNL     1       6.838  -3.555   1.782  0.00  0.00    +0.387 C 
ATOM     20  O   UNL     1       7.364  -4.642   1.974  0.00  0.00    -0.241 OA
ATOM     21  O   UNL     1       5.904  -3.195   2.482  0.00  0.00    -0.241 OA
ENDBRANCH   5  19
BRANCH   1  22
ATOM     22  S   UNL     1       8.809  -3.019  -4.328  0.00  0.00    -0.111 S 
BRANCH  22  23
ATOM     23  C   UNL     1       7.200  -2.712  -3.550  0.00  0.00    +0.151 C 
BRANCH  23  24
ATOM     24  C   UNL     1       6.123  -3.427  -4.324  0.00  0.00    +0.171 C 
ATOM     25  O   UNL     1       6.413  -4.081  -5.305  0.00  0.00    -0.291 OA
BRANCH  24  31
ATOM     26  C   UNL     1       1.174  -4.091  -4.187  0.00  0.00    -0.024 A 
ATOM     27  C   UNL     1       1.140  -4.877  -5.285  0.00  0.00    +0.005 A 
ATOM     28  C   UNL     1       2.304  -5.205  -6.000  0.00  0.00    +0.001 A 
ATOM     29  C   UNL     1       3.527  -4.760  -5.638  0.00  0.00    +0.010 A 
ATOM     30  C   UNL     1       3.677  -3.929  -4.503  0.00  0.00    +0.006 A 
ATOM     31  C   UNL     1       4.778  -3.338  -3.908  0.00  0.00    +0.024 C 
ATOM     32  C   UNL     1       4.236  -2.576  -2.719  0.00  0.00    +0.152 C 
ATOM     33  N   UNL     1       2.787  -2.799  -2.719  0.00  0.00    -0.380 N 
ATOM     34  C   UNL     1       2.468  -3.558  -3.729  0.00  0.00    +0.046 A 
ATOM     35  H   UNL     1       2.163  -2.435  -2.072  0.00  0.00    +0.160 HD
BRANCH  26  37
ATOM     36  C   UNL     1      -0.642  -2.420  -3.944  0.00  0.00    +0.009 C 
ATOM     37  C   UNL     1      -0.095  -3.759  -3.446  0.00  0.00    +0.034 C 
ENDBRANCH  26  37
ENDBRANCH  24  31
ENDBRANCH  23  24
ENDBRANCH  22  23
ENDBRANCH   1  22
TORSDOF 7
