REMARK  Name = ZINC02363749
REMARK  8 active torsions:
REMARK  status: ('A' for Active; 'I' for Inactive)
REMARK    1  A    between atoms: C_1  and  C_2
REMARK    2  A    between atoms: C_4  and  C_34
REMARK    3  A    between atoms: N_15  and  C_25
REMARK    4  A    between atoms: C_16  and  C_18
REMARK    5  A    between atoms: C_22  and  O_24
REMARK    6  A    between atoms: C_25  and  C_26
REMARK    7  A    between atoms: C_29  and  O_32
REMARK    8  A    between atoms: O_32  and  C_33
REMARK                            x       y       z     vdW  Elec       q    Type
REMARK                         _______ _______ _______ _____ _____    ______ ____
ROOT
ATOM      1  C   UNL     1       4.847   6.321  -9.443  0.00  0.00    +0.044 C 
ATOM      2  C   UNL     1       4.752   5.586  -8.131  0.00  0.00    -0.049 A 
ATOM      3  C   UNL     1       5.405   4.371  -7.972  0.00  0.00    +0.010 A 
ATOM      4  C   UNL     1       5.332   3.682  -6.782  0.00  0.00    -0.007 A 
ATOM      5  C   UNL     1       4.597   4.205  -5.721  0.00  0.00    +0.142 A 
ATOM      6  C   UNL     1       3.940   5.436  -5.892  0.00  0.00    +0.065 A 
ATOM      7  C   UNL     1       4.025   6.119  -7.104  0.00  0.00    +0.018 A 
ATOM      8  C   UNL     1       3.166   5.973  -4.756  0.00  0.00    +0.199 A 
ATOM      9  O   UNL     1       2.572   7.034  -4.832  0.00  0.00    -0.287 OA
ATOM     10  C   UNL     1       3.148   5.167  -3.532  0.00  0.00    +0.072 A 
ATOM     11  C   UNL     1       3.822   3.992  -3.488  0.00  0.00    +0.199 A 
ATOM     12  O   UNL     1       4.515   3.544  -4.553  0.00  0.00    -0.449 OA
ATOM     13  C   UNL     1       3.637   3.398  -2.140  0.00  0.00    +0.283 C 
ATOM     14  O   UNL     1       4.118   2.344  -1.773  0.00  0.00    -0.267 OA
ATOM     15  N   UNL     1       2.858   4.191  -1.385  0.00  0.00    -0.279 N 
ATOM     16  C   UNL     1       2.492   5.363  -2.190  0.00  0.00    +0.145 C 
ATOM     17  C   UNL     1       6.047   2.364  -6.627  0.00  0.00    +0.047 C 
ENDROOT
BRANCH  16  18
ATOM     18  C   UNL     1       3.007   6.621  -1.539  0.00  0.00    -0.019 A 
ATOM     19  C   UNL     1       4.260   6.633  -0.954  0.00  0.00    +0.006 A 
ATOM     20  C   UNL     1       4.736   7.786  -0.358  0.00  0.00    +0.004 A 
ATOM     21  C   UNL     1       3.959   8.929  -0.343  0.00  0.00    +0.045 A 
ATOM     22  C   UNL     1       2.702   8.919  -0.929  0.00  0.00    +0.117 A 
ATOM     23  C   UNL     1       2.229   7.763  -1.532  0.00  0.00    +0.051 A 
BRANCH  22  24
ATOM     24  O   UNL     1       1.936  10.042  -0.916  0.00  0.00    -0.507 OA
ATOM     25  H   UNL     1       2.071  10.618  -1.681  0.00  0.00    +0.292 HD
ENDBRANCH  22  24
ENDBRANCH  16  18
BRANCH  15  26
ATOM     26  C   UNL     1       2.452   3.935  -0.001  0.00  0.00    +0.144 C 
BRANCH  26  27
ATOM     27  C   UNL     1       1.156   3.166   0.007  0.00  0.00    -0.030 A 
ATOM     28  C   UNL     1       1.174   1.783   0.000  0.00  0.00    +0.009 A 
ATOM     29  C   UNL     1      -0.013   1.076   0.008  0.00  0.00    +0.046 A 
ATOM     30  C   UNL     1      -1.223   1.754   0.017  0.00  0.00    +0.120 A 
ATOM     31  C   UNL     1      -1.238   3.141   0.029  0.00  0.00    +0.046 A 
ATOM     32  C   UNL     1      -0.049   3.844   0.022  0.00  0.00    +0.009 A 
BRANCH  30  33
ATOM     33  O   UNL     1      -2.392   1.060   0.020  0.00  0.00    -0.495 OA
ATOM     34  C   UNL     1      -3.599   1.824   0.029  0.00  0.00    +0.277 C 
ENDBRANCH  30  33
ENDBRANCH  26  27
ENDBRANCH  15  26
TORSDOF 5
