REMARK  Name = ZINC10805118
REMARK  7 active torsions:
REMARK  status: ('A' for Active; 'I' for Inactive)
REMARK    1  A    between atoms: C_4  and  C_7
REMARK    2  A    between atoms: C_7  and  C_9
REMARK    3  A    between atoms: C_7  and  O_22
REMARK    4  A    between atoms: N_11  and  C_12
REMARK    5  A    between atoms: C_15  and  N_19
REMARK    6  A    between atoms: O_22  and  C_23
REMARK    7  A    between atoms: C_23  and  C_25
REMARK                            x       y       z     vdW  Elec       q    Type
REMARK                         _______ _______ _______ _____ _____    ______ ____
ROOT
ATOM      1  C   UNL     1       1.178   8.025   0.015  0.00  0.00    +0.292 C 
ENDROOT
BRANCH   1   5
ATOM      2  C   UNL     1       1.133   9.482  -4.001  0.00  0.00    +0.000 A 
ATOM      3  C   UNL     1       0.431  10.150  -3.015  0.00  0.00    +0.000 A 
ATOM      4  C   UNL     1       0.446   9.679  -1.716  0.00  0.00    +0.008 A 
ATOM      5  C   UNL     1       1.162   8.539  -1.402  0.00  0.00    +0.002 A 
ATOM      6  C   UNL     1       1.868   7.873  -2.386  0.00  0.00    +0.008 A 
ATOM      7  C   UNL     1       1.850   8.342  -3.687  0.00  0.00    +0.000 A 
ENDBRANCH   1   5
BRANCH   1   8
ATOM      8  C   UNL     1       2.397   8.553   0.727  0.00  0.00    +0.263 C 
ATOM      9  O   UNL     1       3.260   7.787   1.099  0.00  0.00    -0.271 OA
ATOM     10  N   UNL     1       2.528   9.876   0.949  0.00  0.00    -0.281 N 
ATOM     11  H   UNL     1       1.870  10.494   0.595  0.00  0.00    +0.155 HD
BRANCH  10  12
ATOM     12  C   UNL     1       3.613  10.357   1.691  0.00  0.00    +0.052 A 
ATOM     13  C   UNL     1       4.850   9.732   1.600  0.00  0.00    +0.027 A 
ATOM     14  C   UNL     1       5.918  10.209   2.334  0.00  0.00    +0.034 A 
ATOM     15  C   UNL     1       5.758  11.307   3.159  0.00  0.00    +0.128 A 
ATOM     16  C   UNL     1       4.528  11.932   3.252  0.00  0.00    +0.054 A 
ATOM     17  C   UNL     1       3.456  11.463   2.517  0.00  0.00    +0.064 A 
ATOM     18 CL   UNL     1       1.914  12.252   2.628  0.00  0.00    -0.082 Cl
BRANCH  15  19
ATOM     19  N   UNL     1       6.906  11.815   3.944  0.00  0.00    +0.056 N 
ATOM     20  O   UNL     1       7.990  11.266   3.863  0.00  0.00    -0.126 OA
ATOM     21  O   UNL     1       6.766  12.782   4.671  0.00  0.00    -0.126 OA
ENDBRANCH  15  19
ENDBRANCH  10  12
ENDBRANCH   1   8
BRANCH   1  22
ATOM     22  O   UNL     1       1.214   6.574   0.003  0.00  0.00    -0.444 OA
BRANCH  22  23
ATOM     23  C   UNL     1       0.030   5.932   0.001  0.00  0.00    +0.342 C 
ATOM     24  O   UNL     1      -1.005   6.568   0.008  0.00  0.00    -0.245 OA
BRANCH  23  25
ATOM     25  C   UNL     1      -0.010   4.456  -0.011  0.00  0.00    +0.077 A 
ATOM     26  C   UNL     1      -1.236   3.777  -0.014  0.00  0.00    +0.019 A 
ATOM     27  C   UNL     1      -1.220   2.395  -0.031  0.00  0.00    +0.041 A 
ATOM     28  C   UNL     1      -0.003   1.731  -0.034  0.00  0.00    +0.129 A 
ATOM     29  N   UNL     1       1.137   2.398  -0.031  0.00  0.00    -0.243 NA
ATOM     30  C   UNL     1       1.172   3.715  -0.020  0.00  0.00    +0.127 A 
ATOM     31 CL   UNL     1       0.023  -0.004  -0.049  0.00  0.00    -0.062 Cl
ENDBRANCH  23  25
ENDBRANCH  22  23
ENDBRANCH   1  22
TORSDOF 7
