REMARK  Name = ZINC60355008
REMARK  9 active torsions:
REMARK  status: ('A' for Active; 'I' for Inactive)
REMARK    1  A    between atoms: C_1  and  C_2
REMARK    2  A    between atoms: C_5  and  C_7
REMARK    3  A    between atoms: C_7  and  C_9
REMARK    4  A    between atoms: C_7  and  N_30
REMARK    5  A    between atoms: C_9  and  N_10
REMARK    6  A    between atoms: C_11  and  C_13
REMARK    7  A    between atoms: C_19  and  C_21
REMARK    8  A    between atoms: C_26  and  O_27
REMARK    9  A    between atoms: O_27  and  C_28
REMARK                            x       y       z     vdW  Elec       q    Type
REMARK                         _______ _______ _______ _____ _____    ______ ____
ROOT
ATOM      1  N   UNL     1       3.053  -4.649   1.554  0.00  0.00    -0.315 N 
ATOM      2  C   UNL     1       3.675  -5.165   2.633  0.00  0.00    +0.234 C 
ATOM      3  O   UNL     1       3.331  -4.834   3.748  0.00  0.00    -0.274 OA
ATOM      4  H   UNL     1       3.329  -4.913   0.663  0.00  0.00    +0.149 HD
ENDROOT
BRANCH   2   5
ATOM      5  C   UNL     1       4.798  -6.155   2.453  0.00  0.00    +0.162 C 
ATOM      6  C   UNL     1       5.961  -5.495   1.683  0.00  0.00    +0.033 C 
ATOM      7  C   UNL     1       6.925  -5.058   2.817  0.00  0.00    +0.021 C 
ATOM      8  C   UNL     1       6.750  -6.211   3.836  0.00  0.00    +0.109 C 
ATOM      9  N   UNL     1       5.317  -6.565   3.766  0.00  0.00    -0.286 N 
ATOM     10  C   UNL     1       4.604  -7.162   4.741  0.00  0.00    +0.251 C 
ATOM     11  O   UNL     1       3.405  -7.319   4.609  0.00  0.00    -0.270 OA
BRANCH  10  12
ATOM     12  C   UNL     1       5.277  -7.625   5.970  0.00  0.00    +0.080 A 
ATOM     13  C   UNL     1       6.566  -8.159   5.906  0.00  0.00    +0.036 A 
ATOM     14  C   UNL     1       7.189  -8.589   7.058  0.00  0.00    +0.042 A 
ATOM     15  C   UNL     1       6.542  -8.495   8.280  0.00  0.00    +0.023 A 
ATOM     16  C   UNL     1       5.268  -7.968   8.357  0.00  0.00    +0.048 A 
ATOM     17  C   UNL     1       4.629  -7.525   7.208  0.00  0.00    +0.132 A 
ATOM     18 CL   UNL     1       8.791  -9.254   6.978  0.00  0.00    -0.084 Cl
BRANCH  17  19
ATOM     19  O   UNL     1       3.379  -7.003   7.283  0.00  0.00    -0.494 OA
ATOM     20  C   UNL     1       2.781  -6.933   8.579  0.00  0.00    +0.277 C 
ENDBRANCH  17  19
ENDBRANCH  10  12
ENDBRANCH   2   5
BRANCH   1  21
ATOM     21  C   UNL     1       1.962  -3.687   1.729  0.00  0.00    +0.096 C 
BRANCH  21  22
ATOM     22  C   UNL     1       1.349  -3.359   0.366  0.00  0.00    +0.016 C 
BRANCH  22  27
ATOM     23  C   UNL     1      -1.995  -7.035  -0.495  0.00  0.00    +0.086 C 
ATOM     24  C   UNL     1      -0.747  -6.195  -0.581  0.00  0.00    +0.102 A 
ATOM     25  C   UNL     1       0.308  -6.433  -1.380  0.00  0.00    +0.044 A 
ATOM     26  C   UNL     1       1.246  -5.403  -1.138  0.00  0.00    +0.043 A 
ATOM     27  C   UNL     1       0.707  -4.596  -0.207  0.00  0.00    +0.093 A 
ATOM     28  O   UNL     1      -0.503  -5.078   0.123  0.00  0.00    -0.466 OA
ENDBRANCH  22  27
BRANCH  22  29
ATOM     29  N   UNL     1       0.333  -2.310   0.526  0.00  0.00    +0.387 N 
ATOM     30  C   UNL     1       0.974  -1.036   0.942  0.00  0.00    -0.078 C 
ATOM     31  C   UNL     1      -0.064   0.036   0.523  0.00  0.00    -0.020 C 
ATOM     32  C   UNL     1      -0.615  -0.518  -0.811  0.00  0.00    -0.020 C 
ATOM     33  C   UNL     1      -0.319  -2.029  -0.771  0.00  0.00    -0.078 C 
ATOM     34  H   UNL     1      -0.355  -2.592   1.207  0.00  0.00    -0.081 HD
ENDBRANCH  22  29
ENDBRANCH  21  22
ENDBRANCH   1  21
TORSDOF 7
