REMARK  Name = ZINC08435771
REMARK  10 active torsions:
REMARK  status: ('A' for Active; 'I' for Inactive)
REMARK    1  A    between atoms: C_4  and  O_20
REMARK    2  A    between atoms: C_5  and  C_7
REMARK    3  A    between atoms: C_7  and  N_50
REMARK    4  A    between atoms: C_8  and  C_9
REMARK    5  A    between atoms: C_8  and  N_50
REMARK    6  A    between atoms: C_9  and  N_10
REMARK    7  A    between atoms: N_10  and  C_11
REMARK    8  A    between atoms: C_14  and  N_17
REMARK    9  A    between atoms: O_20  and  C_21
REMARK   10  A    between atoms: C_21  and  C_22
REMARK                            x       y       z     vdW  Elec       q    Type
REMARK                         _______ _______ _______ _____ _____    ______ ____
ROOT
ATOM      1  C   UNL     1      -2.569   2.794   4.032  0.00  0.00    -0.043 C 
ENDROOT
BRANCH   1   6
ATOM      2  C   UNL     1      -5.309   4.330   1.938  0.00  0.00    +0.000 A 
ATOM      3  C   UNL     1      -4.855   4.080   0.657  0.00  0.00    +0.004 A 
ATOM      4  C   UNL     1      -3.658   3.418   0.464  0.00  0.00    +0.046 A 
ATOM      5  C   UNL     1      -2.917   2.995   1.558  0.00  0.00    +0.122 A 
ATOM      6  C   UNL     1      -3.375   3.247   2.842  0.00  0.00    -0.023 A 
ATOM      7  C   UNL     1      -4.570   3.914   3.030  0.00  0.00    +0.005 A 
BRANCH   5   8
ATOM      8  O   UNL     1      -1.742   2.338   1.370  0.00  0.00    -0.487 OA
BRANCH   8   9
ATOM      9  C   UNL     1      -1.332   2.113   0.020  0.00  0.00    +0.264 C 
BRANCH   9  10
ATOM     10  C   UNL     1      -0.017   1.378   0.010  0.00  0.00    -0.010 A 
ATOM     11  C   UNL     1       1.170   2.087   0.002  0.00  0.00    +0.010 A 
ATOM     12  C   UNL     1       2.377   1.414  -0.013  0.00  0.00    +0.039 A 
ATOM     13  C   UNL     1       2.397   0.029  -0.021  0.00  0.00    +0.123 A 
ATOM     14  C   UNL     1       1.208  -0.679  -0.013  0.00  0.00    +0.039 A 
ATOM     15  C   UNL     1       0.002  -0.004   0.002  0.00  0.00    +0.010 A 
ATOM     16  F   UNL     1       3.577  -0.630  -0.035  0.00  0.00    -0.205 F 
ENDBRANCH   9  10
ENDBRANCH   8   9
ENDBRANCH   5   8
ENDBRANCH   1   6
BRANCH   1  17
ATOM     17  N   UNL     1      -1.474   3.754   4.269  0.00  0.00    +0.383 N 
ATOM     18  H   UNL     1      -1.872   4.683   4.450  0.00  0.00    -0.085 HD
ATOM     19  H   UNL     1      -0.874   3.795   3.437  0.00  0.00    -0.085 HD
BRANCH  17  20
ATOM     20  C   UNL     1      -0.668   3.335   5.431  0.00  0.00    -0.063 C 
BRANCH  20  21
ATOM     21  C   UNL     1       0.458   4.348   5.651  0.00  0.00    +0.082 C 
BRANCH  21  22
ATOM     22  N   UNL     1       1.264   3.939   6.804  0.00  0.00    -0.346 N 
ATOM     23  H   UNL     1       1.039   3.131   7.290  0.00  0.00    +0.146 HD
BRANCH  22  24
ATOM     24  C   UNL     1       2.357   4.713   7.202  0.00  0.00    +0.027 A 
ATOM     25  C   UNL     1       2.683   5.867   6.502  0.00  0.00    +0.025 A 
ATOM     26  C   UNL     1       3.761   6.633   6.902  0.00  0.00    +0.034 A 
ATOM     27  C   UNL     1       4.521   6.246   7.990  0.00  0.00    +0.126 A 
ATOM     28  C   UNL     1       4.202   5.093   8.685  0.00  0.00    +0.034 A 
ATOM     29  C   UNL     1       3.123   4.326   8.294  0.00  0.00    +0.025 A 
BRANCH  27  30
ATOM     30  N   UNL     1       5.679   7.066   8.412  0.00  0.00    +0.056 N 
ATOM     31  O   UNL     1       6.349   6.726   9.370  0.00  0.00    -0.126 OA
ATOM     32  O   UNL     1       5.961   8.081   7.800  0.00  0.00    -0.126 OA
ENDBRANCH  27  30
ENDBRANCH  22  24
ENDBRANCH  21  22
ENDBRANCH  20  21
ENDBRANCH  17  20
ENDBRANCH   1  17
TORSDOF 10
