REMARK  Name = ZINC40004211
REMARK  4 active torsions:
REMARK  status: ('A' for Active; 'I' for Inactive)
REMARK    1  A    between atoms: C_4  and  O_26
REMARK    2  A    between atoms: C_5  and  C_7
REMARK    3  A    between atoms: N_9  and  N_10
REMARK    4  A    between atoms: C_14  and  C_15
REMARK                            x       y       z     vdW  Elec       q    Type
REMARK                         _______ _______ _______ _____ _____    ______ ____
ROOT
ATOM      1  N   UNL     1       0.121  -4.255  -0.023  0.00  0.00    -0.169 N 
ATOM      2  C   UNL     1      -0.172  -4.900  -1.140  0.00  0.00    +0.275 C 
ATOM      3  O   UNL     1      -0.463  -4.309  -2.162  0.00  0.00    -0.267 OA
ATOM      4  C   UNL     1      -0.126  -6.376  -1.083  0.00  0.00    +0.079 C 
ATOM      5  C   UNL     1      -0.374  -7.287  -2.058  0.00  0.00    +0.032 C 
ATOM      6  S   UNL     1       0.346  -6.630   0.622  0.00  0.00    -0.059 S 
ATOM      7  C   UNL     1       0.449  -4.915   1.107  0.00  0.00    +0.138 C 
ATOM      8  S   UNL     1       0.863  -4.265   2.635  0.00  0.00    -0.026 S 
ENDROOT
BRANCH   5   9
ATOM      9  C   UNL     1      -0.265  -8.722  -1.766  0.00  0.00    +0.030 A 
ATOM     10  C   UNL     1       0.878  -9.228  -1.130  0.00  0.00    +0.132 A 
ATOM     11  C   UNL     1       0.972 -10.579  -0.860  0.00  0.00    +0.039 A 
ATOM     12  C   UNL     1      -0.058 -11.432  -1.215  0.00  0.00    +0.004 A 
ATOM     13  C   UNL     1      -1.190 -10.941  -1.843  0.00  0.00    +0.021 A 
ATOM     14  C   UNL     1      -1.304  -9.593  -2.115  0.00  0.00    +0.051 A 
ATOM     15 CL   UNL     1      -2.728  -8.980  -2.897  0.00  0.00    -0.083 Cl
ATOM     16  F   UNL     1       1.885  -8.396  -0.783  0.00  0.00    -0.205 F 
ENDBRANCH   5   9
BRANCH   1  19
ATOM     17  C   UNL     1       1.250  -2.159  -0.022  0.00  0.00    +0.264 C 
ATOM     18  O   UNL     1       2.314  -2.748  -0.036  0.00  0.00    -0.269 OA
ATOM     19  N   UNL     1       0.095  -2.855  -0.015  0.00  0.00    -0.222 N 
ATOM     20  H   UNL     1      -0.754  -2.385  -0.004  0.00  0.00    +0.174 HD
BRANCH  17  25
ATOM     21  C   UNL     1      -0.017   1.374   0.010  0.00  0.00    +0.001 A 
ATOM     22  C   UNL     1       1.170   2.089   0.002  0.00  0.00    +0.004 A 
ATOM     23  C   UNL     1       2.383   1.429  -0.013  0.00  0.00    +0.046 A 
ATOM     24  C   UNL     1       2.420   0.043  -0.021  0.00  0.00    +0.129 A 
ATOM     25  C   UNL     1       1.222  -0.684  -0.013  0.00  0.00    +0.079 A 
ATOM     26  C   UNL     1       0.002  -0.004   0.002  0.00  0.00    +0.017 A 
BRANCH  24  27
ATOM     27  O   UNL     1       3.611  -0.606  -0.036  0.00  0.00    -0.506 OA
ATOM     28  H   UNL     1       3.965  -0.799   0.843  0.00  0.00    +0.292 HD
ENDBRANCH  24  27
ENDBRANCH  17  25
ENDBRANCH   1  19
TORSDOF 4
