REMARK  Name = ZINC01079546
REMARK  11 active torsions:
REMARK  status: ('A' for Active; 'I' for Inactive)
REMARK    1  A    between atoms: C_1  and  N_2
REMARK    2  A    between atoms: C_3  and  C_22
REMARK    3  A    between atoms: C_6  and  S_7
REMARK    4  A    between atoms: S_7  and  C_8
REMARK    5  A    between atoms: C_8  and  C_9
REMARK    6  A    between atoms: N_11  and  C_12
REMARK    7  A    between atoms: C_17  and  C_18
REMARK    8  A    between atoms: C_18  and  O_20
REMARK    9  A    between atoms: O_20  and  C_21
REMARK   10  A    between atoms: C_22  and  N_23
REMARK   11  A    between atoms: C_24  and  C_26
REMARK                            x       y       z     vdW  Elec       q    Type
REMARK                         _______ _______ _______ _____ _____    ______ ____
ROOT
ATOM      1  C   UNL     1       0.509   3.731  -1.564  0.00  0.00    +0.152 C 
ATOM      2  N   UNL     1      -0.482   2.709  -1.910  0.00  0.00    -0.308 N 
ATOM      3  C   UNL     1      -0.705   1.524  -1.266  0.00  0.00    +0.151 A 
ATOM      4  N   UNL     1      -1.667   0.913  -1.898  0.00  0.00    -0.132 NA
ATOM      5  N   UNL     1      -2.071   1.631  -2.885  0.00  0.00    -0.122 NA
ATOM      6  C   UNL     1      -1.376   2.744  -2.941  0.00  0.00    +0.192 A 
ENDROOT
BRANCH   6   7
ATOM      7  S   UNL     1      -1.562   4.036  -4.125  0.00  0.00    -0.077 S 
BRANCH   7   8
ATOM      8  C   UNL     1      -2.908   3.355  -5.125  0.00  0.00    +0.173 C 
BRANCH   8   9
ATOM      9  C   UNL     1      -3.247   4.319  -6.233  0.00  0.00    +0.228 C 
ATOM     10  O   UNL     1      -2.639   5.363  -6.336  0.00  0.00    -0.275 OA
ATOM     11  N   UNL     1      -4.226   4.020  -7.110  0.00  0.00    -0.284 N 
ATOM     12  H   UNL     1      -4.668   3.157  -7.067  0.00  0.00    +0.155 HD
BRANCH  11  13
ATOM     13  C   UNL     1      -4.603   4.949  -8.076  0.00  0.00    +0.047 A 
ATOM     14  C   UNL     1      -3.652   5.781  -8.652  0.00  0.00    +0.024 A 
ATOM     15  C   UNL     1      -4.027   6.697  -9.614  0.00  0.00    +0.002 A 
ATOM     16  C   UNL     1      -5.353   6.803 -10.004  0.00  0.00    +0.001 A 
ATOM     17  C   UNL     1      -6.311   5.990  -9.439  0.00  0.00    +0.017 A 
ATOM     18  C   UNL     1      -5.946   5.053  -8.468  0.00  0.00    +0.080 A 
BRANCH  18  19
ATOM     19  C   UNL     1      -6.966   4.181  -7.859  0.00  0.00    +0.341 C 
ATOM     20  O   UNL     1      -6.664   3.437  -6.947  0.00  0.00    -0.245 OA
BRANCH  19  21
ATOM     21  O   UNL     1      -8.235   4.207  -8.315  0.00  0.00    -0.464 OA
ATOM     22  C   UNL     1      -9.186   3.321  -7.668  0.00  0.00    +0.280 C 
ENDBRANCH  19  21
ENDBRANCH  18  19
ENDBRANCH  11  13
ENDBRANCH   8   9
ENDBRANCH   7   8
ENDBRANCH   6   7
BRANCH   3  23
ATOM     23  C   UNL     1       0.032   1.014  -0.054  0.00  0.00    +0.181 C 
BRANCH  23  24
ATOM     24  N   UNL     1      -0.653   1.467   1.159  0.00  0.00    -0.304 N 
ATOM     25  C   UNL     1      -0.171   1.129   2.372  0.00  0.00    +0.244 C 
ATOM     26  O   UNL     1       0.833   0.448   2.458  0.00  0.00    -0.270 OA
ATOM     27  H   UNL     1      -1.454   2.010   1.090  0.00  0.00    +0.149 HD
BRANCH  25  28
ATOM     28  C   UNL     1      -0.861   1.587   3.596  0.00  0.00    +0.037 A 
ATOM     29  C   UNL     1      -2.010   2.373   3.499  0.00  0.00    +0.014 A 
ATOM     30  C   UNL     1      -2.654   2.792   4.645  0.00  0.00    +0.016 A 
ATOM     31  C   UNL     1      -2.155   2.443   5.889  0.00  0.00    +0.018 A 
ATOM     32  C   UNL     1      -1.013   1.668   5.991  0.00  0.00    +0.016 A 
ATOM     33  C   UNL     1      -0.364   1.238   4.853  0.00  0.00    +0.014 A 
ATOM     34 BR   UNL     1      -3.039   3.029   7.455  0.00  0.00    -0.050 Br
ENDBRANCH  25  28
ENDBRANCH  23  24
ENDBRANCH   3  23
TORSDOF 9
