REMARK  Name = ZINC20705283
REMARK  6 active torsions:
REMARK  status: ('A' for Active; 'I' for Inactive)
REMARK    1  A    between atoms: C_4  and  N_7
REMARK    2  A    between atoms: N_7  and  C_8
REMARK    3  A    between atoms: C_11  and  N_14
REMARK    4  A    between atoms: C_15  and  C_17
REMARK    5  A    between atoms: C_24  and  C_33
REMARK    6  A    between atoms: C_37  and  N_39
REMARK                            x       y       z     vdW  Elec       q    Type
REMARK                         _______ _______ _______ _____ _____    ______ ____
ROOT
ATOM      1  C   UNL     1       8.875   6.580  -0.125  0.00  0.00    +0.058 A 
ATOM      2  C   UNL     1      10.209   6.175  -0.134  0.00  0.00    +0.015 A 
ATOM      3  C   UNL     1      11.216   7.111  -0.058  0.00  0.00    +0.001 A 
ATOM      4  C   UNL     1      10.900   8.457   0.032  0.00  0.00    +0.006 A 
ATOM      5  C   UNL     1       9.588   8.876   0.039  0.00  0.00    -0.019 A 
ATOM      6  C   UNL     1       8.545   7.948  -0.033  0.00  0.00    +0.044 A 
ATOM      7  N   UNL     1       7.202   8.282  -0.004  0.00  0.00    -0.336 N 
ATOM      8  C   UNL     1       6.873   9.717   0.012  0.00  0.00    +0.105 C 
ATOM      9  C   UNL     1       7.890  10.396   0.906  0.00  0.00    +0.029 C 
ATOM     10  C   UNL     1       9.230  10.310   0.111  0.00  0.00    +0.049 C 
ATOM     11  C   UNL     1      10.086  11.316   0.788  0.00  0.00    -0.023 C 
ATOM     12  C   UNL     1       9.303  12.258   1.302  0.00  0.00    -0.030 C 
ATOM     13  C   UNL     1       7.835  11.922   1.031  0.00  0.00    +0.033 C 
ATOM     14  H   UNL     1       6.396   7.533   0.006  0.00  0.00    +0.147 HD
ENDROOT
BRANCH   8  15
ATOM     15  C   UNL     1       6.958  10.280  -1.383  0.00  0.00    -0.025 A 
ATOM     16  C   UNL     1       6.248  11.419  -1.713  0.00  0.00    +0.005 A 
ATOM     17  C   UNL     1       6.330  11.939  -2.991  0.00  0.00    +0.003 A 
ATOM     18  C   UNL     1       7.113  11.312  -3.943  0.00  0.00    +0.033 A 
ATOM     19  C   UNL     1       7.818  10.170  -3.615  0.00  0.00    +0.127 A 
ATOM     20  C   UNL     1       7.741   9.653  -2.334  0.00  0.00    +0.038 A 
BRANCH  19  21
ATOM     21  N   UNL     1       8.656   9.499  -4.634  0.00  0.00    +0.056 N 
ATOM     22  O   UNL     1       9.278   8.492  -4.344  0.00  0.00    -0.126 OA
ATOM     23  O   UNL     1       8.725   9.954  -5.761  0.00  0.00    -0.126 OA
ENDBRANCH  19  21
ENDBRANCH   8  15
BRANCH   1  25
ATOM     24  N   UNL     1       8.113   4.264  -0.296  0.00  0.00    -0.281 N 
ATOM     25  C   UNL     1       7.803   5.572  -0.208  0.00  0.00    +0.250 C 
ATOM     26  O   UNL     1       6.638   5.921  -0.196  0.00  0.00    -0.270 OA
ATOM     27  H   UNL     1       9.166   3.952  -0.367  0.00  0.00    +0.155 HD
BRANCH  24  31
ATOM     28  C   UNL     1       5.084   1.398  -0.299  0.00  0.00    +0.031 A 
ATOM     29  C   UNL     1       4.874   2.631  -0.902  0.00  0.00    +0.025 A 
ATOM     30  C   UNL     1       5.875   3.582  -0.897  0.00  0.00    +0.025 A 
ATOM     31  C   UNL     1       7.096   3.301  -0.297  0.00  0.00    +0.034 A 
ATOM     32  C   UNL     1       7.308   2.066   0.301  0.00  0.00    +0.025 A 
ATOM     33  C   UNL     1       6.305   1.117   0.300  0.00  0.00    +0.025 A 
BRANCH  28  34
ATOM     34  N   UNL     1       4.068   0.436  -0.300  0.00  0.00    -0.314 N 
ATOM     35  H   UNL     1       4.319  -0.630  -0.401  0.00  0.00    +0.152 HD
BRANCH  34  39
ATOM     36  C   UNL     1       0.091   1.611   0.078  0.00  0.00    +0.000 A 
ATOM     37  C   UNL     1       0.402   0.421  -0.555  0.00  0.00    +0.002 A 
ATOM     38  C   UNL     1       1.719   0.025  -0.677  0.00  0.00    +0.023 A 
ATOM     39  C   UNL     1       2.734   0.830  -0.173  0.00  0.00    +0.031 A 
ATOM     40  C   UNL     1       2.418   2.027   0.457  0.00  0.00    +0.023 A 
ATOM     41  C   UNL     1       1.098   2.414   0.581  0.00  0.00    +0.002 A 
ENDBRANCH  34  39
ENDBRANCH  28  34
ENDBRANCH  24  31
ENDBRANCH   1  25
TORSDOF 6
