REMARK  Name = ZINC20992484
REMARK  6 active torsions:
REMARK  status: ('A' for Active; 'I' for Inactive)
REMARK    1  A    between atoms: C_1  and  C_2
REMARK    2  A    between atoms: C_2  and  C_3
REMARK    3  A    between atoms: C_6  and  C_9
REMARK    4  A    between atoms: N_23  and  C_24
REMARK    5  A    between atoms: C_24  and  C_25
REMARK    6  A    between atoms: C_28  and  C_30
REMARK                            x       y       z     vdW  Elec       q    Type
REMARK                         _______ _______ _______ _____ _____    ______ ____
ROOT
ATOM      1  C   UNL     1      -5.419  -2.005   0.043  0.00  0.00    +0.134 C 
ATOM      2  C   UNL     1      -5.412  -3.493  -0.216  0.00  0.00    +0.042 A 
ATOM      3  C   UNL     1      -6.284  -4.099  -1.054  0.00  0.00    -0.016 A 
ATOM      4  C   UNL     1      -5.971  -5.511  -1.048  0.00  0.00    +0.003 A 
ATOM      5  C   UNL     1      -6.525  -6.611  -1.710  0.00  0.00    +0.010 A 
ATOM      6  C   UNL     1      -5.959  -7.836  -1.460  0.00  0.00    +0.001 A 
ATOM      7  C   UNL     1      -4.889  -7.990  -0.594  0.00  0.00    +0.002 A 
ATOM      8  C   UNL     1      -4.322  -6.920   0.076  0.00  0.00    +0.026 A 
ATOM      9  C   UNL     1      -4.875  -5.663  -0.159  0.00  0.00    +0.047 A 
ATOM     10  N   UNL     1      -4.567  -4.423   0.324  0.00  0.00    -0.356 N 
ATOM     11  H   UNL     1      -3.856  -4.231   0.956  0.00  0.00    +0.166 HD
ATOM     12  C   UNL     1      -7.356  -3.361  -1.815  0.00  0.00    +0.053 C 
ATOM     13  C   UNL     1      -7.518  -1.973  -1.180  0.00  0.00    +0.090 C 
ATOM     14  N   UNL     1      -6.198  -1.346  -1.018  0.00  0.00    -0.283 NA
ENDROOT
BRANCH   1  18
ATOM     15  C   UNL     1      -1.412  -0.526   0.013  0.00  0.00    -0.048 A 
ATOM     16  C   UNL     1      -2.051  -0.766   1.215  0.00  0.00    +0.004 A 
ATOM     17  C   UNL     1      -3.348  -1.244   1.225  0.00  0.00    +0.006 A 
ATOM     18  C   UNL     1      -4.006  -1.482   0.032  0.00  0.00    -0.024 A 
ATOM     19  C   UNL     1      -3.367  -1.241  -1.170  0.00  0.00    +0.006 A 
ATOM     20  C   UNL     1      -2.072  -0.758  -1.179  0.00  0.00    +0.004 A 
BRANCH  15  22
ATOM     21  C   UNL     1      -0.019   1.526   0.010  0.00  0.00    +0.009 C 
ATOM     22  C   UNL     1       0.002  -0.004   0.002  0.00  0.00    +0.032 C 
ENDBRANCH  15  22
ENDBRANCH   1  18
BRANCH  14  23
ATOM     23  C   UNL     1      -6.322   0.095  -0.762  0.00  0.00    +0.157 C 
BRANCH  23  24
ATOM     24  C   UNL     1      -6.905   0.773  -1.975  0.00  0.00    +0.099 A 
ATOM     25  N   UNL     1      -6.917   0.286  -3.186  0.00  0.00    -0.349 N 
ATOM     26  C   UNL     1      -7.516   1.160  -4.008  0.00  0.00    +0.105 A 
ATOM     27  C   UNL     1      -7.889   2.229  -3.280  0.00  0.00    +0.030 A 
ATOM     28  N   UNL     1      -7.507   1.982  -1.989  0.00  0.00    -0.346 N 
ATOM     29  C   UNL     1      -8.597   3.459  -3.787  0.00  0.00    +0.065 C 
ATOM     30  H   UNL     1      -7.641   2.566  -1.227  0.00  0.00    +0.167 HD
ATOM     31  H   UNL     1      -6.551  -0.573  -3.449  0.00  0.00    +0.166 HD
ENDBRANCH  23  24
ENDBRANCH  14  23
TORSDOF 4
