REMARK  Name = ZINC59385474
REMARK  9 active torsions:
REMARK  status: ('A' for Active; 'I' for Inactive)
REMARK    1  A    between atoms: C_1  and  C_2
REMARK    2  A    between atoms: C_2  and  O_3
REMARK    3  A    between atoms: O_3  and  C_4
REMARK    4  A    between atoms: C_7  and  C_10
REMARK    5  A    between atoms: N_11  and  N_12
REMARK    6  A    between atoms: C_13  and  C_15
REMARK    7  A    between atoms: C_16  and  C_32
REMARK    8  A    between atoms: C_21  and  C_23
REMARK    9  A    between atoms: C_26  and  N_29
REMARK                            x       y       z     vdW  Elec       q    Type
REMARK                         _______ _______ _______ _____ _____    ______ ____
ROOT
ATOM      1  C   UNL     1      -4.651  -9.922   0.001  0.00  0.00    +0.057 C 
ATOM      2  C   UNL     1      -5.835 -10.569  -0.019  0.00  0.00    +0.019 C 
ATOM      3  N   UNL     1      -5.893 -11.935  -0.005  0.00  0.00    -0.273 N 
ATOM      4  C   UNL     1      -4.811 -12.723   0.029  0.00  0.00    +0.304 C 
ATOM      5  O   UNL     1      -4.962 -13.930   0.039  0.00  0.00    -0.252 OA
ATOM      6  N   UNL     1      -3.560 -12.223   0.052  0.00  0.00    -0.288 N 
ATOM      7  C   UNL     1      -3.389 -10.761   0.034  0.00  0.00    +0.142 C 
ATOM      8  C   UNL     1      -7.114  -9.774  -0.058  0.00  0.00    +0.061 C 
ATOM      9  H   UNL     1      -6.766 -12.357  -0.021  0.00  0.00    +0.156 HD
ATOM     10  H   UNL     1      -2.790 -12.813   0.076  0.00  0.00    +0.151 HD
ENDROOT
BRANCH   7  11
ATOM     11  C   UNL     1      -2.606 -10.374   1.262  0.00  0.00    -0.022 A 
ATOM     12  C   UNL     1      -3.022 -10.798   2.510  0.00  0.00    +0.008 A 
ATOM     13  C   UNL     1      -2.304 -10.443   3.636  0.00  0.00    +0.033 A 
ATOM     14  C   UNL     1      -1.168  -9.664   3.514  0.00  0.00    +0.126 A 
ATOM     15  C   UNL     1      -0.751  -9.240   2.266  0.00  0.00    +0.033 A 
ATOM     16  C   UNL     1      -1.468  -9.599   1.140  0.00  0.00    +0.008 A 
BRANCH  14  17
ATOM     17  N   UNL     1      -0.400  -9.283   4.720  0.00  0.00    +0.056 N 
ATOM     18  O   UNL     1      -0.764  -9.653   5.812  0.00  0.00    -0.126 OA
ATOM     19  O   UNL     1       0.593  -8.601   4.614  0.00  0.00    -0.126 OA
ENDBRANCH  14  17
ENDBRANCH   7  11
BRANCH   1  21
ATOM     20  N   UNL     1      -4.807  -7.812   1.121  0.00  0.00    -0.203 N 
ATOM     21  C   UNL     1      -4.589  -8.507  -0.013  0.00  0.00    +0.263 C 
ATOM     22  O   UNL     1      -4.340  -7.919  -1.050  0.00  0.00    -0.269 OA
ATOM     23  H   UNL     1      -5.076  -8.275   1.930  0.00  0.00    +0.178 HD
BRANCH  20  25
ATOM     24  C   UNL     1      -4.854  -5.751   2.223  0.00  0.00    +0.138 C 
ATOM     25  N   UNL     1      -4.644  -6.420   1.131  0.00  0.00    -0.187 NA
BRANCH  24  29
ATOM     26  C   UNL     1      -4.359  -1.534   2.256  0.00  0.00    +0.121 A 
ATOM     27  C   UNL     1      -4.746  -2.195   3.414  0.00  0.00    +0.046 A 
ATOM     28  C   UNL     1      -4.907  -3.563   3.409  0.00  0.00    +0.013 A 
ATOM     29  C   UNL     1      -4.682  -4.286   2.234  0.00  0.00    -0.005 A 
ATOM     30  C   UNL     1      -4.294  -3.618   1.071  0.00  0.00    +0.013 A 
ATOM     31  C   UNL     1      -4.140  -2.248   1.084  0.00  0.00    +0.046 A 
BRANCH  26  32
ATOM     32  O   UNL     1      -4.200  -0.185   2.266  0.00  0.00    -0.492 OA
BRANCH  32  34
ATOM     33  C   UNL     1      -4.215   1.989   3.321  0.00  0.00    +0.048 C 
ATOM     34  C   UNL     1      -4.442   0.487   3.504  0.00  0.00    +0.225 C 
ENDBRANCH  32  34
ENDBRANCH  26  32
ENDBRANCH  24  29
ENDBRANCH  20  25
ENDBRANCH   1  21
TORSDOF 7
