REMARK  Name = ZINC39532344
REMARK  8 active torsions:
REMARK  status: ('A' for Active; 'I' for Inactive)
REMARK    1  A    between atoms: C_1  and  C_2
REMARK    2  A    between atoms: C_2  and  C_3
REMARK    3  A    between atoms: C_6  and  C_9
REMARK    4  A    between atoms: C_9  and  C_11
REMARK    5  A    between atoms: C_9  and  N_22
REMARK    6  A    between atoms: C_11  and  N_12
REMARK    7  A    between atoms: N_12  and  S_13
REMARK    8  A    between atoms: S_13  and  C_16
REMARK                            x       y       z     vdW  Elec       q    Type
REMARK                         _______ _______ _______ _____ _____    ______ ____
ROOT
ATOM      1  C   UNL     1       2.797  -1.919   4.683  0.00  0.00    +0.102 C 
ENDROOT
BRANCH   1   2
ATOM      2  N   UNL     1       2.340  -1.176   5.865  0.00  0.00    -0.290 NA
ATOM      3  C   UNL     1       0.915  -1.424   6.126  0.00  0.00    +0.100 C 
ATOM      4  C   UNL     1       0.499  -0.698   7.407  0.00  0.00    +0.097 C 
ATOM      5  N   UNL     1       0.761   0.741   7.258  0.00  0.00    -0.299 NA
ATOM      6  C   UNL     1       2.186   0.990   6.998  0.00  0.00    +0.161 C 
ATOM      7  C   UNL     1       2.602   0.263   5.717  0.00  0.00    +0.120 C 
ATOM      8 CL   UNL     1       2.461   2.761   6.802  0.00  0.00    -0.104 Cl
ATOM      9  H   UNL     1       0.186   1.140   6.531  0.00  0.00    +0.123 HD
ENDBRANCH   1   2
BRANCH   1  13
ATOM     10  C   UNL     1       0.459  -0.783   1.293  0.00  0.00    -0.048 A 
ATOM     11  C   UNL     1       1.782  -0.390   1.384  0.00  0.00    +0.004 A 
ATOM     12  C   UNL     1       2.538  -0.758   2.481  0.00  0.00    +0.005 A 
ATOM     13  C   UNL     1       1.972  -1.518   3.488  0.00  0.00    -0.029 A 
ATOM     14  C   UNL     1       0.649  -1.910   3.397  0.00  0.00    +0.005 A 
ATOM     15  C   UNL     1      -0.108  -1.539   2.302  0.00  0.00    +0.004 A 
BRANCH  10  17
ATOM     16  C   UNL     1      -1.044   0.961   0.372  0.00  0.00    +0.009 C 
ATOM     17  C   UNL     1      -0.365  -0.383   0.097  0.00  0.00    +0.032 C 
ENDBRANCH  10  17
ENDBRANCH   1  13
BRANCH   1  18
ATOM     18  C   UNL     1       2.638  -3.420   4.932  0.00  0.00    +0.129 C 
BRANCH  18  19
ATOM     19  N   UNL     1       3.343  -3.789   6.162  0.00  0.00    -0.188 NA
ATOM     20  H   UNL     1       3.984  -3.177   6.556  0.00  0.00    +0.148 HD
BRANCH  19  21
ATOM     21  S   UNL     1       3.044  -5.250   6.881  0.00  0.00    +0.058 S 
ATOM     22  O   UNL     1       3.889  -5.322   8.022  0.00  0.00    -0.153 OA
ATOM     23  O   UNL     1       1.632  -5.378   6.970  0.00  0.00    -0.153 OA
BRANCH  21  24
ATOM     24  C   UNL     1       3.594  -6.500   5.768  0.00  0.00    +0.105 A 
ATOM     25  C   UNL     1       2.727  -7.014   4.822  0.00  0.00    +0.028 A 
ATOM     26  C   UNL     1       3.159  -7.995   3.949  0.00  0.00    +0.002 A 
ATOM     27  C   UNL     1       4.458  -8.462   4.021  0.00  0.00    +0.000 A 
ATOM     28  C   UNL     1       5.325  -7.947   4.967  0.00  0.00    +0.002 A 
ATOM     29  C   UNL     1       4.895  -6.964   5.837  0.00  0.00    +0.028 A 
ENDBRANCH  21  24
ENDBRANCH  19  21
ENDBRANCH  18  19
ENDBRANCH   1  18
TORSDOF 7
