REMARK  Name = ZINC49645723
REMARK  6 active torsions:
REMARK  status: ('A' for Active; 'I' for Inactive)
REMARK    1  A    between atoms: C_1  and  C_2
REMARK    2  A    between atoms: C_2  and  N_3
REMARK    3  A    between atoms: C_7  and  N_10
REMARK    4  A    between atoms: N_10  and  S_11
REMARK    5  A    between atoms: S_11  and  C_14
REMARK    6  A    between atoms: C_14  and  C_15
REMARK                            x       y       z     vdW  Elec       q    Type
REMARK                         _______ _______ _______ _____ _____    ______ ____
ROOT
ATOM      1  N   UNL     1      -2.772  -3.962  -0.314  0.00  0.00    -0.193 NA
ATOM      2  H   UNL     1      -2.084  -4.478   0.135  0.00  0.00    +0.148 HD
ENDROOT
BRANCH   1   7
ATOM      3  N   UNL     1      -1.376  -0.512   0.012  0.00  0.00    +0.381 N 
ATOM      4  C   UNL     1      -2.027  -0.132   1.272  0.00  0.00    -0.079 C 
ATOM      5  C   UNL     1      -3.487  -0.588   1.254  0.00  0.00    -0.017 C 
ATOM      6  C   UNL     1      -3.538  -2.110   1.091  0.00  0.00    +0.017 C 
ATOM      7  C   UNL     1      -2.792  -2.502  -0.187  0.00  0.00    +0.060 C 
ATOM      8  C   UNL     1      -1.358  -1.975  -0.116  0.00  0.00    -0.058 C 
ATOM      9  H   UNL     1      -1.886  -0.114  -0.762  0.00  0.00    -0.082 HD
BRANCH   3  11
ATOM     10  C   UNL     1      -0.019   1.526   0.010  0.00  0.00    -0.017 C 
ATOM     11  C   UNL     1       0.002  -0.004   0.002  0.00  0.00    -0.082 C 
ENDBRANCH   3  11
ENDBRANCH   1   7
BRANCH   1  12
ATOM     12  S   UNL     1      -3.923  -4.730  -1.223  0.00  0.00    +0.028 S 
ATOM     13  O   UNL     1      -3.616  -6.112  -1.104  0.00  0.00    -0.158 OA
ATOM     14  O   UNL     1      -5.161  -4.220  -0.747  0.00  0.00    -0.158 OA
BRANCH  12  15
ATOM     15  C   UNL     1      -3.627  -4.169  -2.922  0.00  0.00    +0.169 C 
BRANCH  15  16
ATOM     16  C   UNL     1      -4.644  -4.822  -3.860  0.00  0.00    -0.049 C 
ATOM     17  C   UNL     1      -4.350  -4.415  -5.319  0.00  0.00    -0.016 C 
ATOM     18  C   UNL     1      -5.767  -4.232  -5.923  0.00  0.00    -0.021 C 
ATOM     19  C   UNL     1      -6.547  -3.644  -4.720  0.00  0.00    -0.082 C 
ATOM     20  N   UNL     1      -6.002  -4.348  -3.536  0.00  0.00    +0.382 N 
ATOM     21  H   UNL     1      -6.591  -5.135  -3.305  0.00  0.00    -0.085 HD
ATOM     22  H   UNL     1      -5.962  -3.714  -2.752  0.00  0.00    -0.085 HD
ENDBRANCH  15  16
ENDBRANCH  12  15
ENDBRANCH   1  12
TORSDOF 5
