REMARK  Name = ZINC20912332
REMARK  9 active torsions:
REMARK  status: ('A' for Active; 'I' for Inactive)
REMARK    1  A    between atoms: C_4  and  C_7
REMARK    2  A    between atoms: C_7  and  C_8
REMARK    3  A    between atoms: C_8  and  N_9
REMARK    4  A    between atoms: C_10  and  C_12
REMARK    5  A    between atoms: C_12  and  S_13
REMARK    6  A    between atoms: S_13  and  C_14
REMARK    7  A    between atoms: N_18  and  N_19
REMARK    8  A    between atoms: N_20  and  N_21
REMARK    9  A    between atoms: C_22  and  C_23
REMARK                            x       y       z     vdW  Elec       q    Type
REMARK                         _______ _______ _______ _____ _____    ______ ____
ROOT
ATOM      1  C   UNL     1      -2.646  -2.378   0.040  0.00  0.00    +0.210 A 
ATOM      2  N   UNL     1      -3.317  -1.251   0.057  0.00  0.00    -0.119 NA
ATOM      3  N   UNL     1      -2.394  -0.197   0.053  0.00  0.00    -0.109 NA
ATOM      4  C   UNL     1      -1.189  -0.714   0.025  0.00  0.00    +0.254 A 
ATOM      5  N   UNL     1      -1.314  -2.076   0.020  0.00  0.00    -0.211 N 
ATOM      6  N   UNL     1       0.002  -0.004   0.009  0.00  0.00    -0.204 N 
ATOM      7  H   UNL     1       0.962  -0.541  -0.009  0.00  0.00    +0.177 HD
ENDROOT
BRANCH   5   8
ATOM      8  N   UNL     1      -0.287  -2.976  -0.003  0.00  0.00    -0.294 N 
ATOM      9  H   UNL     1       0.755  -2.622  -0.018  0.00  0.00    +0.163 HD
ATOM     10  H   UNL     1      -0.501  -4.055  -0.005  0.00  0.00    +0.163 HD
ENDBRANCH   5   8
BRANCH   6  11
ATOM     11  N   UNL     1      -0.017   1.397   0.017  0.00  0.00    -0.187 NA
ATOM     12  C   UNL     1       1.100   2.062   0.003  0.00  0.00    +0.139 C 
BRANCH  12  13
ATOM     13  C   UNL     1       1.080   3.532   0.011  0.00  0.00    +0.002 A 
ATOM     14  C   UNL     1       2.262   4.258   0.107  0.00  0.00    +0.010 A 
ATOM     15  C   UNL     1       2.240   5.646   0.108  0.00  0.00    +0.001 A 
ATOM     16  C   UNL     1       1.076   6.346   0.028  0.00  0.00    +0.008 A 
ATOM     17  C   UNL     1      -0.157   5.678  -0.066  0.00  0.00    -0.017 A 
ATOM     18  C   UNL     1      -0.183   4.262  -0.077  0.00  0.00    -0.009 A 
ATOM     19  C   UNL     1      -1.409   3.594  -0.171  0.00  0.00    +0.009 A 
ATOM     20  C   UNL     1      -2.565   4.313  -0.250  0.00  0.00    +0.001 A 
ATOM     21  C   UNL     1      -2.543   5.706  -0.240  0.00  0.00    +0.001 A 
ATOM     22  C   UNL     1      -1.368   6.388  -0.149  0.00  0.00    +0.008 A 
ENDBRANCH  12  13
ENDBRANCH   6  11
BRANCH   1  23
ATOM     23  S   UNL     1      -3.340  -3.997   0.043  0.00  0.00    -0.075 S 
BRANCH  23  24
ATOM     24  C   UNL     1      -5.102  -3.584   0.074  0.00  0.00    +0.173 C 
BRANCH  24  26
ATOM     25  N   UNL     1      -7.262  -4.789   0.104  0.00  0.00    -0.314 N 
ATOM     26  C   UNL     1      -5.916  -4.852   0.081  0.00  0.00    +0.223 C 
ATOM     27  O   UNL     1      -5.359  -5.930   0.066  0.00  0.00    -0.275 OA
ATOM     28  H   UNL     1      -7.766  -3.812   0.117  0.00  0.00    +0.149 HD
BRANCH  25  29
ATOM     29  C   UNL     1      -8.053  -6.022   0.110  0.00  0.00    +0.109 C 
BRANCH  29  30
ATOM     30  C   UNL     1      -9.542  -5.673   0.137  0.00  0.00    +0.054 C 
BRANCH  30  34
ATOM     31  C   UNL     1     -11.849  -9.268   0.156  0.00  0.00    +0.000 A 
ATOM     32  C   UNL     1     -11.456  -8.693   1.350  0.00  0.00    +0.000 A 
ATOM     33  C   UNL     1     -10.709  -7.529   1.344  0.00  0.00    +0.004 A 
ATOM     34  C   UNL     1     -10.356  -6.941   0.144  0.00  0.00    -0.046 A 
ATOM     35  C   UNL     1     -10.754  -7.514  -1.050  0.00  0.00    +0.004 A 
ATOM     36  C   UNL     1     -11.496  -8.680  -1.044  0.00  0.00    +0.000 A 
ENDBRANCH  30  34
ENDBRANCH  29  30
ENDBRANCH  25  29
ENDBRANCH  24  26
ENDBRANCH  23  24
ENDBRANCH   1  23
TORSDOF 9
