REMARK  Name = ZINC36601299
REMARK  10 active torsions:
REMARK  status: ('A' for Active; 'I' for Inactive)
REMARK    1  A    between atoms: C_1  and  C_2
REMARK    2  A    between atoms: C_5  and  C_7
REMARK    3  A    between atoms: C_7  and  N_8
REMARK    4  A    between atoms: N_8  and  C_9
REMARK    5  A    between atoms: C_9  and  C_11
REMARK    6  A    between atoms: C_9  and  C_18
REMARK    7  A    between atoms: C_15  and  O_17
REMARK    8  A    between atoms: N_20  and  C_21
REMARK    9  A    between atoms: C_27  and  C_29
REMARK   10  A    between atoms: C_33  and  N_35
REMARK                            x       y       z     vdW  Elec       q    Type
REMARK                         _______ _______ _______ _____ _____    ______ ____
ROOT
ATOM      1  N   UNL     1       1.054  -2.598  -1.929  0.00  0.00    -0.275 N 
ATOM      2  C   UNL     1       0.387  -3.685  -1.492  0.00  0.00    +0.248 C 
ATOM      3  O   UNL     1      -0.222  -3.642  -0.441  0.00  0.00    -0.270 OA
ENDROOT
BRANCH   2   4
ATOM      4  C   UNL     1       0.397  -4.929  -2.290  0.00  0.00    +0.039 A 
ATOM      5  C   UNL     1       1.608  -5.486  -2.706  0.00  0.00    +0.013 A 
ATOM      6  C   UNL     1       1.610  -6.647  -3.450  0.00  0.00    +0.003 A 
ATOM      7  C   UNL     1       0.415  -7.260  -3.785  0.00  0.00    +0.033 A 
ATOM      8  C   UNL     1      -0.788  -6.714  -3.376  0.00  0.00    +0.127 A 
ATOM      9  C   UNL     1      -0.804  -5.556  -2.626  0.00  0.00    +0.045 A 
BRANCH   8  10
ATOM     10  N   UNL     1      -2.061  -7.376  -3.740  0.00  0.00    +0.056 N 
ATOM     11  O   UNL     1      -2.048  -8.393  -4.393  0.00  0.00    -0.126 OA
ATOM     12  O   UNL     1      -3.113  -6.899  -3.383  0.00  0.00    -0.126 OA
ENDBRANCH   8  10
ENDBRANCH   2   4
BRANCH   1  13
ATOM     13  C   UNL     1       0.950  -1.332  -1.199  0.00  0.00    +0.183 C 
BRANCH  13  18
ATOM     14  C   UNL     1      -3.488   0.695  -2.476  0.00  0.00    +0.086 C 
ATOM     15  C   UNL     1      -2.424  -0.025  -1.689  0.00  0.00    +0.102 A 
ATOM     16  C   UNL     1      -2.580  -0.568  -0.469  0.00  0.00    +0.045 A 
ATOM     17  C   UNL     1      -1.336  -1.137  -0.111  0.00  0.00    +0.046 A 
ATOM     18  C   UNL     1      -0.494  -0.907  -1.134  0.00  0.00    +0.122 A 
ATOM     19  O   UNL     1      -1.159  -0.238  -2.090  0.00  0.00    -0.463 OA
ENDBRANCH  13  18
ENDBRANCH   1  13
BRANCH   1  20
ATOM     20  C   UNL     1       1.882  -2.683  -3.134  0.00  0.00    +0.193 C 
BRANCH  20  21
ATOM     21  C   UNL     1       3.311  -2.353  -2.787  0.00  0.00    -0.015 A 
ATOM     22  C   UNL     1       3.705  -2.298  -1.462  0.00  0.00    +0.006 A 
ATOM     23  C   UNL     1       5.014  -1.995  -1.140  0.00  0.00    +0.004 A 
ATOM     24  C   UNL     1       5.933  -1.745  -2.141  0.00  0.00    +0.045 A 
ATOM     25  C   UNL     1       5.541  -1.799  -3.470  0.00  0.00    +0.117 A 
ATOM     26  C   UNL     1       4.227  -2.110  -3.791  0.00  0.00    +0.051 A 
BRANCH  25  27
ATOM     27  O   UNL     1       6.443  -1.554  -4.456  0.00  0.00    -0.507 OA
ATOM     28  H   UNL     1       6.909  -2.341  -4.768  0.00  0.00    +0.292 HD
ENDBRANCH  25  27
ENDBRANCH  20  21
BRANCH  20  29
ATOM     29  C   UNL     1       1.376  -1.704  -4.162  0.00  0.00    +0.238 C 
ATOM     30  O   UNL     1       0.738  -0.734  -3.812  0.00  0.00    -0.273 OA
ATOM     31  N   UNL     1       1.631  -1.907  -5.470  0.00  0.00    -0.311 N 
ATOM     32  H   UNL     1       2.141  -2.683  -5.749  0.00  0.00    +0.149 HD
BRANCH  31  33
ATOM     33  C   UNL     1       1.139  -0.955  -6.468  0.00  0.00    +0.073 C 
ATOM     34  C   UNL     1      -0.300  -1.310  -6.845  0.00  0.00    +0.022 C 
ATOM     35  C   UNL     1      -0.815  -0.316  -7.889  0.00  0.00    +0.002 C 
ATOM     36  C   UNL     1       0.070  -0.382  -9.135  0.00  0.00    +0.000 C 
ATOM     37  C   UNL     1       1.510  -0.027  -8.758  0.00  0.00    +0.002 C 
ATOM     38  C   UNL     1       2.024  -1.021  -7.715  0.00  0.00    +0.022 C 
ENDBRANCH  31  33
ENDBRANCH  20  29
ENDBRANCH   1  20
TORSDOF 9
