REMARK  Name = ZINC60318887
REMARK  8 active torsions:
REMARK  status: ('A' for Active; 'I' for Inactive)
REMARK    1  A    between atoms: C_4  and  N_26
REMARK    2  A    between atoms: C_5  and  N_7
REMARK    3  A    between atoms: C_8  and  C_10
REMARK    4  A    between atoms: C_10  and  C_11
REMARK    5  A    between atoms: C_11  and  C_12
REMARK    6  A    between atoms: C_12  and  C_13
REMARK    7  A    between atoms: C_13  and  C_14
REMARK    8  A    between atoms: N_26  and  C_27
REMARK                            x       y       z     vdW  Elec       q    Type
REMARK                         _______ _______ _______ _____ _____    ______ ____
ROOT
ATOM      1  N   UNL     1       1.232  -2.084   0.166  0.00  0.00    -0.284 N 
ATOM      2  C   UNL     1       0.290  -2.861  -0.404  0.00  0.00    +0.217 C 
ATOM      3  O   UNL     1      -0.521  -2.373  -1.164  0.00  0.00    -0.275 OA
ATOM      4  H   UNL     1       1.930  -2.486   0.707  0.00  0.00    +0.155 HD
ENDROOT
BRANCH   1   9
ATOM      5  C   UNL     1      -0.033   1.336  -0.325  0.00  0.00    +0.002 A 
ATOM      6  C   UNL     1       1.149   2.050  -0.399  0.00  0.00    +0.002 A 
ATOM      7  C   UNL     1       2.363   1.398  -0.287  0.00  0.00    +0.025 A 
ATOM      8  C   UNL     1       2.397   0.024  -0.099  0.00  0.00    +0.049 A 
ATOM      9  C   UNL     1       1.205  -0.696  -0.024  0.00  0.00    +0.054 A 
ATOM     10  C   UNL     1      -0.008  -0.033  -0.137  0.00  0.00    +0.025 A 
BRANCH   8  11
ATOM     11  N   UNL     1       3.624  -0.638   0.014  0.00  0.00    -0.337 N 
ATOM     12  H   UNL     1       3.646  -1.598   0.154  0.00  0.00    +0.147 HD
BRANCH  11  13
ATOM     13  C   UNL     1       4.876   0.117  -0.078  0.00  0.00    +0.033 C 
ATOM     14  C   UNL     1       4.925   1.161   1.039  0.00  0.00    +0.029 C 
ATOM     15  C   UNL     1       6.232   1.951   0.942  0.00  0.00    -0.008 C 
ATOM     16  C   UNL     1       7.418   0.994   1.085  0.00  0.00    +0.007 C 
ATOM     17  C   UNL     1       7.368  -0.050  -0.032  0.00  0.00    -0.008 C 
ATOM     18  C   UNL     1       6.061  -0.839   0.065  0.00  0.00    +0.029 C 
ATOM     19  C   UNL     1       7.440   0.652  -1.390  0.00  0.00    +0.007 C 
ATOM     20  C   UNL     1       6.255   1.609  -1.533  0.00  0.00    -0.008 C 
ATOM     21  C   UNL     1       6.304   2.653  -0.415  0.00  0.00    +0.007 C 
ATOM     22  C   UNL     1       4.948   0.820  -1.436  0.00  0.00    +0.029 C 
ENDBRANCH  11  13
ENDBRANCH   8  11
ENDBRANCH   1   9
BRANCH   2  23
ATOM     23  C   UNL     1       0.243  -4.336  -0.099  0.00  0.00    +0.096 C 
BRANCH  23  24
ATOM     24  C   UNL     1      -0.912  -4.979  -0.869  0.00  0.00    +0.009 C 
BRANCH  24  25
ATOM     25  C   UNL     1      -0.960  -6.477  -0.558  0.00  0.00    +0.002 C 
BRANCH  25  26
ATOM     26  C   UNL     1      -2.115  -7.121  -1.328  0.00  0.00    +0.016 C 
BRANCH  26  27
ATOM     27  C   UNL     1      -2.162  -8.618  -1.018  0.00  0.00    +0.069 C 
ATOM     28  C   UNL     1      -3.343  -9.297  -1.744  0.00  0.00    +0.108 C 
ATOM     29  C   UNL     1      -3.002 -10.677  -2.316  0.00  0.00    +0.105 C 
ATOM     30  C   UNL     1      -1.542 -11.110  -2.062  0.00  0.00    +0.093 C 
ATOM     31  S   UNL     1      -0.721  -9.496  -1.764  0.00  0.00    -0.154 S 
ATOM     32  N   UNL     1      -3.204 -10.522  -3.766  0.00  0.00    -0.294 N 
ATOM     33  C   UNL     1      -3.598  -9.266  -4.020  0.00  0.00    +0.300 C 
ATOM     34  O   UNL     1      -3.837  -8.860  -5.141  0.00  0.00    -0.253 OA
ATOM     35  N   UNL     1      -3.697  -8.505  -2.932  0.00  0.00    -0.294 N 
ATOM     36  H   UNL     1      -3.072 -11.216  -4.430  0.00  0.00    +0.151 HD
ATOM     37  H   UNL     1      -3.965  -7.572  -2.928  0.00  0.00    +0.151 HD
ENDBRANCH  26  27
ENDBRANCH  25  26
ENDBRANCH  24  25
ENDBRANCH  23  24
ENDBRANCH   2  23
TORSDOF 8
