REMARK  Name = ZINC06210709
REMARK  7 active torsions:
REMARK  status: ('A' for Active; 'I' for Inactive)
REMARK    1  A    between atoms: C_1  and  C_2
REMARK    2  A    between atoms: C_2  and  O_3
REMARK    3  A    between atoms: O_3  and  C_4
REMARK    4  A    between atoms: C_4  and  C_6
REMARK    5  A    between atoms: C_7  and  C_29
REMARK    6  A    between atoms: C_13  and  C_17
REMARK    7  A    between atoms: C_18  and  C_19
REMARK                            x       y       z     vdW  Elec       q    Type
REMARK                         _______ _______ _______ _____ _____    ______ ____
ROOT
ATOM      1  C   UNL     1      -9.329  -4.522   0.023  0.00  0.00    +0.102 A 
ATOM      2  C   UNL     1      -9.550  -3.174   0.034  0.00  0.00    -0.015 A 
ATOM      3  C   UNL     1      -8.468  -2.293   0.034  0.00  0.00    +0.076 A 
ATOM      4  C   UNL     1      -8.473  -0.812   0.045  0.00  0.00    +0.260 A 
ATOM      5  O   UNL     1      -9.521  -0.192   0.055  0.00  0.00    -0.267 OA
ATOM      6  N   UNL     1      -7.290  -0.166   0.042  0.00  0.00    -0.307 N 
ATOM      7  H   UNL     1      -7.277   0.834   0.049  0.00  0.00    +0.170 HD
ATOM      8  C   UNL     1      -6.106  -0.855   0.031  0.00  0.00    +0.135 A 
ATOM      9  N   UNL     1      -6.075  -2.175   0.016  0.00  0.00    -0.222 NA
ATOM     10  C   UNL     1      -7.185  -2.893   0.022  0.00  0.00    +0.117 A 
ATOM     11  S   UNL     1      -7.548  -4.631   0.012  0.00  0.00    -0.062 S 
ATOM     12  C   UNL     1     -10.959  -2.640   0.046  0.00  0.00    +0.046 C 
ENDROOT
BRANCH   1  13
ATOM     13  C   UNL     1     -10.310  -5.608   0.022  0.00  0.00    +0.346 C 
ATOM     14  O   UNL     1     -11.500  -5.353   0.031  0.00  0.00    -0.244 OA
BRANCH  13  15
ATOM     15  O   UNL     1      -9.896  -6.892   0.010  0.00  0.00    -0.461 OA
BRANCH  15  17
ATOM     16  C   UNL     1     -10.251  -9.282  -0.005  0.00  0.00    +0.048 C 
ATOM     17  C   UNL     1     -10.908  -7.900   0.009  0.00  0.00    +0.229 C 
ENDBRANCH  15  17
ENDBRANCH  13  15
ENDBRANCH   1  13
BRANCH   8  18
ATOM     18  C   UNL     1      -4.848  -0.111   0.029  0.00  0.00    +0.047 C 
ATOM     19  C   UNL     1      -3.672  -0.775   0.018  0.00  0.00    +0.011 C 
BRANCH  19  20
ATOM     20  C   UNL     1      -2.406  -0.027   0.016  0.00  0.00    -0.021 A 
ATOM     21  C   UNL     1      -2.417   1.373   0.025  0.00  0.00    +0.012 A 
ATOM     22  C   UNL     1      -1.229   2.069   0.019  0.00  0.00    +0.050 A 
ATOM     23  C   UNL     1      -0.017   1.389   0.010  0.00  0.00    +0.162 A 
ATOM     24  C   UNL     1       0.002  -0.004   0.002  0.00  0.00    +0.163 A 
ATOM     25  C   UNL     1      -1.186  -0.711   0.004  0.00  0.00    +0.057 A 
ATOM     26  O   UNL     1       1.181  -0.684  -0.006  0.00  0.00    -0.485 OA
ATOM     27  C   UNL     1       2.347   0.054  -0.386  0.00  0.00    +0.270 C 
ATOM     28  C   UNL     1       2.334   1.392   0.366  0.00  0.00    +0.270 C 
ATOM     29  O   UNL     1       1.143   2.099   0.002  0.00  0.00    -0.485 OA
ENDBRANCH  19  20
ENDBRANCH   8  18
TORSDOF 5
