REMARK  Name = ZINC48926391
REMARK  10 active torsions:
REMARK  status: ('A' for Active; 'I' for Inactive)
REMARK    1  A    between atoms: C_1  and  C_2
REMARK    2  A    between atoms: C_2  and  C_3
REMARK    3  A    between atoms: C_2  and  C_4
REMARK    4  A    between atoms: C_2  and  N_5
REMARK    5  A    between atoms: N_8  and  C_11
REMARK    6  A    between atoms: C_11  and  C_12
REMARK    7  A    between atoms: C_12  and  C_14
REMARK    8  A    between atoms: C_12  and  O_21
REMARK    9  A    between atoms: C_14  and  N_15
REMARK   10  A    between atoms: C_17  and  N_20
REMARK                            x       y       z     vdW  Elec       q    Type
REMARK                         _______ _______ _______ _____ _____    ______ ____
ROOT
ATOM      1  C   UNL     1       3.505  -2.415  -3.695  0.00  0.00    +0.117 C 
ENDROOT
BRANCH   1   5
ATOM      2  N   UNL     1       0.350  -0.607  -1.539  0.00  0.00    +0.385 N 
ATOM      3  C   UNL     1       0.388  -2.074  -1.607  0.00  0.00    -0.062 C 
ATOM      4  C   UNL     1       1.262  -2.508  -2.786  0.00  0.00    +0.066 C 
ATOM      5  N   UNL     1       2.619  -1.973  -2.609  0.00  0.00    -0.303 NA
ATOM      6  C   UNL     1       2.594  -0.506  -2.515  0.00  0.00    +0.066 C 
ATOM      7  C   UNL     1       1.709  -0.089  -1.338  0.00  0.00    -0.062 C 
ATOM      8  H   UNL     1      -0.026  -0.241  -2.401  0.00  0.00    -0.081 HD
BRANCH   2  10
ATOM      9  C   UNL     1      -0.545   1.337  -0.349  0.00  0.00    -0.010 C 
ATOM     10  C   UNL     1      -0.503  -0.191  -0.418  0.00  0.00    -0.074 C 
ATOM     11  C   UNL     1       0.066  -0.746   0.889  0.00  0.00    -0.010 C 
ATOM     12  C   UNL     1      -1.920  -0.731  -0.627  0.00  0.00    -0.010 C 
ENDBRANCH   2  10
ENDBRANCH   1   5
BRANCH   1  13
ATOM     13  C   UNL     1       3.892  -3.879  -3.472  0.00  0.00    +0.150 C 
BRANCH  13  14
ATOM     14  O   UNL     1       4.632  -3.996  -2.255  0.00  0.00    -0.389 OA
ATOM     15  H   UNL     1       5.449  -3.479  -2.240  0.00  0.00    +0.210 HD
ENDBRANCH  13  14
BRANCH  13  16
ATOM     16  C   UNL     1       4.753  -4.362  -4.641  0.00  0.00    +0.176 C 
BRANCH  16  17
ATOM     17  N   UNL     1       5.024  -5.794  -4.489  0.00  0.00    -0.267 N 
ATOM     18  C   UNL     1       4.768  -6.759  -5.411  0.00  0.00    +0.131 A 
ATOM     19  C   UNL     1       5.165  -7.945  -4.883  0.00  0.00    +0.063 A 
ATOM     20  C   UNL     1       5.677  -7.695  -3.602  0.00  0.00    +0.157 A 
ATOM     21  N   UNL     1       5.598  -6.410  -3.370  0.00  0.00    -0.178 NA
BRANCH  19  22
ATOM     22  N   UNL     1       5.077  -9.202  -5.510  0.00  0.00    -0.356 N 
ATOM     23  H   UNL     1       4.705  -9.274  -6.403  0.00  0.00    +0.142 HD
ATOM     24  H   UNL     1       5.388  -9.997  -5.049  0.00  0.00    +0.142 HD
ENDBRANCH  19  22
ENDBRANCH  16  17
ENDBRANCH  13  16
ENDBRANCH   1  13
TORSDOF 7
