REMARK  Name = ZINC59498732
REMARK  10 active torsions:
REMARK  status: ('A' for Active; 'I' for Inactive)
REMARK    1  A    between atoms: C_1  and  C_2
REMARK    2  A    between atoms: C_2  and  C_3
REMARK    3  A    between atoms: C_3  and  C_4
REMARK    4  A    between atoms: C_10  and  C_12
REMARK    5  A    between atoms: C_12  and  C_13
REMARK    6  A    between atoms: N_15  and  N_16
REMARK    7  A    between atoms: C_17  and  C_18
REMARK    8  A    between atoms: C_21  and  O_24
REMARK    9  A    between atoms: O_24  and  C_25
REMARK   10  A    between atoms: C_25  and  C_26
REMARK                            x       y       z     vdW  Elec       q    Type
REMARK                         _______ _______ _______ _____ _____    ______ ____
ROOT
ATOM      1  N   UNL     1      -3.989 -10.350   2.964  0.00  0.00    -0.188 NA
ATOM      2  C   UNL     1      -4.366 -11.570   3.196  0.00  0.00    +0.138 C 
ENDROOT
BRANCH   2   3
ATOM      3  C   UNL     1      -4.506 -12.046   4.584  0.00  0.00    -0.005 A 
ATOM      4  C   UNL     1      -4.240 -11.185   5.651  0.00  0.00    +0.013 A 
ATOM      5  C   UNL     1      -4.373 -11.635   6.947  0.00  0.00    +0.046 A 
ATOM      6  C   UNL     1      -4.771 -12.943   7.193  0.00  0.00    +0.121 A 
ATOM      7  C   UNL     1      -5.036 -13.803   6.135  0.00  0.00    +0.046 A 
ATOM      8  C   UNL     1      -4.912 -13.360   4.836  0.00  0.00    +0.013 A 
BRANCH   6   9
ATOM      9  O   UNL     1      -4.901 -13.382   8.472  0.00  0.00    -0.487 OA
BRANCH   9  10
ATOM     10  C   UNL     1      -5.314 -14.738   8.653  0.00  0.00    +0.266 C 
BRANCH  10  11
ATOM     11  C   UNL     1      -5.403 -15.043  10.126  0.00  0.00    +0.008 A 
ATOM     12  C   UNL     1      -5.107 -14.062  11.054  0.00  0.00    +0.010 A 
ATOM     13  C   UNL     1      -5.188 -14.341  12.405  0.00  0.00    +0.020 A 
ATOM     14  C   UNL     1      -5.566 -15.603  12.830  0.00  0.00    +0.042 A 
ATOM     15  C   UNL     1      -5.862 -16.585  11.902  0.00  0.00    +0.040 A 
ATOM     16  C   UNL     1      -5.786 -16.303  10.549  0.00  0.00    +0.049 A 
ATOM     17 CL   UNL     1      -6.164 -17.533   9.384  0.00  0.00    -0.083 Cl
ATOM     18 CL   UNL     1      -5.667 -15.954  14.527  0.00  0.00    -0.083 Cl
ENDBRANCH  10  11
ENDBRANCH   9  10
ENDBRANCH   6   9
ENDBRANCH   2   3
BRANCH   1  21
ATOM     19  C   UNL     1      -3.464  -8.629   1.404  0.00  0.00    +0.239 C 
ATOM     20  O   UNL     1      -3.228  -7.881   2.329  0.00  0.00    -0.274 OA
ATOM     21  N   UNL     1      -3.855  -9.896   1.645  0.00  0.00    -0.207 N 
ATOM     22  H   UNL     1      -4.044 -10.495   0.905  0.00  0.00    +0.177 HD
BRANCH  19  23
ATOM     23  C   UNL     1      -3.321  -8.142  -0.015  0.00  0.00    +0.162 C 
BRANCH  23  30
ATOM     24  C   UNL     1      -1.413  -2.041   0.005  0.00  0.00    +0.219 C 
ATOM     25  O   UNL     1      -0.354  -2.632  -0.009  0.00  0.00    -0.275 OA
ATOM     26  N   UNL     1      -2.571  -2.730   0.012  0.00  0.00    -0.263 N 
ATOM     27  C   UNL     1      -2.552  -4.121   0.004  0.00  0.00    +0.188 A 
ATOM     28  N   UNL     1      -1.518  -4.938  -0.004  0.00  0.00    -0.126 NA
ATOM     29  N   UNL     1      -1.659  -6.194  -0.011  0.00  0.00    -0.144 NA
ATOM     30  C   UNL     1      -2.875  -6.702  -0.009  0.00  0.00    +0.112 A 
ATOM     31  S   UNL     1      -3.846  -5.202   0.011  0.00  0.00    -0.035 S 
ATOM     32  H   UNL     1      -3.417  -2.257   0.023  0.00  0.00    +0.157 HD
BRANCH  24  33
ATOM     33  C   UNL     1      -1.433  -0.534   0.013  0.00  0.00    +0.096 C 
BRANCH  33  35
ATOM     34  C   UNL     1      -0.019   1.526   0.010  0.00  0.00    +0.004 C 
ATOM     35  C   UNL     1       0.002  -0.004   0.002  0.00  0.00    +0.006 C 
ENDBRANCH  33  35
ENDBRANCH  24  33
ENDBRANCH  23  30
ENDBRANCH  19  23
ENDBRANCH   1  21
TORSDOF 9
