REMARK  Name = ZINC25001748
REMARK  6 active torsions:
REMARK  status: ('A' for Active; 'I' for Inactive)
REMARK    1  A    between atoms: C_1  and  C_2
REMARK    2  A    between atoms: C_2  and  C_4
REMARK    3  A    between atoms: C_2  and  N_15
REMARK    4  A    between atoms: C_7  and  N_10
REMARK    5  A    between atoms: N_15  and  C_16
REMARK    6  A    between atoms: C_17  and  C_19
REMARK                            x       y       z     vdW  Elec       q    Type
REMARK                         _______ _______ _______ _____ _____    ______ ____
ROOT
ATOM      1  N   UNL     1       0.007  -0.152   2.393  0.00  0.00    -0.297 N 
ATOM      2  C   UNL     1      -1.143   0.724   2.153  0.00  0.00    +0.132 C 
ATOM      3  C   UNL     1       0.727  -0.619   1.355  0.00  0.00    +0.224 C 
ATOM      4  O   UNL     1       1.630  -1.406   1.547  0.00  0.00    -0.275 OA
ENDROOT
BRANCH   3   5
ATOM      5  C   UNL     1       0.409  -0.166  -0.047  0.00  0.00    +0.115 C 
ATOM      6  C   UNL     1       0.773   1.312  -0.199  0.00  0.00    +0.113 C 
ATOM      7  C   UNL     1       2.270   1.472  -0.213  0.00  0.00    +0.218 C 
ATOM      8  O   UNL     1       2.773   2.450   0.298  0.00  0.00    -0.275 OA
ATOM      9  N   UNL     1       3.057   0.542  -0.786  0.00  0.00    -0.285 N 
ATOM     10  C   UNL     1       2.497  -0.600  -1.365  0.00  0.00    +0.037 A 
ATOM     11  C   UNL     1       1.204  -0.984  -1.032  0.00  0.00    -0.014 A 
ATOM     12  C   UNL     1       0.650  -2.112  -1.602  0.00  0.00    +0.006 A 
ATOM     13  C   UNL     1       1.383  -2.861  -2.506  0.00  0.00    +0.000 A 
ATOM     14  C   UNL     1       2.670  -2.482  -2.840  0.00  0.00    +0.002 A 
ATOM     15  C   UNL     1       3.229  -1.354  -2.272  0.00  0.00    +0.023 A 
ATOM     16  H   UNL     1       4.148   0.679  -0.800  0.00  0.00    +0.155 HD
ENDBRANCH   3   5
BRANCH   1  18
ATOM     17  C   UNL     1      -0.839  -1.122   4.473  0.00  0.00    +0.033 C 
ATOM     18  C   UNL     1       0.374  -0.518   3.763  0.00  0.00    +0.103 C 
BRANCH  18  19
ATOM     19  C   UNL     1       0.831   0.710   4.507  0.00  0.00    -0.027 A 
ATOM     20  C   UNL     1       0.035   1.841   4.525  0.00  0.00    +0.007 A 
ATOM     21  C   UNL     1       0.449   2.967   5.210  0.00  0.00    +0.028 A 
ATOM     22  C   UNL     1       1.669   2.966   5.872  0.00  0.00    +0.067 A 
ATOM     23  C   UNL     1       2.468   1.831   5.848  0.00  0.00    +0.028 A 
ATOM     24  C   UNL     1       2.047   0.706   5.165  0.00  0.00    +0.007 A 
BRANCH  22  25
ATOM     25  N   UNL     1       2.094   4.109   6.564  0.00  0.00    -0.220 N 
ATOM     26  C   UNL     1       1.433   5.277   6.677  0.00  0.00    +0.225 A 
ATOM     27  N   UNL     1       2.162   6.087   7.401  0.00  0.00    -0.222 NA
ATOM     28  C   UNL     1       3.289   5.477   7.766  0.00  0.00    +0.245 A 
ATOM     29  N   UNL     1       3.291   4.262   7.284  0.00  0.00    -0.154 NA
ENDBRANCH  22  25
ENDBRANCH  18  19
ENDBRANCH   1  18
TORSDOF 4
