REMARK  Name = ZINC32216772
REMARK  10 active torsions:
REMARK  status: ('A' for Active; 'I' for Inactive)
REMARK    1  A    between atoms: C_1  and  N_2
REMARK    2  A    between atoms: N_2  and  C_3
REMARK    3  A    between atoms: N_2  and  C_4
REMARK    4  A    between atoms: C_4  and  C_6
REMARK    5  A    between atoms: C_4  and  C_30
REMARK    6  A    between atoms: C_6  and  N_7
REMARK    7  A    between atoms: C_8  and  C_10
REMARK    8  A    between atoms: C_13  and  N_16
REMARK    9  A    between atoms: N_16  and  S_17
REMARK   10  A    between atoms: S_17  and  C_20
REMARK                            x       y       z     vdW  Elec       q    Type
REMARK                         _______ _______ _______ _____ _____    ______ ____
ROOT
ATOM      1  C   UNL     1       6.190   4.630  -2.655  0.00  0.00    +0.037 A 
ATOM      2  C   UNL     1       7.377   4.012  -2.250  0.00  0.00    +0.015 A 
ATOM      3  C   UNL     1       7.533   3.615  -0.942  0.00  0.00    +0.025 A 
ATOM      4  C   UNL     1       6.511   3.829  -0.021  0.00  0.00    +0.048 A 
ATOM      5  C   UNL     1       5.326   4.439  -0.422  0.00  0.00    +0.025 A 
ATOM      6  C   UNL     1       5.165   4.843  -1.728  0.00  0.00    +0.015 A 
ENDROOT
BRANCH   1   8
ATOM      7  N   UNL     1       4.875   5.654  -4.444  0.00  0.00    -0.313 N 
ATOM      8  C   UNL     1       6.019   5.058  -4.056  0.00  0.00    +0.244 C 
ATOM      9  O   UNL     1       6.912   4.873  -4.861  0.00  0.00    -0.270 OA
ATOM     10  H   UNL     1       4.067   5.821  -3.716  0.00  0.00    +0.149 HD
BRANCH   7  11
ATOM     11  C   UNL     1       4.705   6.078  -5.836  0.00  0.00    +0.094 C 
BRANCH  11  12
ATOM     12  C   UNL     1       3.266   6.549  -6.054  0.00  0.00    -0.021 C 
BRANCH  12  13
ATOM     13  C   UNL     1       3.125   7.107  -7.447  0.00  0.00    -0.057 A 
ATOM     14  C   UNL     1       2.615   6.317  -8.460  0.00  0.00    +0.002 A 
ATOM     15  C   UNL     1       2.482   6.830  -9.737  0.00  0.00    +0.003 A 
ATOM     16  C   UNL     1       2.867   8.130 -10.004  0.00  0.00    +0.038 A 
ATOM     17  C   UNL     1       3.383   8.921  -8.991  0.00  0.00    +0.124 A 
ATOM     18  C   UNL     1       3.511   8.408  -7.711  0.00  0.00    +0.040 A 
ATOM     19  F   UNL     1       3.761  10.191  -9.251  0.00  0.00    -0.205 F 
ENDBRANCH  12  13
BRANCH  12  21
ATOM     20  C   UNL     1       2.959   4.168  -6.372  0.00  0.00    -0.096 C 
ATOM     21  N   UNL     1       2.349   5.413  -5.887  0.00  0.00    +0.382 N 
ATOM     22  C   UNL     1       1.923   5.281  -4.488  0.00  0.00    -0.096 C 
ATOM     23  H   UNL     1       1.454   5.609  -6.496  0.00  0.00    -0.082 HD
ENDBRANCH  12  21
ENDBRANCH  11  12
ENDBRANCH   7  11
ENDBRANCH   1   8
BRANCH   4  24
ATOM     24  N   UNL     1       6.672   3.426   1.300  0.00  0.00    -0.216 N 
ATOM     25  H   UNL     1       6.173   2.515   1.662  0.00  0.00    +0.174 HD
BRANCH  24  26
ATOM     26  S   UNL     1       7.615   4.319   2.328  0.00  0.00    +0.072 S 
ATOM     27  O   UNL     1       8.855   4.525   1.665  0.00  0.00    -0.150 OA
ATOM     28  O   UNL     1       7.527   3.697   3.603  0.00  0.00    -0.150 OA
BRANCH  26  29
ATOM     29  C   UNL     1       6.859   5.902   2.486  0.00  0.00    +0.112 A 
ATOM     30  C   UNL     1       5.842   6.092   3.403  0.00  0.00    +0.032 A 
ATOM     31  C   UNL     1       5.245   7.332   3.529  0.00  0.00    +0.051 A 
ATOM     32  C   UNL     1       5.665   8.390   2.736  0.00  0.00    +0.162 A 
ATOM     33  C   UNL     1       6.689   8.199   1.816  0.00  0.00    +0.164 A 
ATOM     34  C   UNL     1       7.284   6.952   1.694  0.00  0.00    +0.078 A 
ATOM     35  O   UNL     1       7.123   9.225   1.033  0.00  0.00    -0.485 OA
ATOM     36  C   UNL     1       6.255  10.358   0.920  0.00  0.00    +0.270 C 
ATOM     37  C   UNL     1       5.763  10.730   2.325  0.00  0.00    +0.270 C 
ATOM     38  O   UNL     1       5.063   9.603   2.865  0.00  0.00    -0.485 OA
ENDBRANCH  26  29
ENDBRANCH  24  26
ENDBRANCH   4  24
TORSDOF 8
