REMARK  Name = ZINC22870940
REMARK  7 active torsions:
REMARK  status: ('A' for Active; 'I' for Inactive)
REMARK    1  A    between atoms: C_1  and  N_2
REMARK    2  A    between atoms: N_5  and  C_8
REMARK    3  A    between atoms: C_8  and  C_10
REMARK    4  A    between atoms: C_8  and  C_18
REMARK    5  A    between atoms: C_13  and  O_16
REMARK    6  A    between atoms: O_16  and  C_17
REMARK    7  A    between atoms: C_26  and  C_27
REMARK                            x       y       z     vdW  Elec       q    Type
REMARK                         _______ _______ _______ _____ _____    ______ ____
ROOT
ATOM      1  C   UNL     1       2.997   3.865  -1.811  0.00  0.00    +0.120 C 
ENDROOT
BRANCH   1   2
ATOM      2  C   UNL     1       3.925   3.234  -0.806  0.00  0.00    +0.011 A 
ATOM      3  C   UNL     1       5.287   3.663  -0.489  0.00  0.00    +0.009 A 
ATOM      4  C   UNL     1       6.110   4.693  -0.955  0.00  0.00    +0.010 A 
ATOM      5  C   UNL     1       7.371   4.833  -0.450  0.00  0.00    +0.001 A 
ATOM      6  C   UNL     1       7.843   3.962   0.523  0.00  0.00    +0.002 A 
ATOM      7  C   UNL     1       7.049   2.940   0.996  0.00  0.00    +0.030 A 
ATOM      8  C   UNL     1       5.761   2.777   0.497  0.00  0.00    +0.093 A 
ATOM      9  N   UNL     1       4.752   1.877   0.761  0.00  0.00    -0.131 N 
ATOM     10  C   UNL     1       3.657   2.161  -0.022  0.00  0.00    +0.098 A 
ATOM     11  O   UNL     1       4.831   0.818   1.698  0.00  0.00    -0.163 OA
BRANCH  10  12
ATOM     12  C   UNL     1       2.385   1.407  -0.014  0.00  0.00    +0.002 A 
ATOM     13  C   UNL     1       1.167   2.088   0.002  0.00  0.00    +0.010 A 
ATOM     14  C   UNL     1      -0.017   1.379   0.010  0.00  0.00    +0.001 A 
ATOM     15  C   UNL     1       0.002  -0.004   0.002  0.00  0.00    +0.000 A 
ATOM     16  C   UNL     1       1.206  -0.685  -0.013  0.00  0.00    +0.001 A 
ATOM     17  C   UNL     1       2.397   0.012  -0.021  0.00  0.00    +0.010 A 
ENDBRANCH  10  12
ENDBRANCH   1   2
BRANCH   1  22
ATOM     18  C   UNL     1       1.975   9.357  -0.974  0.00  0.00    -0.096 C 
ATOM     19  N   UNL     1       1.936   7.896  -1.121  0.00  0.00    +0.379 N 
ATOM     20  C   UNL     1       2.268   7.497  -2.496  0.00  0.00    -0.064 C 
ATOM     21  C   UNL     1       2.139   5.978  -2.628  0.00  0.00    +0.067 C 
ATOM     22  N   UNL     1       3.035   5.326  -1.663  0.00  0.00    -0.295 NA
ATOM     23  C   UNL     1       2.703   5.726  -0.288  0.00  0.00    +0.067 C 
ATOM     24  C   UNL     1       2.832   7.245  -0.156  0.00  0.00    -0.064 C 
ATOM     25  H   UNL     1       0.909   7.564  -0.910  0.00  0.00    -0.082 HD
ENDBRANCH   1  22
BRANCH   1  26
ATOM     26  C   UNL     1       3.432   3.490  -3.203  0.00  0.00    -0.026 A 
ATOM     27  C   UNL     1       4.478   4.165  -3.805  0.00  0.00    +0.009 A 
ATOM     28  C   UNL     1       4.883   3.818  -5.080  0.00  0.00    +0.046 A 
ATOM     29  C   UNL     1       4.232   2.800  -5.760  0.00  0.00    +0.120 A 
ATOM     30  C   UNL     1       3.179   2.128  -5.157  0.00  0.00    +0.046 A 
ATOM     31  C   UNL     1       2.782   2.474  -3.880  0.00  0.00    +0.009 A 
BRANCH  29  32
ATOM     32  O   UNL     1       4.625   2.462  -7.017  0.00  0.00    -0.495 OA
ATOM     33  C   UNL     1       5.716   3.197  -7.575  0.00  0.00    +0.277 C 
ENDBRANCH  29  32
ENDBRANCH   1  26
TORSDOF 5
