REMARK  Name = ZINC09524327
REMARK  10 active torsions:
REMARK  status: ('A' for Active; 'I' for Inactive)
REMARK    1  A    between atoms: C_1  and  C_2
REMARK    2  A    between atoms: C_2  and  C_3
REMARK    3  A    between atoms: C_2  and  S_4
REMARK    4  A    between atoms: S_4  and  C_5
REMARK    5  A    between atoms: C_16  and  C_18
REMARK    6  A    between atoms: C_21  and  N_24
REMARK    7  A    between atoms: N_24  and  C_25
REMARK    8  A    between atoms: N_24  and  C_26
REMARK    9  A    between atoms: C_30  and  C_32
REMARK   10  A    between atoms: C_30  and  C_33
REMARK                            x       y       z     vdW  Elec       q    Type
REMARK                         _______ _______ _______ _____ _____    ______ ____
ROOT
ATOM      1  C   UNL     1      -8.122  -0.087   3.972  0.00  0.00    +0.171 A 
ATOM      2  N   UNL     1      -7.718  -0.620   2.785  0.00  0.00    -0.302 N 
ATOM      3  H   UNL     1      -7.852  -1.564   2.608  0.00  0.00    +0.171 HD
ATOM      4  C   UNL     1      -7.132   0.164   1.856  0.00  0.00    +0.258 A 
ATOM      5  O   UNL     1      -6.764  -0.305   0.790  0.00  0.00    -0.267 OA
ATOM      6  C   UNL     1      -6.952   1.524   2.138  0.00  0.00    +0.069 A 
ATOM      7  C   UNL     1      -7.386   2.015   3.356  0.00  0.00    +0.135 A 
ATOM      8  N   UNL     1      -7.958   1.192   4.241  0.00  0.00    -0.208 NA
ATOM      9  N   UNL     1      -7.225   3.355   3.649  0.00  0.00    -0.302 N 
ATOM     10  C   UNL     1      -7.019   4.267   2.649  0.00  0.00    +0.017 C 
ATOM     11  C   UNL     1      -6.581   3.877   1.433  0.00  0.00    +0.024 C 
ATOM     12  C   UNL     1      -6.302   2.426   1.132  0.00  0.00    +0.092 C 
ATOM     13  C   UNL     1      -6.367   4.813   0.406  0.00  0.00    +0.162 C 
ATOM     14  O   UNL     1      -5.990   4.427  -0.682  0.00  0.00    -0.292 OA
ATOM     15  C   UNL     1      -6.596   6.283   0.629  0.00  0.00    +0.086 C 
ATOM     16  C   UNL     1      -6.369   6.603   2.110  0.00  0.00    -0.023 C 
ATOM     17  C   UNL     1      -7.300   5.720   2.944  0.00  0.00    +0.058 C 
ATOM     18  C   UNL     1      -4.914   6.313   2.483  0.00  0.00    +0.011 C 
ATOM     19  C   UNL     1      -6.683   8.077   2.373  0.00  0.00    +0.011 C 
ATOM     20  H   UNL     1      -7.257   3.653   4.571  0.00  0.00    +0.153 HD
ENDROOT
BRANCH  12  21
ATOM     21  C   UNL     1      -4.813   2.196   1.153  0.00  0.00    -0.035 A 
ATOM     22  C   UNL     1      -4.167   1.750   0.014  0.00  0.00    +0.006 A 
ATOM     23  C   UNL     1      -2.802   1.538   0.031  0.00  0.00    +0.023 A 
ATOM     24  C   UNL     1      -2.079   1.772   1.193  0.00  0.00    +0.029 A 
ATOM     25  C   UNL     1      -2.731   2.215   2.337  0.00  0.00    +0.023 A 
ATOM     26  C   UNL     1      -4.095   2.430   2.312  0.00  0.00    +0.006 A 
BRANCH  24  27
ATOM     27  N   UNL     1      -0.698   1.558   1.213  0.00  0.00    -0.336 N 
ATOM     28  C   UNL     1      -0.013   1.086   0.008  0.00  0.00    +0.129 C 
ATOM     29  C   UNL     1       0.063   1.806   2.440  0.00  0.00    +0.129 C 
ENDBRANCH  24  27
ENDBRANCH  12  21
BRANCH   1  30
ATOM     30  S   UNL     1      -8.881  -1.131   5.172  0.00  0.00    -0.085 S 
BRANCH  30  32
ATOM     31  C   UNL     1     -10.204   1.113   5.996  0.00  0.00    +0.019 C 
ATOM     32  C   UNL     1      -9.192   0.075   6.486  0.00  0.00    +0.048 C 
ATOM     33  C   UNL     1      -9.751  -0.643   7.715  0.00  0.00    +0.019 C 
ENDBRANCH  30  32
ENDBRANCH   1  30
TORSDOF 4
