REMARK  Name = ZINC38562041
REMARK  8 active torsions:
REMARK  status: ('A' for Active; 'I' for Inactive)
REMARK    1  A    between atoms: C_1  and  C_2
REMARK    2  A    between atoms: C_3  and  C_14
REMARK    3  A    between atoms: C_4  and  C_7
REMARK    4  A    between atoms: N_16  and  C_17
REMARK    5  A    between atoms: C_17  and  C_18
REMARK    6  A    between atoms: C_18  and  C_19
REMARK    7  A    between atoms: N_25  and  S_26
REMARK    8  A    between atoms: S_26  and  C_29
REMARK                            x       y       z     vdW  Elec       q    Type
REMARK                         _______ _______ _______ _____ _____    ______ ____
ROOT
ATOM      1  C   UNL     1      -2.040   0.932   0.298  0.00  0.00    +0.250 C 
ATOM      2  O   UNL     1      -2.532   1.380  -0.720  0.00  0.00    -0.270 OA
ATOM      3  N   UNL     1      -2.794   0.793   1.407  0.00  0.00    -0.311 N 
ATOM      4  H   UNL     1      -2.402   0.436   2.219  0.00  0.00    +0.149 HD
ENDROOT
BRANCH   1   7
ATOM      5  C   UNL     1       0.360   2.788   1.050  0.00  0.00    +0.090 C 
ATOM      6  C   UNL     1       0.438   1.338   0.646  0.00  0.00    +0.147 A 
ATOM      7  C   UNL     1      -0.620   0.541   0.320  0.00  0.00    +0.106 A 
ATOM      8  C   UNL     1      -0.070  -0.783  -0.005  0.00  0.00    +0.127 A 
ATOM      9  N   UNL     1       1.228  -0.702   0.141  0.00  0.00    -0.077 NA
ATOM     10  O   UNL     1       1.555   0.615   0.540  0.00  0.00    -0.359 OA
BRANCH   8  11
ATOM     11  C   UNL     1      -0.839  -1.982  -0.417  0.00  0.00    +0.023 A 
ATOM     12  C   UNL     1      -2.226  -1.917  -0.535  0.00  0.00    +0.011 A 
ATOM     13  C   UNL     1      -2.936  -3.036  -0.920  0.00  0.00    +0.001 A 
ATOM     14  C   UNL     1      -2.275  -4.221  -1.188  0.00  0.00    +0.001 A 
ATOM     15  C   UNL     1      -0.899  -4.293  -1.073  0.00  0.00    +0.020 A 
ATOM     16  C   UNL     1      -0.176  -3.178  -0.695  0.00  0.00    +0.050 A 
ATOM     17 CL   UNL     1       1.552  -3.267  -0.557  0.00  0.00    -0.083 Cl
ENDBRANCH   8  11
ENDBRANCH   1   7
BRANCH   3  18
ATOM     18  C   UNL     1      -4.207   1.182   1.385  0.00  0.00    +0.106 C 
BRANCH  18  19
ATOM     19  C   UNL     1      -4.828   0.924   2.759  0.00  0.00    +0.039 C 
BRANCH  19  20
ATOM     20  C   UNL     1      -6.330   1.206   2.701  0.00  0.00    +0.081 C 
ATOM     21  C   UNL     1      -6.566   2.642   2.223  0.00  0.00    +0.021 C 
ATOM     22  C   UNL     1      -8.060   2.962   2.300  0.00  0.00    +0.003 C 
ATOM     23  C   UNL     1      -8.534   2.852   3.751  0.00  0.00    +0.017 C 
ATOM     24  C   UNL     1      -8.321   1.418   4.246  0.00  0.00    +0.110 C 
ATOM     25  N   UNL     1      -6.913   1.048   4.040  0.00  0.00    -0.173 NA
BRANCH  25  26
ATOM     26  S   UNL     1      -6.001   0.469   5.295  0.00  0.00    +0.067 S 
ATOM     27  O   UNL     1      -6.909   0.120   6.330  0.00  0.00    -0.152 OA
ATOM     28  O   UNL     1      -5.088  -0.465   4.736  0.00  0.00    -0.152 OA
BRANCH  26  29
ATOM     29  C   UNL     1      -5.037   1.813   5.902  0.00  0.00    +0.143 A 
ATOM     30  C   UNL     1      -5.338   2.709   6.874  0.00  0.00    +0.036 A 
ATOM     31  C   UNL     1      -4.418   3.691   7.189  0.00  0.00    +0.010 A 
ATOM     32  C   UNL     1      -3.242   3.730   6.516  0.00  0.00    +0.047 A 
ATOM     33  S   UNL     1      -3.408   2.345   5.402  0.00  0.00    -0.077 S 
ENDBRANCH  26  29
ENDBRANCH  25  26
ENDBRANCH  19  20
ENDBRANCH  18  19
ENDBRANCH   3  18
TORSDOF 7
