REMARK  Name = ZINC12858239
REMARK  4 active torsions:
REMARK  status: ('A' for Active; 'I' for Inactive)
REMARK    1  A    between atoms: C_1  and  C_2
REMARK    2  A    between atoms: C_12  and  C_14
REMARK    3  A    between atoms: N_19  and  S_20
REMARK    4  A    between atoms: S_20  and  C_23
REMARK                            x       y       z     vdW  Elec       q    Type
REMARK                         _______ _______ _______ _____ _____    ______ ____
ROOT
ATOM      1  C   UNL     1      -0.919  -0.795   0.944  0.00  0.00    +0.046 C 
ATOM      2  C   UNL     1      -0.734   0.596   0.394  0.00  0.00    -0.024 A 
ATOM      3  C   UNL     1       0.531   1.073   0.169  0.00  0.00    +0.005 A 
ATOM      4  C   UNL     1       0.747   2.347  -0.336  0.00  0.00    +0.001 A 
ATOM      5  C   UNL     1      -0.339   3.156  -0.618  0.00  0.00    +0.017 A 
ATOM      6  C   UNL     1      -1.609   2.687  -0.396  0.00  0.00    +0.041 A 
ATOM      7  C   UNL     1      -1.867   1.393   0.112  0.00  0.00    +0.083 A 
ATOM      8  N   UNL     1      -3.170   1.080   0.280  0.00  0.00    -0.224 NA
ATOM      9  C   UNL     1      -4.140   1.913  -0.016  0.00  0.00    +0.165 A 
ATOM     10  S   UNL     1      -3.246   3.345  -0.603  0.00  0.00    -0.052 S 
ATOM     11  N   UNL     1      -5.508   1.729   0.098  0.00  0.00    -0.263 N 
ATOM     12  C   UNL     1      -6.353   2.716  -0.262  0.00  0.00    +0.238 C 
ATOM     13  O   UNL     1      -5.915   3.765  -0.684  0.00  0.00    -0.274 OA
ATOM     14  H   UNL     1      -5.859   0.890   0.436  0.00  0.00    +0.157 HD
ENDROOT
BRANCH  12  15
ATOM     15  C   UNL     1      -7.842   2.516  -0.138  0.00  0.00    +0.166 C 
ATOM     16  C   UNL     1      -8.428   1.989  -1.471  0.00  0.00    +0.031 C 
ATOM     17  C   UNL     1      -9.906   2.447  -1.365  0.00  0.00    +0.019 C 
ATOM     18  C   UNL     1      -9.796   3.803  -0.636  0.00  0.00    +0.110 C 
ATOM     19  N   UNL     1      -8.516   3.808   0.086  0.00  0.00    -0.164 NA
BRANCH  19  20
ATOM     20  S   UNL     1      -7.929   5.057   1.001  0.00  0.00    +0.068 S 
ATOM     21  O   UNL     1      -9.056   5.712   1.567  0.00  0.00    -0.152 OA
ATOM     22  O   UNL     1      -6.881   4.521   1.797  0.00  0.00    -0.152 OA
BRANCH  20  23
ATOM     23  C   UNL     1      -7.182   6.207  -0.106  0.00  0.00    +0.144 A 
ATOM     24  C   UNL     1      -7.765   7.185  -0.842  0.00  0.00    +0.037 A 
ATOM     25  C   UNL     1      -6.972   7.980  -1.649  0.00  0.00    +0.025 A 
ATOM     26  C   UNL     1      -5.636   7.751  -1.688  0.00  0.00    +0.057 A 
ATOM     27  S   UNL     1      -5.463   6.382  -0.555  0.00  0.00    -0.062 S 
ATOM     28 BR   UNL     1      -4.302   8.649  -2.683  0.00  0.00    -0.043 Br
ENDBRANCH  20  23
ENDBRANCH  19  20
ENDBRANCH  12  15
TORSDOF 3
