REMARK  Name = ZINC09097247
REMARK  7 active torsions:
REMARK  status: ('A' for Active; 'I' for Inactive)
REMARK    1  A    between atoms: C_1  and  C_2
REMARK    2  A    between atoms: C_2  and  C_22
REMARK    3  A    between atoms: N_3  and  N_4
REMARK    4  A    between atoms: C_5  and  C_7
REMARK    5  A    between atoms: C_10  and  N_13
REMARK    6  A    between atoms: N_13  and  S_14
REMARK    7  A    between atoms: S_14  and  C_17
REMARK                            x       y       z     vdW  Elec       q    Type
REMARK                         _______ _______ _______ _____ _____    ______ ____
ROOT
ATOM      1  N   UNL     1      -2.700   3.889  -0.165  0.00  0.00    -0.203 N 
ATOM      2  C   UNL     1      -2.481   5.217  -0.098  0.00  0.00    +0.263 C 
ATOM      3  O   UNL     1      -1.343   5.646  -0.076  0.00  0.00    -0.268 OA
ATOM      4  H   UNL     1      -3.607   3.547  -0.182  0.00  0.00    +0.178 HD
ENDROOT
BRANCH   2   5
ATOM      5  C   UNL     1      -3.622   6.151  -0.050  0.00  0.00    +0.038 A 
ATOM      6  C   UNL     1      -4.931   5.660  -0.080  0.00  0.00    +0.015 A 
ATOM      7  C   UNL     1      -5.993   6.533  -0.029  0.00  0.00    +0.025 A 
ATOM      8  C   UNL     1      -5.765   7.905   0.040  0.00  0.00    +0.048 A 
ATOM      9  C   UNL     1      -4.463   8.397   0.064  0.00  0.00    +0.025 A 
ATOM     10  C   UNL     1      -3.397   7.529   0.020  0.00  0.00    +0.015 A 
BRANCH   8  11
ATOM     11  N   UNL     1      -6.841   8.785   0.086  0.00  0.00    -0.216 N 
ATOM     12  H   UNL     1      -7.352   8.884   0.904  0.00  0.00    +0.174 HD
BRANCH  11  13
ATOM     13  S   UNL     1      -7.249   9.664  -1.257  0.00  0.00    +0.079 S 
ATOM     14  O   UNL     1      -8.400  10.423  -0.912  0.00  0.00    -0.149 OA
ATOM     15  O   UNL     1      -6.052  10.267  -1.728  0.00  0.00    -0.149 OA
BRANCH  13  16
ATOM     16  C   UNL     1      -7.756   8.517  -2.496  0.00  0.00    +0.146 A 
ATOM     17  C   UNL     1      -9.005   8.094  -2.807  0.00  0.00    +0.036 A 
ATOM     18  C   UNL     1      -9.167   7.179  -3.830  0.00  0.00    +0.010 A 
ATOM     19  C   UNL     1      -8.072   6.732  -4.492  0.00  0.00    +0.047 A 
ATOM     20  S   UNL     1      -6.757   7.618  -3.671  0.00  0.00    -0.077 S 
ENDBRANCH  13  16
ENDBRANCH  11  13
ENDBRANCH   8  11
ENDBRANCH   2   5
BRANCH   1  23
ATOM     21  C   UNL     1      -3.237   1.189  -0.302  0.00  0.00    +0.071 C 
ATOM     22  C   UNL     1      -1.827   1.720  -0.276  0.00  0.00    +0.098 C 
ATOM     23  N   UNL     1      -1.616   3.002  -0.210  0.00  0.00    -0.181 NA
BRANCH  22  24
ATOM     24  C   UNL     1      -0.692   0.792  -0.323  0.00  0.00    +0.151 A 
ATOM     25  C   UNL     1       0.618   1.156  -0.310  0.00  0.00    +0.059 A 
ATOM     26  C   UNL     1       1.384  -0.088  -0.378  0.00  0.00    +0.021 A 
ATOM     27  C   UNL     1       2.747  -0.392  -0.400  0.00  0.00    +0.011 A 
ATOM     28  C   UNL     1       3.150  -1.696  -0.469  0.00  0.00    +0.001 A 
ATOM     29  C   UNL     1       2.213  -2.719  -0.516  0.00  0.00    +0.004 A 
ATOM     30  C   UNL     1       0.863  -2.439  -0.497  0.00  0.00    +0.047 A 
ATOM     31  C   UNL     1       0.431  -1.121  -0.426  0.00  0.00    +0.136 A 
ATOM     32  O   UNL     1      -0.791  -0.551  -0.392  0.00  0.00    -0.454 OA
ENDBRANCH  22  24
ENDBRANCH   1  23
TORSDOF 6
