REMARK  Name = ZINC16570961
REMARK  12 active torsions:
REMARK  status: ('A' for Active; 'I' for Inactive)
REMARK    1  A    between atoms: C_1  and  C_2
REMARK    2  A    between atoms: C_2  and  C_3
REMARK    3  A    between atoms: C_3  and  C_4
REMARK    4  A    between atoms: C_5  and  C_17
REMARK    5  A    between atoms: C_6  and  O_16
REMARK    6  A    between atoms: N_7  and  C_9
REMARK    7  A    between atoms: C_18  and  N_28
REMARK    8  A    between atoms: N_21  and  C_24
REMARK    9  A    between atoms: C_24  and  C_25
REMARK   10  A    between atoms: C_25  and  C_26
REMARK   11  A    between atoms: C_25  and  C_27
REMARK   12  A    between atoms: C_32  and  C_34
REMARK                            x       y       z     vdW  Elec       q    Type
REMARK                         _______ _______ _______ _____ _____    ______ ____
ROOT
ATOM      1  C   UNL     1       0.015  -0.475   2.547  0.00  0.00    +0.080 C 
ATOM      2  C   UNL     1      -1.085  -0.092   3.300  0.00  0.00    +0.122 C 
ATOM      3  C   UNL     1      -0.560   0.332   4.611  0.00  0.00    +0.271 C 
ATOM      4  O   UNL     1      -1.227   0.734   5.543  0.00  0.00    -0.268 OA
ATOM      5  N   UNL     1       0.778   0.207   4.603  0.00  0.00    -0.233 N 
ATOM      6  C   UNL     1       1.199  -0.265   3.417  0.00  0.00    +0.256 C 
ATOM      7  O   UNL     1       2.353  -0.483   3.109  0.00  0.00    -0.269 OA
ENDROOT
BRANCH   2   8
ATOM      8  N   UNL     1      -2.399  -0.108   2.905  0.00  0.00    -0.318 N 
ATOM      9  C   UNL     1      -2.991  -1.273   2.667  0.00  0.00    +0.091 A 
ATOM     10  C   UNL     1      -4.310  -1.324   2.269  0.00  0.00    +0.018 A 
ATOM     11  C   UNL     1      -5.019  -0.140   2.118  0.00  0.00    +0.006 A 
ATOM     12  C   UNL     1      -4.371   1.060   2.374  0.00  0.00    -0.034 A 
ATOM     13  C   UNL     1      -3.051   1.041   2.774  0.00  0.00    +0.094 A 
ATOM     14  C   UNL     1      -5.102   2.369   2.222  0.00  0.00    +0.045 C 
ENDBRANCH   2   8
BRANCH   1  16
ATOM     15  C   UNL     1       0.004  -0.200  -0.014  0.00  0.00    +0.075 A 
ATOM     16  C   UNL     1       0.010  -0.979   1.166  0.00  0.00    +0.074 A 
ATOM     17  C   UNL     1       0.010  -2.316   0.772  0.00  0.00    +0.224 A 
ATOM     18  N   UNL     1       0.010  -2.330  -0.579  0.00  0.00    -0.200 N 
ATOM     19  N   UNL     1       0.002  -1.009  -1.037  0.00  0.00    -0.168 NA
BRANCH  18  20
ATOM     20  C   UNL     1       0.015  -3.477  -1.386  0.00  0.00    +0.069 A 
ATOM     21  C   UNL     1       0.713  -4.607  -0.984  0.00  0.00    +0.029 A 
ATOM     22  C   UNL     1       0.713  -5.737  -1.778  0.00  0.00    +0.022 A 
ATOM     23  C   UNL     1       0.025  -5.740  -2.979  0.00  0.00    +0.041 A 
ATOM     24  C   UNL     1      -0.668  -4.612  -3.384  0.00  0.00    +0.022 A 
ATOM     25  C   UNL     1      -0.675  -3.482  -2.591  0.00  0.00    +0.029 A 
ATOM     26 CL   UNL     1       0.032  -7.159  -3.978  0.00  0.00    -0.084 Cl
ENDBRANCH  18  20
BRANCH  17  27
ATOM     27  O   UNL     1       0.015  -3.395   1.589  0.00  0.00    -0.492 OA
ATOM     28  H   UNL     1      -0.867  -3.710   1.830  0.00  0.00    +0.294 HD
ENDBRANCH  17  27
BRANCH  15  29
ATOM     29  C   UNL     1       0.003   1.306  -0.079  0.00  0.00    +0.058 C 
BRANCH  29  31
ATOM     30  C   UNL     1       1.427   3.330  -0.422  0.00  0.00    +0.004 C 
ATOM     31  C   UNL     1       1.438   1.811  -0.235  0.00  0.00    +0.003 C 
ENDBRANCH  29  31
ENDBRANCH  15  29
ENDBRANCH   1  16
BRANCH   5  32
ATOM     32  C   UNL     1       1.654   0.538   5.729  0.00  0.00    +0.120 C 
BRANCH  32  33
ATOM     33  C   UNL     1       2.082   2.004   5.627  0.00  0.00    +0.001 C 
ATOM     34  C   UNL     1       2.894   2.385   6.867  0.00  0.00    +0.009 C 
ATOM     35  C   UNL     1       2.940   2.199   4.375  0.00  0.00    +0.009 C 
ENDBRANCH  32  33
ENDBRANCH   5  32
TORSDOF 8
