REMARK  Name = ZINC36299026
REMARK  12 active torsions:
REMARK  status: ('A' for Active; 'I' for Inactive)
REMARK    1  A    between atoms: C_1  and  C_2
REMARK    2  A    between atoms: C_2  and  O_3
REMARK    3  A    between atoms: O_3  and  C_4
REMARK    4  A    between atoms: C_9  and  S_10
REMARK    5  A    between atoms: S_10  and  N_13
REMARK    6  A    between atoms: N_13  and  C_14
REMARK    7  A    between atoms: C_14  and  C_15
REMARK    8  A    between atoms: C_15  and  C_17
REMARK    9  A    between atoms: C_15  and  N_21
REMARK   10  A    between atoms: C_17  and  C_18
REMARK   11  A    between atoms: C_18  and  C_19
REMARK   12  A    between atoms: C_18  and  C_20
REMARK                            x       y       z     vdW  Elec       q    Type
REMARK                         _______ _______ _______ _____ _____    ______ ____
ROOT
ATOM      1  S   UNL     1      -3.604  -1.974   0.675  0.00  0.00    +0.062 S 
ATOM      2  O   UNL     1      -3.416  -1.178  -0.487  0.00  0.00    -0.153 OA
ATOM      3  O   UNL     1      -4.648  -2.932   0.782  0.00  0.00    -0.153 OA
ENDROOT
BRANCH   1   9
ATOM      4  C   UNL     1      -0.887  -2.161   0.918  0.00  0.00    +0.147 A 
ATOM      5  C   UNL     1       0.300  -2.848   1.132  0.00  0.00    +0.049 A 
ATOM      6  C   UNL     1       0.277  -4.210   1.360  0.00  0.00    +0.019 A 
ATOM      7  C   UNL     1      -0.927  -4.890   1.374  0.00  0.00    +0.020 A 
ATOM      8  C   UNL     1      -2.112  -4.208   1.161  0.00  0.00    +0.047 A 
ATOM      9  C   UNL     1      -2.094  -2.844   0.939  0.00  0.00    +0.148 A 
ATOM     10 BR   UNL     1      -0.955  -6.755   1.686  0.00  0.00    -0.050 Br
BRANCH   4  11
ATOM     11  O   UNL     1      -0.867  -0.821   0.694  0.00  0.00    -0.490 OA
BRANCH  11  13
ATOM     12  C   UNL     1       0.234   1.313   0.420  0.00  0.00    +0.048 C 
ATOM     13  C   UNL     1       0.412  -0.183   0.686  0.00  0.00    +0.226 C 
ENDBRANCH  11  13
ENDBRANCH   4  11
ENDBRANCH   1   9
BRANCH   1  14
ATOM     14  N   UNL     1      -3.792  -0.925   1.942  0.00  0.00    -0.191 NA
ATOM     15  H   UNL     1      -4.529  -1.040   2.562  0.00  0.00    +0.148 HD
BRANCH  14  16
ATOM     16  C   UNL     1      -2.844   0.177   2.127  0.00  0.00    +0.090 C 
BRANCH  16  17
ATOM     17  C   UNL     1      -3.431   1.195   3.108  0.00  0.00    -0.059 C 
BRANCH  17  18
ATOM     18  N   UNL     1      -3.793   0.516   4.360  0.00  0.00    +0.381 N 
ATOM     19  H   UNL     1      -4.168   1.190   5.010  0.00  0.00    -0.090 HD
ATOM     20  H   UNL     1      -4.487  -0.191   4.170  0.00  0.00    -0.090 HD
ATOM     21  H   UNL     1      -2.972   0.085   4.758  0.00  0.00    -0.090 HD
ENDBRANCH  17  18
BRANCH  17  22
ATOM     22  C   UNL     1      -2.393   2.281   3.398  0.00  0.00    -0.012 C 
BRANCH  22  23
ATOM     23  C   UNL     1      -3.009   3.345   4.308  0.00  0.00    -0.019 C 
ATOM     24  C   UNL     1      -1.932   4.353   4.715  0.00  0.00    +0.007 C 
ATOM     25  C   UNL     1      -4.129   4.070   3.559  0.00  0.00    +0.007 C 
ENDBRANCH  22  23
ENDBRANCH  17  22
ENDBRANCH  16  17
ENDBRANCH  14  16
ENDBRANCH   1  14
TORSDOF 9
