REMARK  Name = ZINC48001498
REMARK  9 active torsions:
REMARK  status: ('A' for Active; 'I' for Inactive)
REMARK    1  A    between atoms: C_1  and  N_2
REMARK    2  A    between atoms: N_2  and  C_3
REMARK    3  A    between atoms: N_2  and  C_21
REMARK    4  A    between atoms: C_3  and  C_4
REMARK    5  A    between atoms: C_4  and  C_5
REMARK    6  A    between atoms: C_5  and  N_6
REMARK    7  A    between atoms: C_7  and  C_9
REMARK    8  A    between atoms: C_9  and  N_11
REMARK    9  A    between atoms: C_21  and  C_22
REMARK                            x       y       z     vdW  Elec       q    Type
REMARK                         _______ _______ _______ _____ _____    ______ ____
ROOT
ATOM      1  N   UNL     1      -0.672  -0.780  -4.834  0.00  0.00    -0.308 N 
ATOM      2  C   UNL     1      -0.275  -1.064  -6.090  0.00  0.00    +0.301 C 
ATOM      3  O   UNL     1       0.870  -1.409  -6.302  0.00  0.00    -0.265 OA
ATOM      4  H   UNL     1      -1.586  -0.504  -4.665  0.00  0.00    +0.149 HD
ENDROOT
BRANCH   2   5
ATOM      5  C   UNL     1      -1.242  -0.954  -7.221  0.00  0.00    +0.324 C 
ATOM      6  O   UNL     1      -2.390  -0.607  -7.009  0.00  0.00    -0.263 OA
BRANCH   5   7
ATOM      7  N   UNL     1      -0.850  -1.234  -8.462  0.00  0.00    -0.148 NA
ATOM      8  C   UNL     1      -1.713  -1.136  -9.472  0.00  0.00    +0.164 A 
ATOM      9  N   UNL     1      -1.488  -1.387 -10.786  0.00  0.00    -0.335 N 
ATOM     10  C   UNL     1      -2.511  -1.230 -11.700  0.00  0.00    +0.055 A 
ATOM     11  C   UNL     1      -2.497  -1.432 -13.088  0.00  0.00    +0.027 A 
ATOM     12  C   UNL     1      -3.630  -1.220 -13.838  0.00  0.00    +0.002 A 
ATOM     13  C   UNL     1      -4.813  -0.804 -13.248  0.00  0.00    +0.001 A 
ATOM     14  C   UNL     1      -4.854  -0.599 -11.881  0.00  0.00    +0.017 A 
ATOM     15  C   UNL     1      -3.721  -0.810 -11.130  0.00  0.00    +0.039 A 
ATOM     16  S   UNL     1      -3.330  -0.681  -9.405  0.00  0.00    -0.052 S 
ATOM     17  H   UNL     1      -0.611  -1.674 -11.083  0.00  0.00    +0.168 HD
ENDBRANCH   5   7
ENDBRANCH   2   5
BRANCH   1  18
ATOM     18  C   UNL     1       0.278  -0.888  -3.724  0.00  0.00    +0.103 C 
BRANCH  18  19
ATOM     19  C   UNL     1      -0.422  -0.513  -2.416  0.00  0.00    +0.000 C 
BRANCH  19  20
ATOM     20  C   UNL     1       0.570  -0.626  -1.256  0.00  0.00    -0.077 C 
BRANCH  20  22
ATOM     21  C   UNL     1      -0.492   1.150  -0.042  0.00  0.00    -0.096 C 
ATOM     22  N   UNL     1      -0.102  -0.266  -0.001  0.00  0.00    +0.384 N 
ATOM     23  H   UNL     1      -0.925  -0.838   0.117  0.00  0.00    -0.082 HD
BRANCH  22  24
ATOM     24  C   UNL     1       0.814  -0.489   1.126  0.00  0.00    +0.036 C 
BRANCH  24  25
ATOM     25  C   UNL     1       0.082  -0.211   2.441  0.00  0.00    +0.376 C 
ATOM     26  F   UNL     1      -1.098  -0.961   2.486  0.00  0.00    -0.173 F 
ATOM     27  F   UNL     1       0.903  -0.568   3.516  0.00  0.00    -0.173 F 
ATOM     28  F   UNL     1      -0.228   1.151   2.523  0.00  0.00    -0.173 F 
ENDBRANCH  24  25
ENDBRANCH  22  24
ENDBRANCH  20  22
ENDBRANCH  19  20
ENDBRANCH  18  19
ENDBRANCH   1  18
TORSDOF 8
