REMARK  Name = ZINC36607987
REMARK  15 active torsions:
REMARK  status: ('A' for Active; 'I' for Inactive)
REMARK    1  A    between atoms: C_1  and  C_2
REMARK    2  A    between atoms: C_2  and  C_3
REMARK    3  A    between atoms: C_2  and  C_4
REMARK    4  A    between atoms: C_2  and  C_5
REMARK    5  A    between atoms: C_5  and  C_6
REMARK    6  A    between atoms: C_6  and  C_7
REMARK    7  A    between atoms: C_6  and  C_8
REMARK    8  A    between atoms: C_6  and  N_9
REMARK    9  A    between atoms: C_10  and  C_12
REMARK   10  A    between atoms: C_12  and  C_14
REMARK   11  A    between atoms: C_12  and  N_21
REMARK   12  A    between atoms: C_17  and  O_20
REMARK   13  A    between atoms: N_21  and  C_22
REMARK   14  A    between atoms: C_28  and  C_30
REMARK   15  A    between atoms: C_35  and  O_36
REMARK                            x       y       z     vdW  Elec       q    Type
REMARK                         _______ _______ _______ _____ _____    ______ ____
ROOT
ATOM      1  C   UNL     1       4.747  -0.155  -4.125  0.00  0.00    +0.197 C 
ENDROOT
BRANCH   1   2
ATOM      2  C   UNL     1       4.616  -1.627  -4.423  0.00  0.00    -0.018 A 
ATOM      3  C   UNL     1       5.479  -2.531  -3.832  0.00  0.00    +0.009 A 
ATOM      4  C   UNL     1       5.360  -3.880  -4.104  0.00  0.00    +0.046 A 
ATOM      5  C   UNL     1       4.374  -4.328  -4.970  0.00  0.00    +0.117 A 
ATOM      6  C   UNL     1       3.509  -3.419  -5.562  0.00  0.00    +0.046 A 
ATOM      7  C   UNL     1       3.628  -2.071  -5.283  0.00  0.00    +0.009 A 
BRANCH   5   8
ATOM      8  O   UNL     1       4.255  -5.654  -5.240  0.00  0.00    -0.507 OA
ATOM      9  H   UNL     1       3.664  -6.127  -4.638  0.00  0.00    +0.292 HD
ENDBRANCH   5   8
ENDBRANCH   1   2
BRANCH   1  11
ATOM     10  N   UNL     1       3.040  -0.184  -2.335  0.00  0.00    -0.308 N 
ATOM     11  C   UNL     1       4.300   0.113  -2.711  0.00  0.00    +0.239 C 
ATOM     12  O   UNL     1       5.074   0.596  -1.911  0.00  0.00    -0.273 OA
ATOM     13  H   UNL     1       2.421  -0.570  -2.975  0.00  0.00    +0.149 HD
BRANCH  10  14
ATOM     14  C   UNL     1       2.605   0.077  -0.961  0.00  0.00    +0.030 C 
ATOM     15  C   UNL     1       2.889   1.537  -0.604  0.00  0.00    +0.031 C 
ATOM     16  C   UNL     1       3.368  -0.840  -0.002  0.00  0.00    +0.031 C 
BRANCH  14  17
ATOM     17  C   UNL     1       1.104  -0.195  -0.841  0.00  0.00    +0.031 C 
BRANCH  17  19
ATOM     18  C   UNL     1       0.508  -0.580  -3.236  0.00  0.00    +0.010 C 
ATOM     19  C   UNL     1       0.382   0.387  -2.057  0.00  0.00    -0.036 C 
ATOM     20  C   UNL     1       1.012   1.730  -2.430  0.00  0.00    +0.010 C 
ATOM     21  C   UNL     1      -1.097   0.592  -1.722  0.00  0.00    +0.010 C 
ENDBRANCH  17  19
ENDBRANCH  14  17
ENDBRANCH  10  14
ENDBRANCH   1  11
BRANCH   1  22
ATOM     22  N   UNL     1       6.146   0.251  -4.280  0.00  0.00    -0.251 N 
ATOM     23  C   UNL     1       6.497   1.541  -4.109  0.00  0.00    +0.255 C 
ATOM     24  O   UNL     1       7.647   1.889  -4.295  0.00  0.00    -0.269 OA
BRANCH  22  25
ATOM     25  C   UNL     1       7.119  -0.701  -4.605  0.00  0.00    +0.038 A 
ATOM     26  C   UNL     1       7.084  -1.337  -5.839  0.00  0.00    +0.023 A 
ATOM     27  C   UNL     1       8.046  -2.276  -6.157  0.00  0.00    +0.002 A 
ATOM     28  C   UNL     1       9.043  -2.582  -5.249  0.00  0.00    +0.000 A 
ATOM     29  C   UNL     1       9.081  -1.950  -4.020  0.00  0.00    +0.002 A 
ATOM     30  C   UNL     1       8.125  -1.006  -3.697  0.00  0.00    +0.023 A 
ENDBRANCH  22  25
BRANCH  23  31
ATOM     31  C   UNL     1       5.484   2.531  -3.695  0.00  0.00    +0.079 A 
ATOM     32  C   UNL     1       4.127   2.200  -3.717  0.00  0.00    +0.017 A 
ATOM     33  C   UNL     1       3.187   3.129  -3.330  0.00  0.00    +0.001 A 
ATOM     34  C   UNL     1       3.580   4.392  -2.918  0.00  0.00    +0.004 A 
ATOM     35  C   UNL     1       4.918   4.733  -2.891  0.00  0.00    +0.046 A 
ATOM     36  C   UNL     1       5.879   3.808  -3.272  0.00  0.00    +0.129 A 
BRANCH  36  37
ATOM     37  O   UNL     1       7.194   4.139  -3.241  0.00  0.00    -0.506 OA
ATOM     38  H   UNL     1       7.521   4.527  -4.064  0.00  0.00    +0.292 HD
ENDBRANCH  36  37
ENDBRANCH  23  31
ENDBRANCH   1  22
TORSDOF 10
