REMARK  Name = ZINC09562494
REMARK  9 active torsions:
REMARK  status: ('A' for Active; 'I' for Inactive)
REMARK    1  A    between atoms: C_1  and  C_2
REMARK    2  A    between atoms: C_2  and  O_3
REMARK    3  A    between atoms: O_3  and  C_4
REMARK    4  A    between atoms: C_4  and  C_6
REMARK    5  A    between atoms: C_7  and  C_27
REMARK    6  A    between atoms: C_10  and  N_11
REMARK    7  A    between atoms: C_12  and  C_14
REMARK    8  A    between atoms: C_14  and  N_58
REMARK    9  A    between atoms: C_20  and  C_22
REMARK                            x       y       z     vdW  Elec       q    Type
REMARK                         _______ _______ _______ _____ _____    ______ ____
ROOT
ATOM      1  N   UNL     1      -1.324  -2.132   2.591  0.00  0.00    -0.281 N 
ATOM      2  C   UNL     1      -1.331  -3.040   3.587  0.00  0.00    +0.201 C 
ATOM      3  O   UNL     1      -1.400  -4.223   3.329  0.00  0.00    -0.278 OA
ATOM      4  H   UNL     1      -1.269  -1.185   2.797  0.00  0.00    +0.155 HD
ENDROOT
BRANCH   1   9
ATOM      5  C   UNL     1      -1.403  -1.771   0.121  0.00  0.00    +0.095 A 
ATOM      6  C   UNL     1      -1.482  -2.477  -1.143  0.00  0.00    +0.005 A 
ATOM      7  C   UNL     1      -1.548  -3.831  -1.084  0.00  0.00    +0.056 A 
ATOM      8  S   UNL     1      -1.505  -4.167   0.664  0.00  0.00    -0.080 S 
ATOM      9  C   UNL     1      -1.397  -2.550   1.272  0.00  0.00    +0.086 A 
BRANCH   6  10
ATOM     10  C   UNL     1      -1.490  -1.754  -2.438  0.00  0.00    -0.016 A 
ATOM     11  C   UNL     1      -2.374  -0.695  -2.641  0.00  0.00    +0.011 A 
ATOM     12  C   UNL     1      -2.375  -0.022  -3.846  0.00  0.00    +0.039 A 
ATOM     13  C   UNL     1      -1.507  -0.404  -4.856  0.00  0.00    +0.123 A 
ATOM     14  C   UNL     1      -0.631  -1.459  -4.660  0.00  0.00    +0.039 A 
ATOM     15  C   UNL     1      -0.619  -2.135  -3.457  0.00  0.00    +0.011 A 
ATOM     16  F   UNL     1      -1.516   0.254  -6.036  0.00  0.00    -0.205 F 
ENDBRANCH   6  10
BRANCH   5  17
ATOM     17  C   UNL     1      -1.326  -0.312   0.183  0.00  0.00    +0.342 C 
ATOM     18  O   UNL     1      -2.346   0.349   0.244  0.00  0.00    -0.245 OA
BRANCH  17  19
ATOM     19  O   UNL     1      -0.125   0.302   0.171  0.00  0.00    -0.461 OA
BRANCH  19  21
ATOM     20  C   UNL     1       1.316   2.265   0.210  0.00  0.00    +0.048 C 
ATOM     21  C   UNL     1      -0.126   1.753   0.234  0.00  0.00    +0.229 C 
ENDBRANCH  19  21
ENDBRANCH  17  19
ENDBRANCH   5  17
ENDBRANCH   1   9
BRANCH   2  22
ATOM     22  C   UNL     1      -1.252  -2.585   5.021  0.00  0.00    +0.019 C 
BRANCH  22  30
ATOM     23  C   UNL     1      -2.567  -4.452   5.825  0.00  0.00    -0.059 C 
ATOM     24  C   UNL     1      -2.490  -5.760   6.620  0.00  0.00    +0.089 C 
ATOM     25  N   UNL     1      -2.036  -5.452   7.984  0.00  0.00    -0.299 N 
ATOM     26  C   UNL     1      -0.821  -4.638   8.147  0.00  0.00    +0.089 C 
ATOM     27  C   UNL     1      -0.965  -3.374   7.292  0.00  0.00    -0.059 C 
ATOM     28  C   UNL     1      -2.715  -5.903   9.058  0.00  0.00    +0.282 C 
ATOM     29  O   UNL     1      -2.288  -5.696  10.178  0.00  0.00    -0.267 OA
ATOM     30  N   UNL     1      -1.254  -3.774   5.898  0.00  0.00    +0.387 N 
ATOM     31  H   UNL     1      -0.526  -4.424   5.580  0.00  0.00    -0.081 HD
BRANCH  28  32
ATOM     32  C   UNL     1      -3.969  -6.641   8.875  0.00  0.00    +0.189 A 
ATOM     33  C   UNL     1      -4.819  -7.037   9.867  0.00  0.00    +0.054 A 
ATOM     34  C   UNL     1      -5.883  -7.708   9.244  0.00  0.00    +0.042 A 
ATOM     35  C   UNL     1      -5.638  -7.692   7.915  0.00  0.00    +0.196 A 
ATOM     36  O   UNL     1      -4.487  -7.044   7.696  0.00  0.00    -0.458 OA
ENDBRANCH  28  32
ENDBRANCH  22  30
ENDBRANCH   2  22
TORSDOF 8
