REMARK  Name = ZINC03780890
REMARK  6 active torsions:
REMARK  status: ('A' for Active; 'I' for Inactive)
REMARK    1  A    between atoms: C_9  and  N_11
REMARK    2  A    between atoms: N_18  and  C1*_21
REMARK    3  A    between atoms: C2*_23  and  O2*_33
REMARK    4  A    between atoms: C3*_25  and  O3*_32
REMARK    5  A    between atoms: C4*_27  and  C5*_30
REMARK    6  A    between atoms: C5*_30  and  O5*_31
REMARK                            x       y       z     vdW  Elec       q    Type
REMARK                         _______ _______ _______ _____ _____    ______ ____
ROOT
ATOM      1  N   UNL     1       0.805   7.035   7.202  0.00  0.00    -0.320 N 
ATOM      2  C   UNL     1       0.936   7.196   5.834  0.00  0.00    +0.150 A 
ATOM      3  C   UNL     1       0.944   6.083   4.976  0.00  0.00    +0.147 A 
ATOM      4  C   UNL     1       1.080   6.309   3.596  0.00  0.00    +0.167 A 
ATOM      5  N   UNL     1       1.196   7.558   3.155  0.00  0.00    -0.216 NA
ATOM      6  C   UNL     1       1.183   8.570   3.996  0.00  0.00    +0.225 A 
ATOM      7  N   UNL     1       1.057   8.407   5.300  0.00  0.00    -0.219 NA
ATOM      8  N   UNL     1       1.057   5.071   3.006  0.00  0.00    -0.286 N 
ATOM      9  C   UNL     1       0.906   4.148   3.997  0.00  0.00    +0.203 A 
ATOM     10  N   UNL     1       0.846   4.743   5.153  0.00  0.00    -0.231 NA
ATOM     11  H   UNL     1       1.568   6.438   7.449  0.00  0.00    +0.148 HD
ENDROOT
BRANCH   1  20
ATOM     12  C   UNL     1      -3.072   9.712   9.053  0.00  0.00    +0.000 A 
ATOM     13  C   UNL     1      -2.848   9.408   7.723  0.00  0.00    +0.000 A 
ATOM     14  C   UNL     1      -1.620   8.915   7.326  0.00  0.00    +0.006 A 
ATOM     15  C   UNL     1      -0.612   8.726   8.256  0.00  0.00    -0.024 A 
ATOM     16  C   UNL     1      -0.836   9.030   9.585  0.00  0.00    -0.042 A 
ATOM     17  C   UNL     1      -2.068   9.523   9.982  0.00  0.00    +0.004 A 
ATOM     18  C   UNL     1       0.410   8.737  10.394  0.00  0.00    +0.037 C 
ATOM     19  C   UNL     1       1.266   7.816   9.499  0.00  0.00    +0.032 C 
ATOM     20  C   UNL     1       0.800   8.208   8.080  0.00  0.00    +0.103 C 
ENDBRANCH   1  20
BRANCH   8  21
ATOM     21  C1* UNL     1       1.167   4.793   1.572  0.00  0.00    +0.253 C 
ATOM     22  C2* UNL     1       2.651   4.613   1.163  0.00  0.00    +0.195 C 
ATOM     23  C3* UNL     1       2.534   3.741  -0.110  0.00  0.00    +0.178 C 
ATOM     24  C4* UNL     1       1.145   3.085   0.008  0.00  0.00    +0.177 C 
ATOM     25  O4* UNL     1       0.574   3.515   1.255  0.00  0.00    -0.346 OA
BRANCH  23  26
ATOM     26  O3* UNL     1       2.605   4.556  -1.282  0.00  0.00    -0.386 OA
ATOM     27  H3* UNL     1       2.479   4.068  -2.108  0.00  0.00    +0.210 HD
ENDBRANCH  23  26
BRANCH  22  28
ATOM     28  O2* UNL     1       3.254   5.874   0.864  0.00  0.00    -0.385 OA
ATOM     29  H2* UNL     1       4.183   5.814   0.603  0.00  0.00    +0.210 HD
ENDBRANCH  22  28
BRANCH  24  30
ATOM     30  C5* UNL     1       1.286   1.562  -0.002  0.00  0.00    +0.190 C 
BRANCH  30  31
ATOM     31  O5* UNL     1      -0.011   0.963   0.007  0.00  0.00    -0.392 OA
ATOM     32  H5* UNL     1       0.002  -0.004   0.002  0.00  0.00    +0.210 HD
ENDBRANCH  30  31
ENDBRANCH  24  30
ENDBRANCH   8  21
TORSDOF 6
