REMARK  Name = ZINC21579429
REMARK  5 active torsions:
REMARK  status: ('A' for Active; 'I' for Inactive)
REMARK    1  A    between atoms: C_1  and  C_2
REMARK    2  A    between atoms: N_11  and  C_12
REMARK    3  A    between atoms: C_12  and  C_13
REMARK    4  A    between atoms: N_18  and  S_21
REMARK    5  A    between atoms: S_21  and  C_24
REMARK                            x       y       z     vdW  Elec       q    Type
REMARK                         _______ _______ _______ _____ _____    ______ ____
ROOT
ATOM      1  C   UNL     1      -3.623   3.328  -3.779  0.00  0.00    +0.199 C 
ATOM      2  O   UNL     1      -3.364   4.357  -4.365  0.00  0.00    -0.278 OA
ATOM      3  N   UNL     1      -2.880   2.950  -2.719  0.00  0.00    -0.300 N 
ATOM      4  C   UNL     1      -1.754   3.777  -2.263  0.00  0.00    +0.125 C 
ATOM      5  C   UNL     1      -0.490   2.909  -2.233  0.00  0.00    +0.128 C 
ATOM      6  N   UNL     1      -0.792   1.664  -1.514  0.00  0.00    -0.174 NA
ATOM      7  C   UNL     1      -1.915   0.834  -1.974  0.00  0.00    +0.128 C 
ATOM      8  C   UNL     1      -3.183   1.705  -2.000  0.00  0.00    +0.125 C 
ENDROOT
BRANCH   6   9
ATOM      9  S   UNL     1       0.121   1.199  -0.212  0.00  0.00    +0.061 S 
ATOM     10  O   UNL     1      -0.020  -0.210  -0.099  0.00  0.00    -0.153 OA
ATOM     11  O   UNL     1       1.386   1.829  -0.358  0.00  0.00    -0.153 OA
BRANCH   9  12
ATOM     12  C   UNL     1      -0.626   1.897   1.223  0.00  0.00    +0.106 A 
ATOM     13  C   UNL     1      -0.238   3.148   1.664  0.00  0.00    +0.031 A 
ATOM     14  C   UNL     1      -0.827   3.699   2.787  0.00  0.00    +0.040 A 
ATOM     15  C   UNL     1      -1.798   2.991   3.477  0.00  0.00    +0.124 A 
ATOM     16  C   UNL     1      -2.181   1.736   3.037  0.00  0.00    +0.040 A 
ATOM     17  C   UNL     1      -1.595   1.190   1.910  0.00  0.00    +0.031 A 
ATOM     18  F   UNL     1      -2.370   3.526   4.577  0.00  0.00    -0.205 F 
ENDBRANCH   9  12
ENDBRANCH   6   9
BRANCH   1  19
ATOM     19  C   UNL     1      -4.775   2.470  -4.236  0.00  0.00    +0.020 C 
BRANCH  19  29
ATOM     20  C   UNL     1      -4.384   1.894  -7.101  0.00  0.00    -0.007 C 
ATOM     21  C   UNL     1      -4.661   3.282  -6.518  0.00  0.00    -0.023 C 
ATOM     22  C   UNL     1      -5.412   4.117  -7.526  0.00  0.00    +0.005 A 
ATOM     23  C   UNL     1      -5.171   4.250  -8.838  0.00  0.00    +0.021 A 
ATOM     24  C   UNL     1      -6.141   5.133  -9.357  0.00  0.00    +0.019 A 
ATOM     25  C   UNL     1      -6.939   5.507  -8.333  0.00  0.00    +0.086 A 
ATOM     26  N   UNL     1      -6.498   4.891  -7.207  0.00  0.00    -0.354 N 
ATOM     27  C   UNL     1      -7.043   4.993  -5.847  0.00  0.00    +0.103 C 
ATOM     28  C   UNL     1      -5.985   4.471  -4.867  0.00  0.00    -0.055 C 
ATOM     29  N   UNL     1      -5.500   3.157  -5.313  0.00  0.00    +0.392 N 
ATOM     30  H   UNL     1      -6.377   2.546  -5.572  0.00  0.00    -0.080 HD
ENDBRANCH  19  29
ENDBRANCH   1  19
TORSDOF 4
