REMARK  Name = ZINC20113331
REMARK  7 active torsions:
REMARK  status: ('A' for Active; 'I' for Inactive)
REMARK    1  A    between atoms: C_1  and  C_2
REMARK    2  A    between atoms: C_19  and  C_21
REMARK    3  A    between atoms: C_21  and  N_22
REMARK    4  A    between atoms: N_25  and  C_28
REMARK    5  A    between atoms: C_28  and  C_29
REMARK    6  A    between atoms: C_28  and  C_35
REMARK    7  A    between atoms: C_28  and  O_41
REMARK                            x       y       z     vdW  Elec       q    Type
REMARK                         _______ _______ _______ _____ _____    ______ ____
ROOT
ATOM      1  N   UNL     1       0.619   8.486  -0.342  0.00  0.00    +0.382 N 
ATOM      2  C   UNL     1      -0.766   8.291   0.106  0.00  0.00    -0.063 C 
ATOM      3  C   UNL     1      -1.452   9.652   0.243  0.00  0.00    +0.069 C 
ATOM      4  N   UNL     1      -1.414  10.349  -1.050  0.00  0.00    -0.271 NA
ATOM      5  C   UNL     1      -0.028  10.545  -1.498  0.00  0.00    +0.069 C 
ATOM      6  C   UNL     1       0.658   9.184  -1.635  0.00  0.00    -0.063 C 
ATOM      7  H   UNL     1       1.131   9.117   0.400  0.00  0.00    -0.082 HD
ENDROOT
BRANCH   1   8
ATOM      8  C   UNL     1       1.335   7.205  -0.413  0.00  0.00    -0.064 C 
BRANCH   8  24
ATOM      9  C   UNL     1       4.124   5.748   4.216  0.00  0.00    +0.012 C 
ATOM     10  C   UNL     1       4.569   7.177   3.897  0.00  0.00    -0.022 C 
ATOM     11  C   UNL     1       5.695   7.588   4.845  0.00  0.00    +0.007 C 
ATOM     12  C   UNL     1       5.231   7.433   6.294  0.00  0.00    +0.005 C 
ATOM     13  C   UNL     1       4.062   8.385   6.565  0.00  0.00    +0.030 C 
ATOM     14  C   UNL     1       2.985   8.137   5.530  0.00  0.00    -0.073 C 
ATOM     15  C   UNL     1       1.742   7.928   5.888  0.00  0.00    +0.008 C 
ATOM     16  C   UNL     1       3.385   8.139   4.074  0.00  0.00    +0.021 C 
ATOM     17  C   UNL     1       2.231   7.633   3.213  0.00  0.00    +0.016 C 
ATOM     18  C   UNL     1       2.615   7.656   1.731  0.00  0.00    +0.042 C 
ATOM     19  C   UNL     1       3.943   6.913   1.491  0.00  0.00    +0.181 C 
ATOM     20  C   UNL     1       5.037   7.273   2.446  0.00  0.00    +0.052 C 
ATOM     21  O   UNL     1       3.571   5.509   1.593  0.00  0.00    -0.461 OA
ATOM     22  C   UNL     1       2.382   5.366   0.965  0.00  0.00    +0.309 C 
ATOM     23  O   UNL     1       1.979   4.349   0.453  0.00  0.00    -0.251 OA
ATOM     24  C   UNL     1       1.621   6.702   1.003  0.00  0.00    +0.088 C 
ENDBRANCH   8  24
ENDBRANCH   1   8
BRANCH   4  25
ATOM     25  C   UNL     1      -2.130  11.630  -0.979  0.00  0.00    +0.172 C 
BRANCH  25  26
ATOM     26  C   UNL     1      -2.119  12.287  -2.335  0.00  0.00    +0.003 A 
ATOM     27  C   UNL     1      -2.175  11.513  -3.479  0.00  0.00    +0.008 A 
ATOM     28  C   UNL     1      -2.170  12.116  -4.723  0.00  0.00    +0.000 A 
ATOM     29  C   UNL     1      -2.100  13.492  -4.823  0.00  0.00    +0.000 A 
ATOM     30  C   UNL     1      -2.039  14.267  -3.679  0.00  0.00    +0.000 A 
ATOM     31  C   UNL     1      -2.049  13.664  -2.435  0.00  0.00    +0.008 A 
ENDBRANCH  25  26
BRANCH  25  32
ATOM     32  C   UNL     1      -3.554  11.386  -0.550  0.00  0.00    +0.003 A 
ATOM     33  C   UNL     1      -4.205  10.232  -0.941  0.00  0.00    +0.008 A 
ATOM     34  C   UNL     1      -5.510  10.006  -0.543  0.00  0.00    +0.000 A 
ATOM     35  C   UNL     1      -6.166  10.939   0.238  0.00  0.00    +0.000 A 
ATOM     36  C   UNL     1      -5.516  12.096   0.625  0.00  0.00    +0.000 A 
ATOM     37  C   UNL     1      -4.210  12.320   0.231  0.00  0.00    +0.008 A 
ENDBRANCH  25  32
BRANCH  25  38
ATOM     38  O   UNL     1      -1.486  12.484  -0.031  0.00  0.00    -0.366 OA
ATOM     39  H   UNL     1      -1.883  13.492   0.159  0.00  0.00    +0.212 HD
ENDBRANCH  25  38
ENDBRANCH   4  25
TORSDOF 6
