REMARK  Name = ZINC38926226
REMARK  8 active torsions:
REMARK  status: ('A' for Active; 'I' for Inactive)
REMARK    1  A    between atoms: C_1  and  C_2
REMARK    2  A    between atoms: C_5  and  C_8
REMARK    3  A    between atoms: N_10  and  C_11
REMARK    4  A    between atoms: N_10  and  C_25
REMARK    5  A    between atoms: C_11  and  C_12
REMARK    6  A    between atoms: C_18  and  C_24
REMARK    7  A    between atoms: C_28  and  C_32
REMARK    8  A    between atoms: C_29  and  C_31
REMARK                            x       y       z     vdW  Elec       q    Type
REMARK                         _______ _______ _______ _____ _____    ______ ____
ROOT
ATOM      1  C   UNL     1      -0.586  -4.274   0.072  0.00  0.00    +0.251 C 
ATOM      2  O   UNL     1      -0.558  -3.059   0.035  0.00  0.00    -0.270 OA
ATOM      3  N   UNL     1      -0.054  -4.928   1.124  0.00  0.00    -0.266 N 
ENDROOT
BRANCH   3   4
ATOM      4  C   UNL     1       0.404  -4.211   2.234  0.00  0.00    +0.037 A 
ATOM      5  C   UNL     1       0.791  -4.884   3.386  0.00  0.00    +0.024 A 
ATOM      6  C   UNL     1       1.244  -4.174   4.480  0.00  0.00    +0.005 A 
ATOM      7  C   UNL     1       1.311  -2.793   4.430  0.00  0.00    -0.047 A 
ATOM      8  C   UNL     1       0.926  -2.120   3.285  0.00  0.00    -0.046 A 
ATOM      9  C   UNL     1       0.479  -2.825   2.185  0.00  0.00    +0.027 A 
ATOM     10  C   UNL     1       1.001  -0.616   3.236  0.00  0.00    +0.044 C 
ATOM     11  C   UNL     1       1.805  -2.021   5.626  0.00  0.00    +0.044 C 
ENDBRANCH   3   4
BRANCH   1  16
ATOM     12  C   UNL     1      -2.987  -7.230  -4.241  0.00  0.00    +0.044 C 
ATOM     13  C   UNL     1      -2.358  -6.456  -3.111  0.00  0.00    -0.050 A 
ATOM     14  C   UNL     1      -2.962  -5.301  -2.648  0.00  0.00    +0.004 A 
ATOM     15  C   UNL     1      -2.392  -4.587  -1.614  0.00  0.00    +0.013 A 
ATOM     16  C   UNL     1      -1.203  -5.033  -1.035  0.00  0.00    +0.037 A 
ATOM     17  C   UNL     1      -0.599  -6.200  -1.507  0.00  0.00    +0.013 A 
ATOM     18  C   UNL     1      -1.182  -6.907  -2.538  0.00  0.00    +0.004 A 
ENDBRANCH   1  16
BRANCH   3  19
ATOM     19  C   UNL     1       0.043  -6.389   1.105  0.00  0.00    +0.131 C 
BRANCH  19  20
ATOM     20  C   UNL     1       1.504  -6.806   1.286  0.00  0.00    +0.116 C 
ATOM     21  C   UNL     1       1.539  -8.309   1.480  0.00  0.00    -0.003 C 
ATOM     22  C   UNL     1       2.282  -9.036   0.599  0.00  0.00    -0.007 A 
ATOM     23  C   UNL     1       2.371 -10.492   0.714  0.00  0.00    +0.010 A 
ATOM     24  C   UNL     1       3.123 -11.176  -0.187  0.00  0.00    +0.004 A 
ATOM     25  C   UNL     1       3.806 -10.518  -1.210  0.00  0.00    -0.049 A 
ATOM     26  C   UNL     1       3.764  -9.170  -1.372  0.00  0.00    +0.027 A 
ATOM     27  C   UNL     1       3.013  -8.369  -0.492  0.00  0.00    +0.041 A 
ATOM     28  N   UNL     1       2.979  -7.047  -0.660  0.00  0.00    -0.284 N 
ATOM     29  C   UNL     1       2.296  -6.237   0.130  0.00  0.00    +0.226 C 
ATOM     30  O   UNL     1       2.303  -5.037  -0.074  0.00  0.00    -0.275 OA
ATOM     31  C   UNL     1       4.624 -11.337  -2.176  0.00  0.00    +0.044 C 
ATOM     32  H   UNL     1       3.480  -6.661  -1.396  0.00  0.00    +0.155 HD
ENDBRANCH  19  20
ENDBRANCH   3  19
TORSDOF 4
