REMARK  Name = ZINC06537064
REMARK  2 active torsions:
REMARK  status: ('A' for Active; 'I' for Inactive)
REMARK    1  A    between atoms: C_6  and  C_7
REMARK    2  A    between atoms: C_15  and  C_16
REMARK                            x       y       z     vdW  Elec       q    Type
REMARK                         _______ _______ _______ _____ _____    ______ ____
ROOT
ATOM      1  C   UNL     1       2.494   1.109  -0.016  0.00  0.00    +0.183 A 
ATOM      2  N   UNL     1       2.671  -0.221  -0.020  0.00  0.00    -0.200 NA
ATOM      3  C   UNL     1       3.947  -0.485  -0.040  0.00  0.00    +0.200 A 
ATOM      4  N   UNL     1       4.659   0.682  -0.040  0.00  0.00    -0.169 N 
ATOM      5  N   UNL     1       3.664   1.698  -0.024  0.00  0.00    -0.141 NA
ATOM      6  C   UNL     1       5.998   0.626  -0.053  0.00  0.00    +0.287 A 
ATOM      7  O   UNL     1       6.671   1.639  -0.054  0.00  0.00    -0.265 OA
ATOM      8  C   UNL     1       6.625  -0.712  -0.067  0.00  0.00    +0.078 A 
ATOM      9  C   UNL     1       7.922  -1.045  -0.082  0.00  0.00    -0.003 C 
ATOM     10  S   UNL     1       5.181  -1.765  -0.059  0.00  0.00    -0.045 S 
ENDROOT
BRANCH   1  16
ATOM     11  C   UNL     1      -0.013   1.076   0.008  0.00  0.00    +0.031 A 
ATOM     12  C   UNL     1      -1.211   1.760   0.017  0.00  0.00    +0.111 A 
ATOM     13  N   UNL     1      -1.238   3.079   0.030  0.00  0.00    -0.263 NA
ATOM     14  C   UNL     1      -0.134   3.800   0.024  0.00  0.00    +0.111 A 
ATOM     15  C   UNL     1       1.107   3.197   0.009  0.00  0.00    +0.031 A 
ATOM     16  C   UNL     1       1.182   1.801   0.000  0.00  0.00    +0.024 A 
ENDBRANCH   1  16
BRANCH   9  17
ATOM     17  C   UNL     1       8.327  -2.496  -0.095  0.00  0.00    +0.017 C 
ATOM     18  C   UNL     1       9.172  -2.784  -1.342  0.00  0.00    +0.012 C 
ATOM     19  C   UNL     1       9.418  -4.292  -1.423  0.00  0.00    +0.027 C 
ATOM     20  C   UNL     1       9.911  -4.807  -0.102  0.00  0.00    -0.031 C 
ATOM     21  C   UNL     1       9.800  -4.162   1.015  0.00  0.00    -0.030 C 
ATOM     22  C   UNL     1       9.172  -2.805   1.143  0.00  0.00    +0.034 C 
ENDBRANCH   9  17
TORSDOF 2
