REMARK  Name = ZINC12773252
REMARK  12 active torsions:
REMARK  status: ('A' for Active; 'I' for Inactive)
REMARK    1  A    between atoms: C_1  and  C_2
REMARK    2  A    between atoms: C_2  and  C_4
REMARK    3  A    between atoms: C_2  and  N_52
REMARK    4  A    between atoms: C_7  and  S_10
REMARK    5  A    between atoms: S_10  and  N_13
REMARK    6  A    between atoms: C_14  and  N_52
REMARK    7  A    between atoms: C_15  and  C_16
REMARK    8  A    between atoms: C_15  and  N_52
REMARK    9  A    between atoms: N_18  and  C_19
REMARK   10  A    between atoms: C_24  and  O_25
REMARK   11  A    between atoms: O_25  and  C_26
REMARK   12  A    between atoms: C_26  and  C_27
REMARK                            x       y       z     vdW  Elec       q    Type
REMARK                         _______ _______ _______ _____ _____    ______ ____
ROOT
ATOM      1  C   UNL     1      -4.342   4.836   5.692  0.00  0.00    +0.019 C 
ENDROOT
BRANCH   1   2
ATOM      2  C   UNL     1      -4.895   6.189   5.323  0.00  0.00    +0.201 C 
ATOM      3  O   UNL     1      -4.595   6.698   4.264  0.00  0.00    -0.278 OA
ATOM      4  N   UNL     1      -5.722   6.832   6.170  0.00  0.00    -0.284 N 
ATOM      5  H   UNL     1      -6.009   6.400   6.990  0.00  0.00    +0.155 HD
BRANCH   4   6
ATOM      6  C   UNL     1      -6.168   8.125   5.867  0.00  0.00    +0.076 A 
ATOM      7  C   UNL     1      -6.404   8.488   4.549  0.00  0.00    +0.027 A 
ATOM      8  C   UNL     1      -6.849   9.763   4.253  0.00  0.00    +0.002 A 
ATOM      9  C   UNL     1      -7.049  10.682   5.266  0.00  0.00    +0.004 A 
ATOM     10  C   UNL     1      -6.811  10.329   6.582  0.00  0.00    +0.047 A 
ATOM     11  C   UNL     1      -6.370   9.052   6.888  0.00  0.00    +0.142 A 
BRANCH  11  12
ATOM     12  O   UNL     1      -6.134   8.704   8.181  0.00  0.00    -0.481 OA
BRANCH  12  13
ATOM     13  C   UNL     1      -6.363   9.705   9.174  0.00  0.00    +0.342 C 
BRANCH  13  14
ATOM     14  C   UNL     1      -6.046   9.133  10.557  0.00  0.00    +0.424 C 
ATOM     15  F   UNL     1      -4.707   8.730  10.600  0.00  0.00    -0.167 F 
ATOM     16  F   UNL     1      -6.270  10.113  11.530  0.00  0.00    -0.167 F 
ATOM     17  F   UNL     1      -6.872   8.031  10.806  0.00  0.00    -0.167 F 
ENDBRANCH  13  14
ENDBRANCH  12  13
ENDBRANCH  11  12
ENDBRANCH   4   6
ENDBRANCH   1   2
BRANCH   1  19
ATOM     18  C   UNL     1      -2.278   5.193   4.478  0.00  0.00    -0.095 C 
ATOM     19  N   UNL     1      -3.489   4.352   4.586  0.00  0.00    +0.388 N 
ATOM     20  H   UNL     1      -4.016   4.412   3.707  0.00  0.00    -0.081 HD
BRANCH  19  22
ATOM     21  C   UNL     1      -2.107   2.511   3.747  0.00  0.00    -0.008 C 
ATOM     22  C   UNL     1      -3.107   2.944   4.822  0.00  0.00    -0.041 C 
BRANCH  22  23
ATOM     23  C   UNL     1      -4.341   2.084   4.735  0.00  0.00    -0.061 A 
ATOM     24  C   UNL     1      -4.472   0.978   5.553  0.00  0.00    +0.004 A 
ATOM     25  C   UNL     1      -5.604   0.189   5.473  0.00  0.00    +0.029 A 
ATOM     26  C   UNL     1      -6.606   0.506   4.575  0.00  0.00    +0.105 A 
ATOM     27  C   UNL     1      -6.473   1.609   3.753  0.00  0.00    +0.029 A 
ATOM     28  C   UNL     1      -5.343   2.401   3.836  0.00  0.00    +0.004 A 
BRANCH  26  29
ATOM     29  S   UNL     1      -8.049  -0.500   4.473  0.00  0.00    +0.056 S 
ATOM     30  O   UNL     1      -7.684  -1.784   4.959  0.00  0.00    -0.153 OA
ATOM     31  O   UNL     1      -8.590  -0.303   3.174  0.00  0.00    -0.153 OA
BRANCH  29  32
ATOM     32  N   UNL     1      -9.152   0.116   5.543  0.00  0.00    -0.204 NA
ATOM     33  H   UNL     1      -9.484  -0.436   6.269  0.00  0.00    +0.144 HD
ATOM     34  H   UNL     1      -9.466   1.028   5.445  0.00  0.00    +0.144 HD
ENDBRANCH  29  32
ENDBRANCH  26  29
ENDBRANCH  22  23
ENDBRANCH  19  22
ENDBRANCH   1  19
TORSDOF 10
