REMARK  Name = ZINC65010141
REMARK  10 active torsions:
REMARK  status: ('A' for Active; 'I' for Inactive)
REMARK    1  A    between atoms: C_1  and  C_2
REMARK    2  A    between atoms: C_2  and  C_3
REMARK    3  A    between atoms: N_9  and  C_10
REMARK    4  A    between atoms: C_10  and  C_11
REMARK    5  A    between atoms: C_14  and  C_16
REMARK    6  A    between atoms: C_16  and  N_17
REMARK    7  A    between atoms: C_18  and  C_20
REMARK    8  A    between atoms: C_22  and  C_25
REMARK    9  A    between atoms: C_26  and  C_35
REMARK   10  A    between atoms: C_31  and  C_34
REMARK                            x       y       z     vdW  Elec       q    Type
REMARK                         _______ _______ _______ _____ _____    ______ ____
ROOT
ATOM      1  N   UNL     1       6.982   3.456   1.348  0.00  0.00    -0.300 N 
ATOM      2  C   UNL     1       7.903   3.865   2.243  0.00  0.00    +0.302 C 
ATOM      3  O   UNL     1       8.677   3.064   2.728  0.00  0.00    -0.265 OA
ATOM      4  H   UNL     1       6.363   4.096   0.962  0.00  0.00    +0.150 HD
ENDROOT
BRANCH   2   5
ATOM      5  C   UNL     1       7.971   5.293   2.637  0.00  0.00    +0.314 A 
ATOM      6  N   UNL     1       8.819   5.813   3.488  0.00  0.00    -0.180 NA
ATOM      7  C   UNL     1       8.598   7.133   3.607  0.00  0.00    +0.238 A 
ATOM      8  N   UNL     1       7.597   7.466   2.825  0.00  0.00    -0.052 NA
ATOM      9  O   UNL     1       7.176   6.275   2.177  0.00  0.00    -0.328 OA
BRANCH   7  10
ATOM     10  C   UNL     1       9.357   8.057   4.476  0.00  0.00    +0.179 A 
ATOM     11  C   UNL     1       9.122   9.386   4.592  0.00  0.00    +0.006 A 
ATOM     12  C   UNL     1      10.105   9.890   5.554  0.00  0.00    +0.024 A 
ATOM     13  C   UNL     1      10.385  11.147   6.092  0.00  0.00    +0.012 A 
ATOM     14  C   UNL     1      11.402  11.286   6.995  0.00  0.00    +0.001 A 
ATOM     15  C   UNL     1      12.157  10.187   7.378  0.00  0.00    +0.007 A 
ATOM     16  C   UNL     1      11.896   8.938   6.858  0.00  0.00    -0.008 A 
ATOM     17  C   UNL     1      10.867   8.772   5.939  0.00  0.00    +0.139 A 
ATOM     18  O   UNL     1      10.383   7.703   5.276  0.00  0.00    -0.451 OA
ATOM     19  C   UNL     1      12.726   7.754   7.284  0.00  0.00    +0.047 C 
ATOM     20  C   UNL     1       8.063  10.184   3.877  0.00  0.00    +0.048 C 
ENDBRANCH   7  10
ENDBRANCH   2   5
BRANCH   1  21
ATOM     21  C   UNL     1       6.914   2.045   0.959  0.00  0.00    +0.179 C 
BRANCH  21  25
ATOM     22  C   UNL     1       3.825   1.465  -0.900  0.00  0.00    +0.089 A 
ATOM     23  C   UNL     1       4.657   1.693  -1.932  0.00  0.00    +0.043 A 
ATOM     24  C   UNL     1       5.934   1.944  -1.382  0.00  0.00    +0.046 A 
ATOM     25  C   UNL     1       5.808   1.854  -0.046  0.00  0.00    +0.122 A 
ATOM     26  O   UNL     1       4.527   1.569   0.241  0.00  0.00    -0.465 OA
BRANCH  22  27
ATOM     27  C   UNL     1       2.355   1.151  -1.004  0.00  0.00    -0.003 C 
BRANCH  27  33
ATOM     28  C   UNL     1       0.735  -0.613  -1.087  0.00  0.00    -0.068 C 
ATOM     29  C   UNL     1       0.538  -2.131  -1.099  0.00  0.00    -0.015 C 
ATOM     30  C   UNL     1       1.181  -2.713  -2.361  0.00  0.00    -0.003 C 
ATOM     31  C   UNL     1       2.660  -2.320  -2.397  0.00  0.00    -0.019 C 
ATOM     32  C   UNL     1       2.779  -0.795  -2.337  0.00  0.00    -0.078 C 
ATOM     33  N   UNL     1       2.170  -0.303  -1.095  0.00  0.00    +0.386 N 
ATOM     34  H   UNL     1       2.613  -0.746  -0.305  0.00  0.00    -0.081 HD
BRANCH  28  36
ATOM     35  C   UNL     1      -1.416  -0.270   0.137  0.00  0.00    +0.002 C 
ATOM     36  C   UNL     1       0.094  -0.026   0.172  0.00  0.00    -0.019 C 
ENDBRANCH  28  36
ENDBRANCH  27  33
ENDBRANCH  22  27
ENDBRANCH  21  25
ENDBRANCH   1  21
TORSDOF 7
