REMARK  Name = ZINC21317956
REMARK  9 active torsions:
REMARK  status: ('A' for Active; 'I' for Inactive)
REMARK    1  A    between atoms: C_1  and  O_2
REMARK    2  A    between atoms: O_2  and  C_3
REMARK    3  A    between atoms: C_8  and  N_9
REMARK    4  A    between atoms: C_10  and  C_12
REMARK    5  A    between atoms: C_12  and  S_13
REMARK    6  A    between atoms: S_13  and  C_14
REMARK    7  A    between atoms: N_18  and  N_19
REMARK    8  A    between atoms: N_20  and  N_21
REMARK    9  A    between atoms: C_22  and  C_23
REMARK                            x       y       z     vdW  Elec       q    Type
REMARK                         _______ _______ _______ _____ _____    ______ ____
ROOT
ATOM      1  C   UNL     1      -1.841  -4.220  -0.045  0.00  0.00    +0.210 A 
ATOM      2  N   UNL     1      -0.530  -4.201  -0.061  0.00  0.00    -0.119 NA
ATOM      3  N   UNL     1      -0.115  -2.863  -0.075  0.00  0.00    -0.109 NA
ATOM      4  C   UNL     1      -1.187  -2.107  -0.058  0.00  0.00    +0.254 A 
ATOM      5  N   UNL     1      -2.281  -2.927  -0.043  0.00  0.00    -0.211 N 
ATOM      6  N   UNL     1      -1.206  -0.721  -0.062  0.00  0.00    -0.204 N 
ATOM      7  H   UNL     1      -2.167  -0.184  -0.051  0.00  0.00    +0.177 HD
ENDROOT
BRANCH   5   8
ATOM      8  N   UNL     1      -3.586  -2.523  -0.028  0.00  0.00    -0.294 N 
ATOM      9  H   UNL     1      -3.830  -1.450  -0.028  0.00  0.00    +0.163 HD
ATOM     10  H   UNL     1      -4.393  -3.270  -0.016  0.00  0.00    +0.163 HD
ENDBRANCH   5   8
BRANCH   6  11
ATOM     11  N   UNL     1      -0.003  -0.003  -0.078  0.00  0.00    -0.187 NA
ATOM     12  C   UNL     1      -0.021   1.298  -0.081  0.00  0.00    +0.145 C 
BRANCH  12  13
ATOM     13  C   UNL     1       1.238   2.049  -0.099  0.00  0.00    +0.032 A 
ATOM     14  C   UNL     1       1.438   3.418  -0.105  0.00  0.00    +0.017 A 
ATOM     15  C   UNL     1       2.730   3.891  -0.121  0.00  0.00    +0.008 A 
ATOM     16  C   UNL     1       3.761   3.007  -0.131  0.00  0.00    +0.046 A 
ATOM     17  S   UNL     1       2.915   1.435  -0.110  0.00  0.00    -0.096 S 
ENDBRANCH  12  13
ENDBRANCH   6  11
BRANCH   1  18
ATOM     18  S   UNL     1      -2.856  -5.660  -0.029  0.00  0.00    -0.075 S 
BRANCH  18  19
ATOM     19  C   UNL     1      -1.671  -7.033  -0.040  0.00  0.00    +0.173 C 
BRANCH  19  21
ATOM     20  N   UNL     1      -1.739  -9.505  -0.032  0.00  0.00    -0.282 N 
ATOM     21  C   UNL     1      -2.418  -8.341  -0.027  0.00  0.00    +0.228 C 
ATOM     22  O   UNL     1      -3.631  -8.347  -0.012  0.00  0.00    -0.275 OA
ATOM     23  H   UNL     1      -0.642  -9.502  -0.120  0.00  0.00    +0.155 HD
BRANCH  20  29
ATOM     24  C   UNL     1      -1.857 -11.791   0.756  0.00  0.00    +0.141 A 
ATOM     25  C   UNL     1      -2.546 -12.989   0.862  0.00  0.00    +0.049 A 
ATOM     26  C   UNL     1      -3.794 -13.123   0.283  0.00  0.00    +0.024 A 
ATOM     27  C   UNL     1      -4.361 -12.061  -0.400  0.00  0.00    +0.043 A 
ATOM     28  C   UNL     1      -3.682 -10.861  -0.506  0.00  0.00    +0.047 A 
ATOM     29  C   UNL     1      -2.429 -10.720   0.073  0.00  0.00    +0.077 A 
ATOM     30 CL   UNL     1      -5.928 -12.236  -1.125  0.00  0.00    -0.083 Cl
BRANCH  24  32
ATOM     31  C   UNL     1      -0.102 -12.800   2.005  0.00  0.00    +0.277 C 
ATOM     32  O   UNL     1      -0.627 -11.660   1.321  0.00  0.00    -0.493 OA
ENDBRANCH  24  32
ENDBRANCH  20  29
ENDBRANCH  19  21
ENDBRANCH  18  19
ENDBRANCH   1  18
TORSDOF 8
