REMARK  Name = ZINC66908043
REMARK  6 active torsions:
REMARK  status: ('A' for Active; 'I' for Inactive)
REMARK    1  A    between atoms: C_1  and  C_2
REMARK    2  A    between atoms: C_3  and  C_11
REMARK    3  A    between atoms: N_13  and  N_14
REMARK    4  A    between atoms: N_17  and  C_18
REMARK    5  A    between atoms: C_18  and  C_19
REMARK    6  A    between atoms: C_19  and  O_29
REMARK                            x       y       z     vdW  Elec       q    Type
REMARK                         _______ _______ _______ _____ _____    ______ ____
ROOT
ATOM      1  N   UNL     1       0.269  -0.853  -4.790  0.00  0.00    -0.218 N 
ATOM      2  C   UNL     1       0.350  -1.755  -5.789  0.00  0.00    +0.316 C 
ATOM      3  O   UNL     1       0.418  -1.379  -6.943  0.00  0.00    -0.251 OA
ATOM      4  N   UNL     1       0.356  -3.073  -5.508  0.00  0.00    -0.295 N 
ATOM      5  H   UNL     1       0.265   0.096  -4.992  0.00  0.00    +0.174 HD
ATOM      6  H   UNL     1       0.302  -3.373  -4.587  0.00  0.00    +0.150 HD
ENDROOT
BRANCH   1   9
ATOM      7  C   UNL     1       0.110  -0.385  -2.461  0.00  0.00    +0.279 C 
ATOM      8  O   UNL     1       0.009   0.801  -2.718  0.00  0.00    -0.267 OA
ATOM      9  N   UNL     1       0.191  -1.286  -3.460  0.00  0.00    -0.228 N 
ATOM     10  H   UNL     1       0.196  -2.235  -3.258  0.00  0.00    +0.173 HD
BRANCH   7  13
ATOM     11  C   UNL     1      -2.389  -0.763  -0.634  0.00  0.00    +0.068 C 
ATOM     12  C   UNL     1      -0.945  -0.997  -0.272  0.00  0.00    +0.069 A 
ATOM     13  C   UNL     1       0.142  -0.818  -1.111  0.00  0.00    +0.133 A 
ATOM     14  N   UNL     1       1.265  -1.145  -0.373  0.00  0.00    -0.295 N 
ATOM     15  C   UNL     1       2.590  -1.156  -0.676  0.00  0.00    +0.093 A 
ATOM     16  C   UNL     1       3.505  -1.525   0.249  0.00  0.00    +0.018 A 
ATOM     17  C   UNL     1       3.094  -1.902   1.535  0.00  0.00    +0.005 A 
ATOM     18  C   UNL     1       1.767  -1.893   1.847  0.00  0.00    +0.047 A 
ATOM     19  C   UNL     1       0.831  -1.506   0.871  0.00  0.00    +0.138 A 
ATOM     20  N   UNL     1      -0.496  -1.403   0.905  0.00  0.00    -0.232 NA
ENDBRANCH   7  13
ENDBRANCH   1   9
BRANCH   4  21
ATOM     21  C   UNL     1       0.445  -4.053  -6.593  0.00  0.00    +0.145 C 
BRANCH  21  22
ATOM     22  C   UNL     1       0.318  -5.465  -6.017  0.00  0.00    +0.107 C 
ATOM     23  C   UNL     1       1.413  -5.683  -4.975  0.00  0.00    +0.041 C 
ATOM     24  C   UNL     1       1.407  -7.162  -4.571  0.00  0.00    +0.008 C 
ATOM     25  C   UNL     1       1.919  -7.986  -5.751  0.00  0.00    +0.035 C 
ATOM     26  C   UNL     1       1.173  -7.629  -7.009  0.00  0.00    -0.041 A 
ATOM     27  C   UNL     1       0.441  -6.469  -7.133  0.00  0.00    -0.011 A 
ATOM     28  C   UNL     1      -0.219  -6.196  -8.324  0.00  0.00    +0.007 A 
ATOM     29  C   UNL     1      -0.150  -7.079  -9.382  0.00  0.00    +0.000 A 
ATOM     30  C   UNL     1       0.582  -8.245  -9.257  0.00  0.00    +0.000 A 
ATOM     31  C   UNL     1       1.240  -8.517  -8.075  0.00  0.00    +0.004 A 
BRANCH  22  32
ATOM     32  O   UNL     1      -0.960  -5.606  -5.394  0.00  0.00    -0.382 OA
ATOM     33  H   UNL     1      -1.707  -5.472  -5.994  0.00  0.00    +0.211 HD
ENDBRANCH  22  32
ENDBRANCH  21  22
ENDBRANCH   4  21
TORSDOF 5
