REMARK  Name = ZINC01129909
REMARK  11 active torsions:
REMARK  status: ('A' for Active; 'I' for Inactive)
REMARK    1  A    between atoms: C_1  and  C_2
REMARK    2  A    between atoms: C_2  and  C_3
REMARK    3  A    between atoms: C_7  and  C_28
REMARK    4  A    between atoms: C_8  and  N_9
REMARK    5  A    between atoms: C_10  and  C_12
REMARK    6  A    between atoms: C_12  and  N_13
REMARK    7  A    between atoms: N_13  and  C_14
REMARK    8  A    between atoms: N_13  and  S_24
REMARK    9  A    between atoms: C_16  and  N_21
REMARK   10  A    between atoms: C_19  and  C_20
REMARK   11  A    between atoms: S_24  and  C_27
REMARK                            x       y       z     vdW  Elec       q    Type
REMARK                         _______ _______ _______ _____ _____    ______ ____
ROOT
ATOM      1  N   UNL     1      -4.231   0.651   2.044  0.00  0.00    -0.198 N 
ENDROOT
BRANCH   1   2
ATOM      2  C   UNL     1      -5.321   1.274   1.434  0.00  0.00    +0.056 A 
ATOM      3  C   UNL     1      -5.360   2.659   1.323  0.00  0.00    +0.057 A 
ATOM      4  C   UNL     1      -6.437   3.271   0.714  0.00  0.00    +0.128 A 
ATOM      5  C   UNL     1      -7.482   2.509   0.224  0.00  0.00    +0.033 A 
ATOM      6  C   UNL     1      -7.450   1.132   0.338  0.00  0.00    +0.007 A 
ATOM      7  C   UNL     1      -6.373   0.512   0.941  0.00  0.00    -0.028 A 
ATOM      8  C   UNL     1      -6.338  -0.990   1.063  0.00  0.00    +0.046 C 
BRANCH   4   9
ATOM      9  N   UNL     1      -6.476   4.746   0.591  0.00  0.00    +0.056 N 
ATOM     10  O   UNL     1      -7.428   5.287   0.059  0.00  0.00    -0.126 OA
ATOM     11  O   UNL     1      -5.556   5.418   1.022  0.00  0.00    -0.126 OA
ENDBRANCH   4   9
ENDBRANCH   1   2
BRANCH   1  12
ATOM     12  S   UNL     1      -4.283   0.285   3.658  0.00  0.00    +0.043 S 
ATOM     13  O   UNL     1      -5.660   0.075   3.938  0.00  0.00    -0.155 OA
ATOM     14  O   UNL     1      -3.341  -0.766   3.822  0.00  0.00    -0.155 OA
ATOM     15  C   UNL     1      -3.697   1.785   4.495  0.00  0.00    +0.218 C 
ENDBRANCH   1  12
BRANCH   1  16
ATOM     16  C   UNL     1      -3.041   0.320   1.256  0.00  0.00    +0.227 C 
BRANCH  16  18
ATOM     17  N   UNL     1      -0.924   1.418   0.599  0.00  0.00    -0.284 N 
ATOM     18  C   UNL     1      -2.121   1.513   1.210  0.00  0.00    +0.236 C 
ATOM     19  O   UNL     1      -2.459   2.559   1.723  0.00  0.00    -0.274 OA
ATOM     20  H   UNL     1      -0.685   0.607   0.123  0.00  0.00    +0.155 HD
BRANCH  17  26
ATOM     21  C   UNL     1       1.258   2.302   1.140  0.00  0.00    -0.026 A 
ATOM     22  C   UNL     1       2.141   3.364   1.185  0.00  0.00    +0.005 A 
ATOM     23  C   UNL     1       1.747   4.612   0.741  0.00  0.00    +0.001 A 
ATOM     24  C   UNL     1       0.469   4.803   0.249  0.00  0.00    +0.005 A 
ATOM     25  C   UNL     1      -0.417   3.745   0.195  0.00  0.00    -0.029 A 
ATOM     26  C   UNL     1      -0.027   2.490   0.647  0.00  0.00    +0.040 A 
ATOM     27  C   UNL     1      -1.808   3.952  -0.347  0.00  0.00    +0.045 C 
BRANCH  21  29
ATOM     28  C   UNL     1       2.179   0.109   0.440  0.00  0.00    +0.009 C 
ATOM     29  C   UNL     1       1.687   0.942   1.626  0.00  0.00    +0.033 C 
ENDBRANCH  21  29
ENDBRANCH  17  26
ENDBRANCH  16  18
ENDBRANCH   1  16
TORSDOF 7
