REMARK  Name = ZINC39944134
REMARK  6 active torsions:
REMARK  status: ('A' for Active; 'I' for Inactive)
REMARK    1  A    between atoms: C_1  and  C_2
REMARK    2  A    between atoms: C_4  and  C_12
REMARK    3  A    between atoms: C_12  and  C_14
REMARK    4  A    between atoms: C_14  and  C_16
REMARK    5  A    between atoms: C_14  and  N_17
REMARK    6  A    between atoms: C_20  and  C_23
REMARK                            x       y       z     vdW  Elec       q    Type
REMARK                         _______ _______ _______ _____ _____    ______ ____
ROOT
ATOM      1  N   UNL     1       1.070   0.043  -4.881  0.00  0.00    +0.386 N 
ATOM      2  C   UNL     1       1.946  -0.438  -5.957  0.00  0.00    -0.077 C 
ATOM      3  C   UNL     1       1.670   0.354  -7.237  0.00  0.00    -0.013 C 
ATOM      4  C   UNL     1       1.943   1.839  -6.980  0.00  0.00    +0.016 C 
ATOM      5  C   UNL     1       1.079   2.311  -5.807  0.00  0.00    -0.013 C 
ATOM      6  C   UNL     1       1.376   1.446  -4.580  0.00  0.00    -0.077 C 
ATOM      7  H   UNL     1       0.108  -0.036  -5.173  0.00  0.00    -0.081 HD
ENDROOT
BRANCH   4   8
ATOM      8  C   UNL     1       1.594   2.647  -8.231  0.00  0.00    +0.136 C 
ATOM      9  N   UNL     1       1.766   4.087  -7.995  0.00  0.00    -0.331 N 
ATOM     10  C   UNL     1       0.637   4.898  -8.101  0.00  0.00    +0.042 A 
ATOM     11  C   UNL     1       0.609   6.291  -7.911  0.00  0.00    +0.024 A 
ATOM     12  C   UNL     1      -0.560   7.003  -8.038  0.00  0.00    +0.002 A 
ATOM     13  C   UNL     1      -1.749   6.374  -8.357  0.00  0.00    +0.001 A 
ATOM     14  C   UNL     1      -1.752   5.003  -8.551  0.00  0.00    +0.016 A 
ATOM     15  C   UNL     1      -0.580   4.290  -8.424  0.00  0.00    +0.031 A 
ATOM     16  S   UNL     1      -0.206   2.559  -8.594  0.00  0.00    -0.101 S 
ATOM     17  H   UNL     1       2.634   4.460  -7.774  0.00  0.00    +0.147 HD
ENDBRANCH   4   8
BRANCH   1  18
ATOM     18  C   UNL     1       1.283  -0.772  -3.678  0.00  0.00    +0.001 C 
ATOM     19  C   UNL     1       0.965  -2.236  -3.990  0.00  0.00    -0.005 C 
BRANCH  18  20
ATOM     20  C   UNL     1       0.379  -0.286  -2.575  0.00  0.00    +0.148 C 
ATOM     21  O   UNL     1      -0.642   0.313  -2.847  0.00  0.00    -0.294 OA
BRANCH  20  24
ATOM     22  C   UNL     1       0.009   1.514   0.023  0.00  0.00    +0.035 C 
ATOM     23  C   UNL     1      -0.002  -0.016   0.003  0.00  0.00    +0.110 C 
ATOM     24  C   UNL     1       0.718  -0.526  -1.227  0.00  0.00    +0.024 C 
ATOM     25  C   UNL     1       1.778  -1.277  -0.751  0.00  0.00    +0.006 A 
ATOM     26  C   UNL     1       2.805  -2.006  -1.395  0.00  0.00    +0.010 A 
ATOM     27  C   UNL     1       3.733  -2.665  -0.665  0.00  0.00    +0.001 A 
ATOM     28  C   UNL     1       3.729  -2.662   0.739  0.00  0.00    +0.002 A 
ATOM     29  C   UNL     1       2.792  -1.997   1.449  0.00  0.00    +0.026 A 
ATOM     30  C   UNL     1       1.744  -1.253   0.732  0.00  0.00    +0.043 A 
ATOM     31  N   UNL     1       0.737  -0.541   1.155  0.00  0.00    -0.377 N 
ATOM     32  H   UNL     1       0.512  -0.383   2.085  0.00  0.00    +0.160 HD
ENDBRANCH  20  24
ENDBRANCH  18  20
ENDBRANCH   1  18
TORSDOF 4
