REMARK  Name = ZINC16956348
REMARK  4 active torsions:
REMARK  status: ('A' for Active; 'I' for Inactive)
REMARK    1  A    between atoms: C_1  and  C_2
REMARK    2  A    between atoms: N_4  and  C_26
REMARK    3  A    between atoms: C_7  and  C_9
REMARK    4  A    between atoms: N_15  and  C_18
REMARK                            x       y       z     vdW  Elec       q    Type
REMARK                         _______ _______ _______ _____ _____    ______ ____
ROOT
ATOM      1  C   UNL     1      -1.209  -0.705   2.055  0.00  0.00    +0.010 C 
ATOM      2  C   UNL     1      -1.092  -0.394   3.365  0.00  0.00    +0.098 C 
ATOM      3  C   UNL     1       0.226  -0.134   3.985  0.00  0.00    +0.274 C 
ATOM      4  O   UNL     1       1.358  -0.199   3.254  0.00  0.00    -0.268 OA
ATOM      5  N   UNL     1       0.267   0.164   5.269  0.00  0.00    -0.153 NA
ATOM      6  C   UNL     1      -0.833   0.236   6.016  0.00  0.00    +0.171 C 
ATOM      7  N   UNL     1      -2.070   0.018   5.547  0.00  0.00    -0.213 N 
ATOM      8  C   UNL     1      -2.279  -0.292   4.249  0.00  0.00    +0.261 C 
ATOM      9  O   UNL     1      -3.401  -0.485   3.821  0.00  0.00    -0.269 OA
ATOM     10  S   UNL     1      -0.658   0.630   7.673  0.00  0.00    -0.016 S 
ENDROOT
BRANCH   1  17
ATOM     11  C   UNL     1       0.595   1.519   0.547  0.00  0.00    +0.063 C 
ATOM     12  C   UNL     1       0.293   0.076   0.237  0.00  0.00    +0.050 C 
ATOM     13  N   UNL     1       0.226  -0.451  -0.923  0.00  0.00    -0.181 NA
ATOM     14  N   UNL     1      -0.070  -1.811  -0.891  0.00  0.00    -0.160 N 
ATOM     15  C   UNL     1      -0.216  -2.246   0.378  0.00  0.00    +0.252 C 
ATOM     16  O   UNL     1      -0.475  -3.372   0.747  0.00  0.00    -0.272 OA
ATOM     17  C   UNL     1       0.020  -1.023   1.243  0.00  0.00    +0.146 C 
BRANCH  14  18
ATOM     18  C   UNL     1      -0.200  -2.620  -2.025  0.00  0.00    +0.060 A 
ATOM     19  C   UNL     1      -0.504  -3.968  -1.887  0.00  0.00    +0.025 A 
ATOM     20  C   UNL     1      -0.632  -4.764  -3.009  0.00  0.00    +0.002 A 
ATOM     21  C   UNL     1      -0.457  -4.220  -4.268  0.00  0.00    +0.000 A 
ATOM     22  C   UNL     1      -0.153  -2.878  -4.409  0.00  0.00    +0.002 A 
ATOM     23  C   UNL     1      -0.031  -2.075  -3.292  0.00  0.00    +0.025 A 
ENDBRANCH  14  18
ENDBRANCH   1  17
BRANCH   7  24
ATOM     24  C   UNL     1      -3.165   0.118   6.416  0.00  0.00    +0.078 A 
ATOM     25  C   UNL     1      -3.816   1.333   6.576  0.00  0.00    +0.027 A 
ATOM     26  C   UNL     1      -4.895   1.430   7.434  0.00  0.00    +0.002 A 
ATOM     27  C   UNL     1      -5.327   0.318   8.133  0.00  0.00    +0.003 A 
ATOM     28  C   UNL     1      -4.681  -0.895   7.977  0.00  0.00    +0.040 A 
ATOM     29  C   UNL     1      -3.604  -1.000   7.116  0.00  0.00    +0.145 A 
ATOM     30  F   UNL     1      -2.976  -2.186   6.959  0.00  0.00    -0.204 F 
ENDBRANCH   7  24
TORSDOF 3
