REMARK  Name = ZINC43510500
REMARK  17 active torsions:
REMARK  status: ('A' for Active; 'I' for Inactive)
REMARK    1  A    between atoms: C_1  and  C_2
REMARK    2  A    between atoms: C_4  and  O_42
REMARK    3  A    between atoms: C_6  and  C_31
REMARK    4  A    between atoms: C_8  and  C_30
REMARK    5  A    between atoms: C_12  and  C_29
REMARK    6  A    between atoms: C_21  and  O_28
REMARK    7  A    between atoms: C_25  and  C_26
REMARK    8  A    between atoms: C_25  and  C_27
REMARK    9  A    between atoms: C_31  and  C_32
REMARK   10  A    between atoms: C_31  and  C_33
REMARK   11  A    between atoms: C_31  and  O_41
REMARK   12  A    between atoms: C_33  and  C_35
REMARK   13  A    between atoms: C_35  and  C_36
REMARK   14  A    between atoms: C_36  and  C_37
REMARK   15  A    between atoms: C_37  and  C_38
REMARK   16  A    between atoms: C_37  and  C_39
REMARK   17  A    between atoms: C_37  and  O_40
REMARK                            x       y       z     vdW  Elec       q    Type
REMARK                         _______ _______ _______ _____ _____    ______ ____
ROOT
ATOM      1  C   UNL     1       0.728   0.644   0.069  0.00  0.00    +0.012 C 
ATOM      2  C   UNL     1       1.166  -0.729   0.582  0.00  0.00    -0.020 C 
ATOM      3  C   UNL     1      -0.058  -1.611   0.859  0.00  0.00    +0.039 C 
ATOM      4  C   UNL     1      -0.606  -1.039   2.193  0.00  0.00    +0.122 C 
ATOM      5  C   UNL     1       0.587  -0.346   2.896  0.00  0.00    +0.063 C 
ATOM      6  C   UNL     1       1.794  -0.605   1.998  0.00  0.00    -0.011 C 
ATOM      7  C   UNL     1       2.829   0.506   1.944  0.00  0.00    +0.082 C 
ATOM      8  C   UNL     1       3.841   0.109   0.880  0.00  0.00    +0.141 C 
ATOM      9  O   UNL     1       5.024   0.119   1.124  0.00  0.00    -0.297 OA
ATOM     10  C   UNL     1       3.340  -0.301  -0.493  0.00  0.00    +0.036 C 
ATOM     11  C   UNL     1       2.224  -1.317  -0.328  0.00  0.00    +0.013 C 
ATOM     12  C   UNL     1       1.661  -1.697  -1.690  0.00  0.00    +0.032 C 
ATOM     13  C   UNL     1       1.202  -0.461  -2.409  0.00  0.00    -0.026 C 
ATOM     14  C   UNL     1       1.722   0.710  -2.186  0.00  0.00    -0.057 C 
ATOM     15  C   UNL     1       2.837   0.944  -1.205  0.00  0.00    +0.032 C 
ATOM     16  C   UNL     1       4.007   1.653  -1.893  0.00  0.00    +0.048 C 
ATOM     17  C   UNL     1       3.519   2.964  -2.517  0.00  0.00    +0.182 C 
ATOM     18  C   UNL     1       2.405   2.654  -3.493  0.00  0.00    +0.171 C 
ATOM     19  O   UNL     1       2.468   3.017  -4.643  0.00  0.00    -0.294 OA
ATOM     20  C   UNL     1       1.177   1.893  -2.974  0.00  0.00    +0.047 C 
ATOM     21  C   UNL     1       0.347   1.391  -4.157  0.00  0.00    +0.023 C 
ATOM     22  C   UNL     1       0.312   2.769  -2.064  0.00  0.00    +0.023 C 
ATOM     23  C   UNL     1       4.489  -0.918  -1.293  0.00  0.00    +0.020 C 
ATOM     24  C   UNL     1       2.459  -1.926   2.389  0.00  0.00    +0.012 C 
ENDROOT
BRANCH  17  25
ATOM     25  O   UNL     1       3.032   3.831  -1.491  0.00  0.00    -0.384 OA
ATOM     26  H   UNL     1       2.707   4.681  -1.816  0.00  0.00    +0.210 HD
ENDBRANCH  17  25
BRANCH   5  27
ATOM     27  C   UNL     1       0.329   1.157   3.019  0.00  0.00    +0.126 C 
ATOM     28  C   UNL     1       1.477   1.810   3.791  0.00  0.00    +0.050 C 
BRANCH  27  29
ATOM     29  C   UNL     1      -0.966   1.386   3.755  0.00  0.00    +0.165 C 
ATOM     30  O   UNL     1      -1.339   0.590   4.583  0.00  0.00    -0.294 OA
BRANCH  29  31
ATOM     31  C   UNL     1      -1.796   2.608   3.458  0.00  0.00    +0.080 C 
BRANCH  31  32
ATOM     32  C   UNL     1      -3.050   2.599   4.335  0.00  0.00    +0.042 C 
BRANCH  32  33
ATOM     33  C   UNL     1      -3.893   3.840   4.033  0.00  0.00    +0.061 C 
ATOM     34  C   UNL     1      -5.080   3.896   4.996  0.00  0.00    +0.041 C 
ATOM     35  C   UNL     1      -3.034   5.094   4.208  0.00  0.00    +0.041 C 
BRANCH  33  36
ATOM     36  O   UNL     1      -4.372   3.774   2.688  0.00  0.00    -0.389 OA
ATOM     37  H   UNL     1      -4.925   3.002   2.505  0.00  0.00    +0.210 HD
ENDBRANCH  33  36
ENDBRANCH  32  33
ENDBRANCH  31  32
ENDBRANCH  29  31
ENDBRANCH  27  29
BRANCH  27  38
ATOM     38  O   UNL     1       0.243   1.734   1.714  0.00  0.00    -0.381 OA
ATOM     39  H   UNL     1      -0.660   1.821   1.381  0.00  0.00    +0.211 HD
ENDBRANCH  27  38
ENDBRANCH   5  27
BRANCH   4  40
ATOM     40  O   UNL     1      -1.110  -2.098   3.010  0.00  0.00    -0.391 OA
ATOM     41  H   UNL     1      -1.844  -2.586   2.613  0.00  0.00    +0.210 HD
ENDBRANCH   4  40
TORSDOF 9
