REMARK  Name = ZINC39448867
REMARK  5 active torsions:
REMARK  status: ('A' for Active; 'I' for Inactive)
REMARK    1  A    between atoms: C_16  and  C_18
REMARK    2  A    between atoms: C_18  and  S_19
REMARK    3  A    between atoms: S_19  and  C_20
REMARK    4  A    between atoms: C_22  and  C_28
REMARK    5  A    between atoms: C_31  and  N_34
REMARK                            x       y       z     vdW  Elec       q    Type
REMARK                         _______ _______ _______ _____ _____    ______ ____
ROOT
ATOM      1  S   UNL     1       6.969  -0.575   2.102  0.00  0.00    -0.077 S 
ENDROOT
BRANCH   1   2
ATOM      2  C   UNL     1       8.470  -1.462   1.848  0.00  0.00    +0.189 C 
ATOM      3  N   UNL     1       8.571  -2.255   0.813  0.00  0.00    -0.230 NA
ATOM      4  C   UNL     1       9.790  -3.043   0.601  0.00  0.00    +0.246 C 
ATOM      5  N   UNL     1      10.915  -2.334   1.229  0.00  0.00    -0.188 NA
ATOM      6  C   UNL     1      10.693  -1.737   2.447  0.00  0.00    +0.202 C 
ATOM      7  N   UNL     1       9.480  -1.299   2.721  0.00  0.00    -0.192 NA
ATOM      8  N   UNL     1      11.708  -1.597   3.351  0.00  0.00    -0.330 N 
ATOM      9  H   UNL     1      12.597  -1.920   3.137  0.00  0.00    +0.145 HD
ATOM     10  H   UNL     1      11.539  -1.174   4.208  0.00  0.00    +0.145 HD
BRANCH   4  11
ATOM     11  C   UNL     1      10.046  -3.195  -0.877  0.00  0.00    -0.004 A 
ATOM     12  C   UNL     1       8.986  -3.206  -1.764  0.00  0.00    +0.009 A 
ATOM     13  C   UNL     1       9.220  -3.345  -3.119  0.00  0.00    +0.033 A 
ATOM     14  C   UNL     1      10.515  -3.472  -3.587  0.00  0.00    +0.126 A 
ATOM     15  C   UNL     1      11.575  -3.460  -2.700  0.00  0.00    +0.033 A 
ATOM     16  C   UNL     1      11.341  -3.317  -1.345  0.00  0.00    +0.009 A 
BRANCH  14  17
ATOM     17  N   UNL     1      10.765  -3.622  -5.038  0.00  0.00    +0.056 N 
ATOM     18  O   UNL     1       9.838  -3.633  -5.814  0.00  0.00    -0.126 OA
ATOM     19  O   UNL     1      11.898  -3.733  -5.448  0.00  0.00    -0.126 OA
ENDBRANCH  14  17
ENDBRANCH   4  11
ENDBRANCH   1   2
BRANCH   1  20
ATOM     20  C   UNL     1       5.916  -1.090   0.718  0.00  0.00    +0.174 C 
BRANCH  20  36
ATOM     21  C   UNL     1      -0.017   1.371   0.010  0.00  0.00    +0.000 A 
ATOM     22  C   UNL     1       1.168   2.085   0.002  0.00  0.00    +0.002 A 
ATOM     23  C   UNL     1       2.365   1.400  -0.028  0.00  0.00    +0.024 A 
ATOM     24  C   UNL     1       2.383   0.009  -0.042  0.00  0.00    +0.044 A 
ATOM     25  C   UNL     1       1.204  -0.717  -0.008  0.00  0.00    -0.025 A 
ATOM     26  C   UNL     1       0.002  -0.004   0.002  0.00  0.00    +0.005 A 
ATOM     27  C   UNL     1       1.047  -2.219   0.059  0.00  0.00    +0.042 C 
ATOM     28  C   UNL     1       2.374  -2.955   0.112  0.00  0.00    +0.042 C 
ATOM     29  C   UNL     1       3.191  -2.701  -1.128  0.00  0.00    -0.025 A 
ATOM     30  C   UNL     1       3.277  -3.606  -2.162  0.00  0.00    +0.005 A 
ATOM     31  C   UNL     1       4.077  -3.297  -3.253  0.00  0.00    +0.000 A 
ATOM     32  C   UNL     1       4.775  -2.103  -3.295  0.00  0.00    +0.002 A 
ATOM     33  C   UNL     1       4.674  -1.195  -2.254  0.00  0.00    +0.024 A 
ATOM     34  C   UNL     1       3.862  -1.508  -1.178  0.00  0.00    +0.044 A 
ATOM     35  N   UNL     1       3.632  -0.626  -0.112  0.00  0.00    -0.239 N 
ATOM     36  C   UNL     1       4.582  -0.395   0.816  0.00  0.00    +0.234 C 
ATOM     37  O   UNL     1       4.364   0.372   1.730  0.00  0.00    -0.274 OA
ENDBRANCH  20  36
ENDBRANCH   1  20
TORSDOF 5
