REMARK  Name = ZINC12885922
REMARK  6 active torsions:
REMARK  status: ('A' for Active; 'I' for Inactive)
REMARK    1  A    between atoms: C_1  and  C_2
REMARK    2  A    between atoms: C_4  and  C_39
REMARK    3  A    between atoms: C_22  and  C_29
REMARK    4  A    between atoms: C_29  and  C_31
REMARK    5  A    between atoms: C_35  and  O_37
REMARK    6  A    between atoms: O_37  and  C_38
REMARK                            x       y       z     vdW  Elec       q    Type
REMARK                         _______ _______ _______ _____ _____    ______ ____
ROOT
ATOM      1  C   UNL     1       3.724  -0.709  -0.158  0.00  0.00    +0.044 C 
ATOM      2  C   UNL     1       2.415   0.036  -0.149  0.00  0.00    -0.050 A 
ATOM      3  C   UNL     1       1.220  -0.661  -0.182  0.00  0.00    +0.008 A 
ATOM      4  C   UNL     1       0.018   0.016  -0.174  0.00  0.00    -0.029 A 
ATOM      5  C   UNL     1      -0.001   1.408  -0.132  0.00  0.00    +0.039 A 
ATOM      6  C   UNL     1       1.206   2.098  -0.099  0.00  0.00    -0.026 A 
ATOM      7  C   UNL     1       2.404   1.419  -0.108  0.00  0.00    +0.008 A 
ATOM      8  C   UNL     1       0.849   3.560  -0.054  0.00  0.00    +0.060 C 
ATOM      9  C   UNL     1      -0.659   3.586  -0.069  0.00  0.00    +0.212 C 
ATOM     10  O   UNL     1      -1.365   4.572  -0.045  0.00  0.00    -0.277 OA
ATOM     11  N   UNL     1      -1.071   2.305  -0.110  0.00  0.00    -0.286 N 
ATOM     12  C   UNL     1       1.399   4.229   1.201  0.00  0.00    +0.085 C 
ATOM     13  C   UNL     1       0.388   4.291   2.307  0.00  0.00    -0.011 A 
ATOM     14  C   UNL     1      -0.875   4.831   2.412  0.00  0.00    +0.006 A 
ATOM     15  C   UNL     1      -1.579   4.721   3.598  0.00  0.00    +0.000 A 
ATOM     16  C   UNL     1      -1.013   4.068   4.677  0.00  0.00    +0.002 A 
ATOM     17  C   UNL     1       0.252   3.526   4.577  0.00  0.00    +0.023 A 
ATOM     18  C   UNL     1       0.968   3.632   3.388  0.00  0.00    +0.038 A 
ATOM     19  N   UNL     1       2.242   3.172   3.046  0.00  0.00    -0.285 N 
ATOM     20  C   UNL     1       2.570   3.483   1.776  0.00  0.00    +0.228 C 
ATOM     21  O   UNL     1       3.608   3.213   1.208  0.00  0.00    -0.275 OA
ATOM     22  C   UNL     1       1.811   5.636   0.727  0.00  0.00    +0.066 C 
ATOM     23  C   UNL     1       2.295   5.348  -0.716  0.00  0.00    -0.055 C 
ATOM     24  C   UNL     1       0.295   4.970  -1.935  0.00  0.00    -0.076 C 
ATOM     25  C   UNL     1       1.000   6.159  -2.630  0.00  0.00    -0.020 C 
ATOM     26  C   UNL     1       2.057   6.591  -1.587  0.00  0.00    -0.016 C 
ATOM     27  C   UNL     1      -1.277  -0.753  -0.210  0.00  0.00    +0.045 C 
ATOM     28  H   UNL     1      -2.002   2.037  -0.124  0.00  0.00    +0.155 HD
ATOM     29  H   UNL     1       2.823   2.686   3.652  0.00  0.00    +0.155 HD
ATOM     30  N   UNL     1       1.393   4.309  -1.206  0.00  0.00    +0.395 N 
ATOM     31  H   UNL     1       1.895   3.668  -1.831  0.00  0.00    -0.079 HD
ENDROOT
BRANCH  22  32
ATOM     32  C   UNL     1       0.629   6.572   0.723  0.00  0.00    +0.166 C 
ATOM     33  O   UNL     1      -0.024   6.720  -0.287  0.00  0.00    -0.292 OA
BRANCH  32  34
ATOM     34  C   UNL     1       0.269   7.306   1.947  0.00  0.00    +0.021 A 
ATOM     35  C   UNL     1       1.020   7.138   3.115  0.00  0.00    +0.011 A 
ATOM     36  C   UNL     1       0.678   7.828   4.258  0.00  0.00    +0.004 A 
ATOM     37  C   UNL     1      -0.406   8.687   4.256  0.00  0.00    +0.045 A 
ATOM     38  C   UNL     1      -1.159   8.861   3.102  0.00  0.00    +0.121 A 
ATOM     39  C   UNL     1      -0.823   8.179   1.945  0.00  0.00    +0.057 A 
BRANCH  38  40
ATOM     40  O   UNL     1      -2.223   9.707   3.107  0.00  0.00    -0.495 OA
ATOM     41  C   UNL     1      -2.509  10.383   4.333  0.00  0.00    +0.277 C 
ENDBRANCH  38  40
ENDBRANCH  32  34
ENDBRANCH  22  32
TORSDOF 3
