REMARK  Name = ZINC40922755
REMARK  9 active torsions:
REMARK  status: ('A' for Active; 'I' for Inactive)
REMARK    1  A    between atoms: C_1  and  C_2
REMARK    2  A    between atoms: C_2  and  O_3
REMARK    3  A    between atoms: O_3  and  C_4
REMARK    4  A    between atoms: C_4  and  C_6
REMARK    5  A    between atoms: C_7  and  C_31
REMARK    6  A    between atoms: C_14  and  C_16
REMARK    7  A    between atoms: C_20  and  O_22
REMARK    8  A    between atoms: O_22  and  C_23
REMARK    9  A    between atoms: C_23  and  C_24
REMARK                            x       y       z     vdW  Elec       q    Type
REMARK                         _______ _______ _______ _____ _____    ______ ____
ROOT
ATOM      1  C   UNL     1      -2.799  -2.429   0.223  0.00  0.00    +0.082 C 
ATOM      2  C   UNL     1      -2.919  -3.729  -0.087  0.00  0.00    +0.020 C 
ATOM      3  N   UNL     1      -4.138  -4.320  -0.310  0.00  0.00    -0.286 N 
ATOM      4  C   UNL     1      -5.235  -3.483  -0.459  0.00  0.00    +0.240 A 
ATOM      5  N   UNL     1      -6.443  -3.726  -0.879  0.00  0.00    -0.092 NA
ATOM      6  N   UNL     1      -7.148  -2.647  -0.862  0.00  0.00    -0.021 NA
ATOM      7  N   UNL     1      -6.441  -1.653  -0.430  0.00  0.00    -0.042 NA
ATOM      8  N   UNL     1      -5.174  -2.162  -0.150  0.00  0.00    -0.201 N 
ATOM      9  C   UNL     1      -3.980  -1.506   0.374  0.00  0.00    +0.181 C 
ATOM     10  C   UNL     1      -1.673  -4.569  -0.196  0.00  0.00    +0.061 C 
ATOM     11  H   UNL     1      -4.229  -5.284  -0.362  0.00  0.00    +0.155 HD
ENDROOT
BRANCH   9  12
ATOM     12  C   UNL     1      -4.178  -1.178   1.831  0.00  0.00    -0.015 A 
ATOM     13  C   UNL     1      -4.421  -2.191   2.741  0.00  0.00    +0.006 A 
ATOM     14  C   UNL     1      -4.604  -1.894   4.078  0.00  0.00    +0.004 A 
ATOM     15  C   UNL     1      -4.544  -0.582   4.510  0.00  0.00    +0.045 A 
ATOM     16  C   UNL     1      -4.301   0.436   3.599  0.00  0.00    +0.121 A 
ATOM     17  C   UNL     1      -4.112   0.134   2.258  0.00  0.00    +0.051 A 
BRANCH  16  18
ATOM     18  O   UNL     1      -4.242   1.726   4.021  0.00  0.00    -0.487 OA
BRANCH  18  19
ATOM     19  C   UNL     1      -4.440   1.962   5.417  0.00  0.00    +0.264 C 
BRANCH  19  20
ATOM     20  C   UNL     1      -4.340   3.440   5.695  0.00  0.00    -0.010 A 
ATOM     21  C   UNL     1      -3.116   4.004   6.004  0.00  0.00    +0.008 A 
ATOM     22  C   UNL     1      -3.024   5.359   6.260  0.00  0.00    +0.020 A 
ATOM     23  C   UNL     1      -4.157   6.151   6.206  0.00  0.00    +0.041 A 
ATOM     24  C   UNL     1      -5.381   5.587   5.897  0.00  0.00    +0.020 A 
ATOM     25  C   UNL     1      -5.471   4.232   5.636  0.00  0.00    +0.008 A 
ATOM     26 CL   UNL     1      -4.042   7.853   6.528  0.00  0.00    -0.084 Cl
ENDBRANCH  19  20
ENDBRANCH  18  19
ENDBRANCH  16  18
ENDBRANCH   9  12
BRANCH   1  27
ATOM     27  C   UNL     1      -1.504  -1.902   0.423  0.00  0.00    +0.339 C 
ATOM     28  O   UNL     1      -0.999  -1.188  -0.424  0.00  0.00    -0.245 OA
BRANCH  27  29
ATOM     29  O   UNL     1      -0.825  -2.190   1.554  0.00  0.00    -0.462 OA
BRANCH  29  31
ATOM     30  C   UNL     1       1.087  -2.058   3.026  0.00  0.00    +0.048 C 
ATOM     31  C   UNL     1       0.479  -1.623   1.691  0.00  0.00    +0.229 C 
ENDBRANCH  29  31
ENDBRANCH  27  29
ENDBRANCH   1  27
TORSDOF 7
