REMARK  Name = ZINC37729011
REMARK  9 active torsions:
REMARK  status: ('A' for Active; 'I' for Inactive)
REMARK    1  A    between atoms: C_1  and  C_2
REMARK    2  A    between atoms: C_2  and  C_4
REMARK    3  A    between atoms: C_2  and  N_21
REMARK    4  A    between atoms: C_4  and  C_5
REMARK    5  A    between atoms: C_10  and  O_11
REMARK    6  A    between atoms: O_11  and  C_12
REMARK    7  A    between atoms: C_12  and  C_13
REMARK    8  A    between atoms: C_13  and  C_15
REMARK    9  A    between atoms: C_13  and  C_16
REMARK                            x       y       z     vdW  Elec       q    Type
REMARK                         _______ _______ _______ _____ _____    ______ ____
ROOT
ATOM      1  C   UNL     1      -1.416  -2.035  -0.119  0.00  0.00    -0.004 A 
ATOM      2  C   UNL     1      -1.554  -2.621  -1.363  0.00  0.00    +0.027 A 
ATOM      3  C   UNL     1      -1.538  -3.999  -1.485  0.00  0.00    +0.043 A 
ATOM      4  C   UNL     1      -1.385  -4.793  -0.363  0.00  0.00    +0.043 A 
ATOM      5  C   UNL     1      -1.247  -4.211   0.883  0.00  0.00    +0.084 A 
ATOM      6  C   UNL     1      -1.256  -2.828   1.006  0.00  0.00    +0.142 A 
ATOM      7 CL   UNL     1      -1.055  -5.208   2.291  0.00  0.00    -0.080 Cl
ATOM      8 CL   UNL     1      -1.712  -4.732  -3.049  0.00  0.00    -0.083 Cl
ENDROOT
BRANCH   1   9
ATOM      9  C   UNL     1      -1.433  -0.534   0.013  0.00  0.00    +0.022 C 
BRANCH   9  11
ATOM     10  C   UNL     1      -0.019   1.526   0.010  0.00  0.00    -0.014 C 
ATOM     11  C   UNL     1       0.002  -0.004   0.002  0.00  0.00    -0.074 C 
BRANCH  11  12
ATOM     12  N   UNL     1       0.713  -0.491   1.192  0.00  0.00    +0.380 N 
ATOM     13  H   UNL     1       0.240  -0.165   2.022  0.00  0.00    -0.090 HD
ATOM     14  H   UNL     1       0.726  -1.500   1.187  0.00  0.00    -0.090 HD
ATOM     15  H   UNL     1       1.659  -0.141   1.185  0.00  0.00    -0.090 HD
ENDBRANCH  11  12
ENDBRANCH   9  11
ENDBRANCH   1   9
BRANCH   6  16
ATOM     16  O   UNL     1      -1.115  -2.253   2.230  0.00  0.00    -0.489 OA
BRANCH  16  17
ATOM     17  C   UNL     1      -2.310  -2.007   2.974  0.00  0.00    +0.241 C 
BRANCH  17  18
ATOM     18  C   UNL     1      -1.954  -1.361   4.314  0.00  0.00    +0.109 C 
ATOM     19  C   UNL     1      -1.148  -2.350   5.159  0.00  0.00    +0.020 C 
BRANCH  18  20
ATOM     20  C   UNL     1      -3.218  -0.990   5.045  0.00  0.00    +0.217 C 
ATOM     21  O   UNL     1      -4.298  -1.220   4.543  0.00  0.00    -0.276 OA
ATOM     22  N   UNL     1      -3.149  -0.403   6.256  0.00  0.00    -0.329 N 
ATOM     23  H   UNL     1      -2.285  -0.219   6.657  0.00  0.00    +0.145 HD
ATOM     24  H   UNL     1      -3.963  -0.164   6.726  0.00  0.00    +0.145 HD
ENDBRANCH  18  20
ENDBRANCH  17  18
ENDBRANCH  16  17
ENDBRANCH   6  16
TORSDOF 7
