REMARK  Name = ZINC63985201
REMARK  7 active torsions:
REMARK  status: ('A' for Active; 'I' for Inactive)
REMARK    1  A    between atoms: C_1  and  C_2
REMARK    2  A    between atoms: C_8  and  C_14
REMARK    3  A    between atoms: C_14  and  N_15
REMARK    4  A    between atoms: N_15  and  C_16
REMARK    5  A    between atoms: N_15  and  S_23
REMARK    6  A    between atoms: C_16  and  C_17
REMARK    7  A    between atoms: S_23  and  C_26
REMARK                            x       y       z     vdW  Elec       q    Type
REMARK                         _______ _______ _______ _____ _____    ______ ____
ROOT
ATOM      1  N   UNL     1       1.271  -1.833   5.711  0.00  0.00    -0.173 NA
ENDROOT
BRANCH   1   2
ATOM      2  S   UNL     1       2.009  -0.353   5.796  0.00  0.00    +0.061 S 
ATOM      3  O   UNL     1       2.446  -0.194   7.139  0.00  0.00    -0.153 OA
ATOM      4  O   UNL     1       2.900  -0.279   4.692  0.00  0.00    -0.153 OA
BRANCH   2   5
ATOM      5  C   UNL     1       0.765   0.865   5.523  0.00  0.00    +0.106 A 
ATOM      6  C   UNL     1       0.577   1.389   4.258  0.00  0.00    +0.030 A 
ATOM      7  C   UNL     1      -0.398   2.344   4.043  0.00  0.00    +0.022 A 
ATOM      8  C   UNL     1      -1.186   2.777   5.095  0.00  0.00    +0.041 A 
ATOM      9  C   UNL     1      -0.997   2.253   6.361  0.00  0.00    +0.022 A 
ATOM     10  C   UNL     1      -0.025   1.293   6.574  0.00  0.00    +0.030 A 
ATOM     11 CL   UNL     1      -2.410   3.978   4.826  0.00  0.00    -0.084 Cl
ENDBRANCH   2   5
ENDBRANCH   1   2
BRANCH   1  12
ATOM     12  C   UNL     1       1.294  -2.592   4.458  0.00  0.00    +0.126 C 
BRANCH  12  20
ATOM     13  C   UNL     1      -2.504   0.246   0.561  0.00  0.00    +0.045 C 
ATOM     14  C   UNL     1      -1.838  -1.105   0.499  0.00  0.00    -0.029 A 
ATOM     15  C   UNL     1      -1.786  -1.777  -0.681  0.00  0.00    +0.005 A 
ATOM     16  C   UNL     1      -1.184  -3.030  -0.807  0.00  0.00    +0.001 A 
ATOM     17  C   UNL     1      -0.612  -3.650   0.257  0.00  0.00    +0.009 A 
ATOM     18  C   UNL     1      -0.632  -2.981   1.558  0.00  0.00    -0.007 A 
ATOM     19  C   UNL     1      -0.070  -3.566   2.654  0.00  0.00    -0.003 C 
ATOM     20  C   UNL     1      -0.138  -2.801   3.962  0.00  0.00    +0.114 C 
ATOM     21  C   UNL     1      -0.823  -1.453   3.944  0.00  0.00    +0.225 C 
ATOM     22  O   UNL     1      -0.905  -0.797   4.965  0.00  0.00    -0.275 OA
ATOM     23  N   UNL     1      -1.332  -0.991   2.814  0.00  0.00    -0.284 N 
ATOM     24  C   UNL     1      -1.270  -1.657   1.661  0.00  0.00    +0.043 A 
ATOM     25  H   UNL     1      -1.767  -0.124   2.824  0.00  0.00    +0.155 HD
ENDBRANCH  12  20
ENDBRANCH   1  12
BRANCH   1  26
ATOM     26  C   UNL     1       0.595  -2.384   6.888  0.00  0.00    +0.141 C 
BRANCH  26  27
ATOM     27  C   UNL     1       1.553  -3.312   7.639  0.00  0.00    +0.134 C 
ATOM     28  C   UNL     1       0.813  -3.990   8.812  0.00  0.00    +0.035 C 
ATOM     29  C   UNL     1       1.891  -3.984   9.930  0.00  0.00    +0.031 C 
ATOM     30  C   UNL     1       2.624  -2.653   9.624  0.00  0.00    +0.160 C 
ATOM     31  O   UNL     1       2.635  -2.551   8.189  0.00  0.00    -0.375 OA
ENDBRANCH  26  27
ENDBRANCH   1  26
TORSDOF 6
