REMARK  Name = ZINC62021937
REMARK  6 active torsions:
REMARK  status: ('A' for Active; 'I' for Inactive)
REMARK    1  A    between atoms: C_1  and  C_2
REMARK    2  A    between atoms: C_7  and  C_12
REMARK    3  A    between atoms: C_12  and  C_13
REMARK    4  A    between atoms: C_13  and  N_14
REMARK    5  A    between atoms: C_15  and  C_17
REMARK    6  A    between atoms: C_19  and  C_22
REMARK                            x       y       z     vdW  Elec       q    Type
REMARK                         _______ _______ _______ _____ _____    ______ ____
ROOT
ATOM      1  C   UNL     1      -1.369  -5.255  -1.494  0.00  0.00    +0.110 C 
ENDROOT
BRANCH   1   2
ATOM      2  N   UNL     1      -1.362  -6.133  -2.667  0.00  0.00    -0.310 N 
ATOM      3  C   UNL     1      -2.523  -6.471  -3.262  0.00  0.00    +0.266 C 
ATOM      4  O   UNL     1      -3.575  -6.049  -2.826  0.00  0.00    -0.268 OA
ATOM      5  H   UNL     1      -0.522  -6.470  -3.016  0.00  0.00    +0.149 HD
BRANCH   3   6
ATOM      6  C   UNL     1      -2.516  -7.359  -4.450  0.00  0.00    +0.168 A 
ATOM      7  C   UNL     1      -3.650  -7.787  -5.171  0.00  0.00    +0.089 A 
ATOM      8  C   UNL     1      -3.222  -8.588  -6.188  0.00  0.00    +0.203 A 
ATOM      9  O   UNL     1      -1.879  -8.665  -6.117  0.00  0.00    -0.351 OA
ATOM     10  N   UNL     1      -1.453  -7.880  -5.018  0.00  0.00    -0.073 NA
BRANCH   8  11
ATOM     11  C   UNL     1      -4.074  -9.250  -7.186  0.00  0.00    +0.172 A 
ATOM     12  C   UNL     1      -3.644 -10.055  -8.200  0.00  0.00    +0.053 A 
ATOM     13  C   UNL     1      -4.791 -10.467  -8.903  0.00  0.00    +0.042 A 
ATOM     14  C   UNL     1      -5.854  -9.902  -8.295  0.00  0.00    +0.196 A 
ATOM     15  O   UNL     1      -5.418  -9.173  -7.256  0.00  0.00    -0.460 OA
ENDBRANCH   8  11
ENDBRANCH   3   6
ENDBRANCH   1   2
BRANCH   1  16
ATOM     16  C   UNL     1       0.068  -5.030  -1.018  0.00  0.00    +0.073 C 
BRANCH  16  23
ATOM     17  C   UNL     1      -0.018   1.503   0.010  0.00  0.00    +0.063 C 
ATOM     18  C   UNL     1       0.002  -0.004   0.002  0.00  0.00    +0.020 A 
ATOM     19  C   UNL     1       0.006  -0.699  -1.189  0.00  0.00    +0.091 A 
ATOM     20  C   UNL     1       0.026  -2.094  -1.176  0.00  0.00    +0.259 A 
ATOM     21  O   UNL     1       0.030  -2.715  -2.228  0.00  0.00    -0.267 OA
ATOM     22  N   UNL     1       0.041  -2.765   0.014  0.00  0.00    -0.260 N 
ATOM     23  C   UNL     1       0.061  -4.128   0.189  0.00  0.00    +0.037 A 
ATOM     24  C   UNL     1       0.074  -4.665   1.409  0.00  0.00    +0.070 A 
ATOM     25  S   UNL     1       0.059  -3.212   2.448  0.00  0.00    -0.059 S 
ATOM     26  C   UNL     1       0.035  -1.997   1.148  0.00  0.00    +0.158 A 
ATOM     27  N   UNL     1       0.022  -0.687   1.144  0.00  0.00    -0.339 N 
ATOM     28  H   UNL     1       0.024  -0.207   1.987  0.00  0.00    +0.167 HD
ENDBRANCH  16  23
ENDBRANCH   1  16
TORSDOF 5
