REMARK  Name = ZINC65585156
REMARK  12 active torsions:
REMARK  status: ('A' for Active; 'I' for Inactive)
REMARK    1  A    between atoms: C_1  and  C_2
REMARK    2  A    between atoms: N_5  and  C_8
REMARK    3  A    between atoms: C_8  and  C_9
REMARK    4  A    between atoms: C_8  and  C_25
REMARK    5  A    between atoms: C_9  and  N_10
REMARK    6  A    between atoms: C_11  and  C_13
REMARK    7  A    between atoms: C_13  and  O_14
REMARK    8  A    between atoms: O_14  and  C_15
REMARK    9  A    between atoms: C_18  and  C_21
REMARK   10  A    between atoms: C_21  and  C_22
REMARK   11  A    between atoms: C_25  and  C_26
REMARK   12  A    between atoms: C_25  and  C_27
REMARK                            x       y       z     vdW  Elec       q    Type
REMARK                         _______ _______ _______ _____ _____    ______ ____
ROOT
ATOM      1  N   UNL     1       1.687  -3.626  -2.382  0.00  0.00    -0.314 N 
ATOM      2  C   UNL     1       2.214  -3.723  -3.618  0.00  0.00    +0.251 C 
ATOM      3  O   UNL     1       3.261  -4.311  -3.787  0.00  0.00    -0.272 OA
ATOM      4  H   UNL     1       0.850  -3.156  -2.247  0.00  0.00    +0.149 HD
ENDROOT
BRANCH   1   5
ATOM      5  C   UNL     1       2.380  -4.230  -1.241  0.00  0.00    +0.089 C 
BRANCH   5   6
ATOM      6  C   UNL     1       1.688  -3.809   0.057  0.00  0.00    -0.049 C 
BRANCH   6  11
ATOM      7  C   UNL     1       3.334   1.651   0.064  0.00  0.00    +0.007 C 
ATOM      8  C   UNL     1       3.119   0.187  -0.323  0.00  0.00    -0.018 C 
ATOM      9  C   UNL     1       3.701  -0.721   0.764  0.00  0.00    -0.016 C 
ATOM     10  C   UNL     1       3.413  -2.182   0.410  0.00  0.00    -0.078 C 
ATOM     11  N   UNL     1       1.962  -2.390   0.321  0.00  0.00    +0.383 N 
ATOM     12  C   UNL     1       1.408  -1.576  -0.768  0.00  0.00    -0.078 C 
ATOM     13  C   UNL     1       1.619  -0.092  -0.459  0.00  0.00    -0.016 C 
ATOM     14  H   UNL     1       1.531  -2.122   1.192  0.00  0.00    -0.081 HD
ENDBRANCH   6  11
BRANCH   6  15
ATOM     15  C   UNL     1       2.220  -4.655   1.216  0.00  0.00    -0.029 C 
ATOM     16  C   UNL     1       1.521  -4.240   2.513  0.00  0.00    +0.005 C 
ATOM     17  C   UNL     1       1.943  -6.133   0.938  0.00  0.00    +0.005 C 
ENDBRANCH   6  15
ENDBRANCH   5   6
ENDBRANCH   1   5
BRANCH   2  18
ATOM     18  C   UNL     1       1.501  -3.102  -4.792  0.00  0.00    +0.324 C 
BRANCH  18  19
ATOM     19  O   UNL     1       2.252  -3.338  -5.985  0.00  0.00    -0.483 OA
BRANCH  19  20
ATOM     20  C   UNL     1       1.743  -2.840  -7.142  0.00  0.00    +0.121 A 
ATOM     21  C   UNL     1       0.550  -2.133  -7.130  0.00  0.00    +0.046 A 
ATOM     22  C   UNL     1       0.035  -1.627  -8.308  0.00  0.00    +0.007 A 
ATOM     23  C   UNL     1       0.709  -1.825  -9.499  0.00  0.00    -0.038 A 
ATOM     24  C   UNL     1       1.898  -2.530  -9.514  0.00  0.00    +0.007 A 
ATOM     25  C   UNL     1       2.420  -3.033  -8.338  0.00  0.00    +0.046 A 
BRANCH  23  26
ATOM     26  C   UNL     1       0.145  -1.273 -10.783  0.00  0.00    +0.130 C 
BRANCH  26  27
ATOM     27  C   UNL     1       0.676   0.120 -11.006  0.00  0.00    +0.215 C 
ATOM     28  O   UNL     1       1.436   0.615 -10.201  0.00  0.00    -0.276 OA
ATOM     29  N   UNL     1       0.304   0.816 -12.099  0.00  0.00    -0.329 N 
ATOM     30  H   UNL     1      -0.304   0.419 -12.742  0.00  0.00    +0.145 HD
ATOM     31  H   UNL     1       0.646   1.712 -12.243  0.00  0.00    +0.145 HD
ENDBRANCH  26  27
ENDBRANCH  23  26
ENDBRANCH  19  20
ENDBRANCH  18  19
ENDBRANCH   2  18
TORSDOF 9
