REMARK  Name = ZINC45782676
REMARK  6 active torsions:
REMARK  status: ('A' for Active; 'I' for Inactive)
REMARK    1  A    between atoms: C_1  and  C_2
REMARK    2  A    between atoms: C_9  and  C_11
REMARK    3  A    between atoms: N_13  and  C_14
REMARK    4  A    between atoms: C_14  and  C_16
REMARK    5  A    between atoms: C_14  and  C_17
REMARK    6  A    between atoms: C_20  and  N_23
REMARK                            x       y       z     vdW  Elec       q    Type
REMARK                         _______ _______ _______ _____ _____    ______ ____
ROOT
ATOM      1  C   UNL     1       1.964  -7.623   3.462  0.00  0.00    +0.100 C 
ATOM      2  C   UNL     1       0.782  -8.139   4.285  0.00  0.00    +0.033 C 
ENDROOT
BRANCH   1   3
ATOM      3  C   UNL     1       2.607  -8.774   2.730  0.00  0.00    -0.027 A 
ATOM      4  C   UNL     1       2.046  -9.245   1.557  0.00  0.00    +0.007 A 
ATOM      5  C   UNL     1       2.633 -10.299   0.885  0.00  0.00    +0.023 A 
ATOM      6  C   UNL     1       3.787 -10.886   1.388  0.00  0.00    +0.035 A 
ATOM      7  C   UNL     1       4.347 -10.410   2.566  0.00  0.00    +0.023 A 
ATOM      8  C   UNL     1       3.759  -9.352   3.231  0.00  0.00    +0.007 A 
BRANCH   6   9
ATOM      9  N   UNL     1       4.383 -11.955   0.709  0.00  0.00    -0.270 N 
ATOM     10  C   UNL     1       4.330 -12.012  -0.636  0.00  0.00    +0.301 C 
ATOM     11  O   UNL     1       3.851 -11.089  -1.266  0.00  0.00    -0.253 OA
ATOM     12  N   UNL     1       4.810 -13.092  -1.284  0.00  0.00    -0.313 N 
ATOM     13  H   UNL     1       4.835 -12.654   1.207  0.00  0.00    +0.156 HD
ATOM     14  H   UNL     1       5.193 -13.829  -0.782  0.00  0.00    +0.146 HD
ATOM     15  H   UNL     1       4.772 -13.133  -2.252  0.00  0.00    +0.146 HD
ENDBRANCH   6   9
ENDBRANCH   1   3
BRANCH   1  18
ATOM     16  C   UNL     1       1.350  -5.344   2.860  0.00  0.00    +0.251 C 
ATOM     17  O   UNL     1       1.618  -5.002   3.997  0.00  0.00    -0.270 OA
ATOM     18  N   UNL     1       1.490  -6.633   2.492  0.00  0.00    -0.304 N 
ATOM     19  H   UNL     1       1.276  -6.905   1.586  0.00  0.00    +0.150 HD
BRANCH  16  27
ATOM     20  C   UNL     1      -1.114   1.101  -0.252  0.00  0.00    +0.008 C 
ATOM     21  C   UNL     1      -0.974  -0.421  -0.176  0.00  0.00    -0.009 C 
ATOM     22  C   UNL     1      -0.364  -0.942  -1.481  0.00  0.00    +0.009 C 
ATOM     23  C   UNL     1      -0.479  -2.472  -1.503  0.00  0.00    +0.043 C 
ATOM     24  C   UNL     1       0.007  -3.004  -0.187  0.00  0.00    -0.006 A 
ATOM     25  C   UNL     1       0.205  -2.291   0.958  0.00  0.00    -0.036 A 
ATOM     26  C   UNL     1       0.664  -2.997   2.060  0.00  0.00    +0.024 A 
ATOM     27  C   UNL     1       0.875  -4.353   1.890  0.00  0.00    +0.074 A 
ATOM     28  S   UNL     1       0.417  -4.580   0.181  0.00  0.00    -0.088 S 
ATOM     29  C   UNL     1      -0.070  -0.790   1.001  0.00  0.00    +0.039 C 
ENDBRANCH  16  27
ENDBRANCH   1  18
TORSDOF 4
