REMARK  Name = ZINC62777350
REMARK  6 active torsions:
REMARK  status: ('A' for Active; 'I' for Inactive)
REMARK    1  A    between atoms: C_1  and  C_2
REMARK    2  A    between atoms: C_2  and  N_3
REMARK    3  A    between atoms: C_7  and  C_13
REMARK    4  A    between atoms: C_13  and  C_15
REMARK    5  A    between atoms: C_13  and  N_21
REMARK    6  A    between atoms: N_21  and  C_22
REMARK                            x       y       z     vdW  Elec       q    Type
REMARK                         _______ _______ _______ _____ _____    ______ ____
ROOT
ATOM      1  N   UNL     1       0.711  -0.489   1.189  0.00  0.00    -0.274 N 
ATOM      2  C   UNL     1       2.079  -0.741   1.287  0.00  0.00    +0.090 A 
ATOM      3  C   UNL     1       3.133  -0.632   0.394  0.00  0.00    +0.030 A 
ATOM      4  C   UNL     1       4.412  -0.965   0.796  0.00  0.00    +0.004 A 
ATOM      5  C   UNL     1       4.642  -1.407   2.088  0.00  0.00    -0.052 A 
ATOM      6  C   UNL     1       3.596  -1.517   2.984  0.00  0.00    +0.051 A 
ATOM      7  C   UNL     1       2.310  -1.185   2.589  0.00  0.00    +0.157 A 
ATOM      8  O   UNL     1       1.115  -1.192   3.230  0.00  0.00    -0.407 OA
ATOM      9  C   UNL     1       0.160  -0.769   2.387  0.00  0.00    +0.421 A 
ATOM     10  O   UNL     1      -1.019  -0.657   2.661  0.00  0.00    -0.223 OA
ENDROOT
BRANCH   1  12
ATOM     11  C   UNL     1      -0.019   1.526   0.010  0.00  0.00    +0.027 C 
ATOM     12  C   UNL     1       0.002  -0.004   0.002  0.00  0.00    +0.125 C 
ENDBRANCH   1  12
BRANCH   5  13
ATOM     13  C   UNL     1       6.040  -1.768   2.519  0.00  0.00    +0.010 C 
BRANCH  13  14
ATOM     14  C   UNL     1       6.804  -0.513   2.850  0.00  0.00    +0.053 A 
ATOM     15  C   UNL     1       7.462  -0.247   4.056  0.00  0.00    +0.042 A 
ATOM     16  C   UNL     1       8.026   0.980   3.961  0.00  0.00    +0.105 A 
ATOM     17  N   UNL     1       7.736   1.472   2.738  0.00  0.00    -0.285 N 
ATOM     18  N   UNL     1       6.973   0.515   2.058  0.00  0.00    -0.180 NA
ATOM     19  H   UNL     1       8.011   2.335   2.390  0.00  0.00    +0.188 HD
ENDBRANCH  13  14
BRANCH  13  20
ATOM     20  N   UNL     1       6.719  -2.482   1.429  0.00  0.00    +0.385 N 
ATOM     21  C   UNL     1       8.037  -2.939   1.889  0.00  0.00    -0.099 C 
ATOM     22  H   UNL     1       6.165  -3.278   1.151  0.00  0.00    -0.085 HD
ATOM     23  H   UNL     1       6.835  -1.862   0.641  0.00  0.00    -0.085 HD
ENDBRANCH  13  20
ENDBRANCH   5  13
TORSDOF 4
