REMARK  Name = ZINC39655879
REMARK  6 active torsions:
REMARK  status: ('A' for Active; 'I' for Inactive)
REMARK    1  A    between atoms: C_1  and  C_2
REMARK    2  A    between atoms: C_8  and  C_11
REMARK    3  A    between atoms: C_11  and  C_12
REMARK    4  A    between atoms: C_12  and  N_13
REMARK    5  A    between atoms: C_14  and  C_16
REMARK    6  A    between atoms: C_27  and  C_29
REMARK                            x       y       z     vdW  Elec       q    Type
REMARK                         _______ _______ _______ _____ _____    ______ ____
ROOT
ATOM      1  C   UNL     1       4.076  -0.091  -7.935  0.00  0.00    +0.100 C 
ATOM      2  C   UNL     1       4.508   0.829  -9.099  0.00  0.00    +0.121 C 
ATOM      3  N   UNL     1       5.455   0.011  -9.892  0.00  0.00    -0.296 N 
ATOM      4  C   UNL     1       4.865  -1.349  -9.882  0.00  0.00    +0.115 C 
ATOM      5  C   UNL     1       4.311  -1.520  -8.453  0.00  0.00    -0.004 C 
ATOM      6  C   UNL     1       2.996  -2.293  -8.487  0.00  0.00    -0.010 C 
ATOM      7  C   UNL     1       3.265  -3.728  -8.949  0.00  0.00    -0.082 C 
ATOM      8  N   UNL     1       4.211  -4.371  -8.030  0.00  0.00    +0.379 N 
ATOM      9  C   UNL     1       5.503  -3.676  -8.073  0.00  0.00    -0.082 C 
ATOM     10  C   UNL     1       5.329  -2.239  -7.574  0.00  0.00    -0.010 C 
ATOM     11  C   UNL     1       6.596   0.412 -10.487  0.00  0.00    +0.247 C 
ATOM     12  O   UNL     1       7.017   1.536 -10.297  0.00  0.00    -0.270 OA
ATOM     13  H   UNL     1       3.843  -4.335  -7.091  0.00  0.00    -0.086 HD
ATOM     14  H   UNL     1       4.339  -5.335  -8.301  0.00  0.00    -0.086 HD
ENDROOT
BRANCH  11  15
ATOM     15  C   UNL     1       7.335  -0.515 -11.370  0.00  0.00    +0.040 A 
ATOM     16  C   UNL     1       6.684  -1.612 -11.936  0.00  0.00    +0.033 A 
ATOM     17  C   UNL     1       7.379  -2.474 -12.760  0.00  0.00    +0.043 A 
ATOM     18  C   UNL     1       8.720  -2.253 -13.025  0.00  0.00    +0.040 A 
ATOM     19  C   UNL     1       9.372  -1.168 -12.465  0.00  0.00    +0.043 A 
ATOM     20  C   UNL     1       8.685  -0.295 -11.645  0.00  0.00    +0.033 A 
ATOM     21 CL   UNL     1      11.054  -0.899 -12.801  0.00  0.00    -0.083 Cl
ATOM     22 CL   UNL     1       6.571  -3.839 -13.466  0.00  0.00    -0.083 Cl
ENDBRANCH  11  15
BRANCH   1  24
ATOM     23  N   UNL     1       2.172  -0.066  -6.356  0.00  0.00    -0.315 N 
ATOM     24  C   UNL     1       2.618   0.118  -7.615  0.00  0.00    +0.218 C 
ATOM     25  O   UNL     1       1.847   0.451  -8.489  0.00  0.00    -0.275 OA
ATOM     26  H   UNL     1       2.789  -0.333  -5.657  0.00  0.00    +0.149 HD
BRANCH  23  27
ATOM     27  C   UNL     1       0.755   0.136  -6.045  0.00  0.00    +0.109 C 
BRANCH  27  28
ATOM     28  C   UNL     1       0.515  -0.136  -4.558  0.00  0.00    +0.056 C 
BRANCH  28  36
ATOM     29  C   UNL     1      -3.315  -4.323  -5.343  0.00  0.00    +0.044 C 
ATOM     30  C   UNL     1      -3.262  -2.895  -4.861  0.00  0.00    -0.050 A 
ATOM     31  C   UNL     1      -4.427  -2.265  -4.446  0.00  0.00    +0.005 A 
ATOM     32  C   UNL     1      -4.400  -0.961  -4.003  0.00  0.00    +0.026 A 
ATOM     33  C   UNL     1      -3.196  -0.267  -3.970  0.00  0.00    +0.047 A 
ATOM     34  N   UNL     1      -2.848   1.011  -3.592  0.00  0.00    -0.360 N 
ATOM     35  C   UNL     1      -1.502   1.195  -3.758  0.00  0.00    +0.087 A 
ATOM     36  C   UNL     1      -0.942   0.073  -4.238  0.00  0.00    -0.021 A 
ATOM     37  C   UNL     1      -2.018  -0.910  -4.391  0.00  0.00    +0.003 A 
ATOM     38  C   UNL     1      -2.066  -2.234  -4.832  0.00  0.00    +0.013 A 
ATOM     39  H   UNL     1      -3.464   1.681  -3.257  0.00  0.00    +0.165 HD
ENDBRANCH  28  36
ENDBRANCH  27  28
ENDBRANCH  23  27
ENDBRANCH   1  24
TORSDOF 5
