REMARK  Name = ZINC12606355
REMARK  11 active torsions:
REMARK  status: ('A' for Active; 'I' for Inactive)
REMARK    1  A    between atoms: C_1  and  C_2
REMARK    2  A    between atoms: C_8  and  C_10
REMARK    3  A    between atoms: C_10  and  C_12
REMARK    4  A    between atoms: C_10  and  O_13
REMARK    5  A    between atoms: O_13  and  C_14
REMARK    6  A    between atoms: C_14  and  C_16
REMARK    7  A    between atoms: C_18  and  S_28
REMARK    8  A    between atoms: C_21  and  N_22
REMARK    9  A    between atoms: S_28  and  N_31
REMARK   10  A    between atoms: N_31  and  C_32
REMARK   11  A    between atoms: N_31  and  C_33
REMARK                            x       y       z     vdW  Elec       q    Type
REMARK                         _______ _______ _______ _____ _____    ______ ____
ROOT
ATOM      1  C   UNL     1       1.189   2.103  -0.021  0.00  0.00    +0.082 A 
ATOM      2  C   UNL     1       2.397   1.401  -0.029  0.00  0.00    +0.045 A 
ATOM      3  C   UNL     1       2.392   0.023  -0.041  0.00  0.00    +0.106 A 
ATOM      4  C   UNL     1       1.193  -0.672  -0.043  0.00  0.00    +0.030 A 
ATOM      5  C   UNL     1      -0.009   0.006  -0.035  0.00  0.00    +0.026 A 
ATOM      6  C   UNL     1      -0.024   1.395  -0.024  0.00  0.00    +0.044 A 
ENDROOT
BRANCH   6   7
ATOM      7  N   UNL     1      -1.232   2.080  -0.022  0.00  0.00    -0.325 N 
ATOM      8  C   UNL     1      -1.994   1.800   1.203  0.00  0.00    +0.133 C 
ATOM      9  C   UNL     1      -3.287   2.619   1.191  0.00  0.00    +0.178 C 
ATOM     10  O   UNL     1      -4.030   2.310   0.009  0.00  0.00    -0.377 OA
ATOM     11  C   UNL     1      -3.318   2.571  -1.203  0.00  0.00    +0.178 C 
ATOM     12  C   UNL     1      -2.025   1.752  -1.216  0.00  0.00    +0.133 C 
ENDBRANCH   6   7
BRANCH   3  13
ATOM     13  S   UNL     1       3.917  -0.859  -0.052  0.00  0.00    +0.060 S 
ATOM     14  O   UNL     1       4.894   0.011   0.503  0.00  0.00    -0.153 OA
ATOM     15  O   UNL     1       3.646  -2.145   0.489  0.00  0.00    -0.153 OA
BRANCH  13  16
ATOM     16  N   UNL     1       4.337  -1.091  -1.637  0.00  0.00    -0.183 NA
ATOM     17  C   UNL     1       5.158  -0.096  -2.331  0.00  0.00    +0.131 C 
ATOM     18  C   UNL     1       3.887  -2.292  -2.345  0.00  0.00    +0.131 C 
ENDBRANCH  13  16
ENDBRANCH   3  13
BRANCH   1  19
ATOM     19  C   UNL     1       1.187   3.576  -0.010  0.00  0.00    +0.342 C 
ATOM     20  O   UNL     1       0.134   4.182  -0.004  0.00  0.00    -0.245 OA
BRANCH  19  21
ATOM     21  O   UNL     1       2.354   4.251  -0.007  0.00  0.00    -0.449 OA
BRANCH  21  22
ATOM     22  C   UNL     1       2.276   5.701   0.003  0.00  0.00    +0.259 C 
ATOM     23  C   UNL     1       2.247   6.221  -1.435  0.00  0.00    +0.062 C 
BRANCH  22  31
ATOM     24  C   UNL     1       4.417  11.561  -0.158  0.00  0.00    +0.007 C 
ATOM     25  C   UNL     1       3.987  10.338   0.655  0.00  0.00    -0.011 C 
ATOM     26  C   UNL     1       5.162   9.365   0.773  0.00  0.00    +0.022 C 
ATOM     27  C   UNL     1       4.739   8.159   1.617  0.00  0.00    +0.108 C 
ATOM     28  N   UNL     1       3.526   7.573   1.029  0.00  0.00    -0.298 N 
ATOM     29  C   UNL     1       2.369   8.443   0.783  0.00  0.00    +0.108 C 
ATOM     30  C   UNL     1       2.817   9.645  -0.047  0.00  0.00    +0.022 C 
ATOM     31  C   UNL     1       3.480   6.263   0.716  0.00  0.00    +0.256 C 
ATOM     32  O   UNL     1       4.406   5.536   1.008  0.00  0.00    -0.272 OA
ENDBRANCH  22  31
ENDBRANCH  21  22
ENDBRANCH  19  21
ENDBRANCH   1  19
TORSDOF 7
