REMARK  Name = ZINC39325164
REMARK  8 active torsions:
REMARK  status: ('A' for Active; 'I' for Inactive)
REMARK    1  A    between atoms: C_1  and  C_2
REMARK    2  A    between atoms: C_5  and  C_36
REMARK    3  A    between atoms: C_10  and  C_14
REMARK    4  A    between atoms: C_14  and  N_15
REMARK    5  A    between atoms: N_15  and  C_16
REMARK    6  A    between atoms: N_15  and  S_26
REMARK    7  A    between atoms: C_16  and  C_17
REMARK    8  A    between atoms: S_26  and  C_29
REMARK                            x       y       z     vdW  Elec       q    Type
REMARK                         _______ _______ _______ _____ _____    ______ ____
ROOT
ATOM      1  N   UNL     1       1.111  -1.058   5.902  0.00  0.00    -0.171 NA
ENDROOT
BRANCH   1   2
ATOM      2  S   UNL     1       0.317  -0.122   7.014  0.00  0.00    +0.061 S 
ATOM      3  O   UNL     1       0.833  -0.481   8.289  0.00  0.00    -0.153 OA
ATOM      4  O   UNL     1       0.357   1.212   6.525  0.00  0.00    -0.153 OA
BRANCH   2   5
ATOM      5  C   UNL     1      -1.374  -0.615   6.998  0.00  0.00    +0.106 A 
ATOM      6  C   UNL     1      -2.265   0.002   6.139  0.00  0.00    +0.031 A 
ATOM      7  C   UNL     1      -3.592  -0.384   6.126  0.00  0.00    +0.040 A 
ATOM      8  C   UNL     1      -4.029  -1.388   6.972  0.00  0.00    +0.124 A 
ATOM      9  C   UNL     1      -3.136  -2.006   7.831  0.00  0.00    +0.040 A 
ATOM     10  C   UNL     1      -1.809  -1.622   7.840  0.00  0.00    +0.031 A 
ATOM     11  F   UNL     1      -5.326  -1.766   6.959  0.00  0.00    -0.205 F 
ENDBRANCH   2   5
ENDBRANCH   1   2
BRANCH   1  12
ATOM     12  C   UNL     1       1.337  -0.551   4.546  0.00  0.00    +0.126 C 
BRANCH  12  22
ATOM     13  C   UNL     1       0.522   1.484  -0.099  0.00  0.00    +0.044 C 
ATOM     14  C   UNL     1       0.328  -0.009  -0.046  0.00  0.00    -0.042 A 
ATOM     15  C   UNL     1       0.276  -0.741  -1.189  0.00  0.00    +0.004 A 
ATOM     16  C   UNL     1       0.097  -2.124  -1.158  0.00  0.00    +0.005 A 
ATOM     17  C   UNL     1      -0.035  -2.821   0.000  0.00  0.00    -0.029 A 
ATOM     18  C   UNL     1       0.005  -2.158   1.241  0.00  0.00    +0.043 A 
ATOM     19  N   UNL     1      -0.126  -2.853   2.371  0.00  0.00    -0.284 N 
ATOM     20  C   UNL     1      -0.098  -2.293   3.569  0.00  0.00    +0.225 C 
ATOM     21  O   UNL     1      -0.222  -2.979   4.566  0.00  0.00    -0.275 OA
ATOM     22  C   UNL     1       0.089  -0.798   3.695  0.00  0.00    +0.114 C 
ATOM     23  C   UNL     1       0.238  -0.004   2.412  0.00  0.00    -0.003 C 
ATOM     24  C   UNL     1       0.198  -0.698   1.239  0.00  0.00    -0.004 A 
ATOM     25  C   UNL     1      -0.226  -4.315  -0.043  0.00  0.00    +0.045 C 
ATOM     26  H   UNL     1      -0.247  -3.813   2.312  0.00  0.00    +0.155 HD
ENDBRANCH  12  22
ENDBRANCH   1  12
BRANCH   1  27
ATOM     27  C   UNL     1       1.586  -2.393   6.274  0.00  0.00    +0.144 C 
BRANCH  27  28
ATOM     28  C   UNL     1       3.019  -2.305   6.734  0.00  0.00    -0.028 A 
ATOM     29  C   UNL     1       4.046  -2.440   5.819  0.00  0.00    +0.009 A 
ATOM     30  C   UNL     1       5.362  -2.360   6.237  0.00  0.00    +0.050 A 
ATOM     31  C   UNL     1       5.653  -2.145   7.574  0.00  0.00    +0.166 A 
ATOM     32  C   UNL     1       4.618  -2.009   8.495  0.00  0.00    +0.167 A 
ATOM     33  C   UNL     1       3.302  -2.085   8.069  0.00  0.00    +0.054 A 
ATOM     34  O   UNL     1       5.159  -1.808   9.732  0.00  0.00    -0.453 OA
ATOM     35  C   UNL     1       6.531  -2.228   9.625  0.00  0.00    +0.466 C 
ATOM     36  O   UNL     1       6.843  -2.028   8.234  0.00  0.00    -0.453 OA
ENDBRANCH  27  28
ENDBRANCH   1  27
TORSDOF 6
