REMARK  Name = ZINC04638568
REMARK  6 active torsions:
REMARK  status: ('A' for Active; 'I' for Inactive)
REMARK    1  A    between atoms: C_1  and  C_2
REMARK    2  A    between atoms: C_8  and  C_23
REMARK    3  A    between atoms: C_8  and  C_25
REMARK    4  A    between atoms: C_9  and  N_22
REMARK    5  A    between atoms: C_10  and  C_20
REMARK    6  A    between atoms: C_11  and  C_13
REMARK                            x       y       z     vdW  Elec       q    Type
REMARK                         _______ _______ _______ _____ _____    ______ ____
ROOT
ATOM      1  C   UNL     1      -0.371   3.082   1.859  0.00  0.00    +0.017 C 
ATOM      2  C   UNL     1      -0.822   1.723   1.321  0.00  0.00    +0.003 C 
ATOM      3  C   UNL     1      -0.043   1.413   0.052  0.00  0.00    +0.012 C 
ATOM      4  C   UNL     1      -0.766   1.932  -1.188  0.00  0.00    +0.005 C 
ATOM      5  C   UNL     1      -2.124   1.225  -1.283  0.00  0.00    +0.027 C 
ATOM      6  C   UNL     1      -2.894   1.524  -0.026  0.00  0.00    -0.024 C 
ATOM      7  C   UNL     1      -2.308   1.752   1.111  0.00  0.00    -0.028 C 
ATOM      8  C   UNL     1      -3.171   2.074   2.319  0.00  0.00    +0.202 C 
ATOM      9  C   UNL     1      -2.619   1.364   3.521  0.00  0.00    +0.054 C 
ATOM     10  C   UNL     1      -1.434   0.758   3.542  0.00  0.00    +0.057 C 
ATOM     11  C   UNL     1      -0.500   0.657   2.377  0.00  0.00    +0.071 C 
ENDROOT
BRANCH  11  12
ATOM     12  C   UNL     1       0.915   0.847   2.858  0.00  0.00    -0.038 A 
ATOM     13  C   UNL     1       1.204   1.832   3.784  0.00  0.00    +0.006 A 
ATOM     14  C   UNL     1       2.501   2.003   4.230  0.00  0.00    +0.020 A 
ATOM     15  C   UNL     1       3.512   1.195   3.742  0.00  0.00    +0.041 A 
ATOM     16  C   UNL     1       3.224   0.212   2.812  0.00  0.00    +0.020 A 
ATOM     17  C   UNL     1       1.925   0.039   2.370  0.00  0.00    +0.006 A 
ATOM     18 CL   UNL     1       5.142   1.413   4.298  0.00  0.00    -0.084 Cl
ENDBRANCH  11  12
BRANCH   9  19
ATOM     19  N   UNL     1      -3.378   1.337   4.662  0.00  0.00    -0.358 N 
ATOM     20  H   UNL     1      -3.003   0.825   5.560  0.00  0.00    +0.142 HD
ATOM     21  H   UNL     1      -4.362   1.827   4.679  0.00  0.00    +0.142 HD
ENDBRANCH   9  19
BRANCH  10  22
ATOM     22  C   UNL     1      -1.021   0.156   4.774  0.00  0.00    +0.097 C 
ATOM     23  N   UNL     1      -0.693  -0.321   5.751  0.00  0.00    -0.191 NA
ENDBRANCH  10  22
BRANCH   8  24
ATOM     24  C   UNL     1      -3.160   3.527   2.558  0.00  0.00    +0.095 C 
ATOM     25  N   UNL     1      -3.151   4.648   2.742  0.00  0.00    -0.194 NA
ENDBRANCH   8  24
BRANCH   8  26
ATOM     26  C   UNL     1      -4.551   1.625   2.073  0.00  0.00    +0.095 C 
ATOM     27  N   UNL     1      -5.616   1.278   1.882  0.00  0.00    -0.194 NA
ENDBRANCH   8  26
TORSDOF 5
