REMARK  Name = ZINC04787583
REMARK  15 active torsions:
REMARK  status: ('A' for Active; 'I' for Inactive)
REMARK    1  A    between atoms: C_1  and  C_2
REMARK    2  A    between atoms: C_7  and  C_20
REMARK    3  A    between atoms: C_9  and  C_13
REMARK    4  A    between atoms: C_10  and  C_12
REMARK    5  A    between atoms: C_13  and  O_15
REMARK    6  A    between atoms: O_15  and  C_16
REMARK    7  A    between atoms: C_16  and  C_17
REMARK    8  A    between atoms: C_17  and  O_18
REMARK    9  A    between atoms: O_18  and  C_19
REMARK   10  A    between atoms: C_22  and  O_28
REMARK   11  A    between atoms: C_23  and  O_27
REMARK   12  A    between atoms: O_28  and  C_29
REMARK   13  A    between atoms: C_32  and  C_34
REMARK   14  A    between atoms: C_34  and  O_36
REMARK   15  A    between atoms: O_36  and  C_37
REMARK                            x       y       z     vdW  Elec       q    Type
REMARK                         _______ _______ _______ _____ _____    ______ ____
ROOT
ATOM      1  C   UNL     1       1.080   7.175  -3.122  0.00  0.00    +0.009 C 
ATOM      2  C   UNL     1       0.820   8.053  -1.896  0.00  0.00    +0.013 C 
ATOM      3  C   UNL     1       1.750   7.638  -0.754  0.00  0.00    +0.055 C 
ATOM      4  C   UNL     1       1.470   6.206  -0.369  0.00  0.00    +0.016 C 
ATOM      5  C   UNL     1       0.233   5.682  -0.494  0.00  0.00    +0.025 C 
ATOM      6  C   UNL     1      -0.042   4.254  -0.095  0.00  0.00    +0.092 C 
ATOM      7  C   UNL     1       1.232   3.467   0.003  0.00  0.00    +0.065 C 
ATOM      8  C   UNL     1       2.424   4.080   0.108  0.00  0.00    +0.016 C 
ATOM      9  N   UNL     1       2.502   5.445   0.111  0.00  0.00    -0.321 N 
ATOM     10  C   UNL     1       3.682   3.258   0.218  0.00  0.00    +0.061 C 
ATOM     11  C   UNL     1      -0.832   6.447  -1.000  0.00  0.00    +0.176 C 
ATOM     12  O   UNL     1      -1.936   5.948  -1.090  0.00  0.00    -0.291 OA
ATOM     13  C   UNL     1      -0.629   7.874  -1.432  0.00  0.00    +0.171 C 
ATOM     14  H   UNL     1       3.408   5.931   0.503  0.00  0.00    +0.152 HD
ENDROOT
BRANCH   6  15
ATOM     15  C   UNL     1      -0.736   4.240   1.243  0.00  0.00    -0.030 A 
ATOM     16  C   UNL     1      -2.009   3.712   1.354  0.00  0.00    +0.054 A 
ATOM     17  C   UNL     1      -2.647   3.694   2.584  0.00  0.00    +0.163 A 
ATOM     18  C   UNL     1      -2.009   4.218   3.704  0.00  0.00    +0.177 A 
ATOM     19  C   UNL     1      -0.734   4.750   3.585  0.00  0.00    +0.086 A 
ATOM     20  C   UNL     1      -0.101   4.760   2.354  0.00  0.00    +0.028 A 
ATOM     21 CL   UNL     1       0.066   5.406   4.979  0.00  0.00    -0.080 Cl
BRANCH  18  22
ATOM     22  O   UNL     1      -2.633   4.207   4.912  0.00  0.00    -0.502 OA
ATOM     23  H   UNL     1      -2.127   4.622   5.796  0.00  0.00    +0.292 HD
ENDBRANCH  18  22
BRANCH  17  24
ATOM     24  O   UNL     1      -3.898   3.171   2.695  0.00  0.00    -0.491 OA
ATOM     25  C   UNL     1      -4.492   2.651   1.504  0.00  0.00    +0.277 C 
ENDBRANCH  17  24
ENDBRANCH   6  15
BRANCH   7  26
ATOM     26  C   UNL     1       1.178   2.054  -0.010  0.00  0.00    +0.338 C 
ATOM     27  O   UNL     1       2.207   1.405  -0.033  0.00  0.00    -0.245 OA
BRANCH  26  28
ATOM     28  O   UNL     1      -0.016   1.424   0.002  0.00  0.00    -0.459 OA
BRANCH  28  29
ATOM     29  C   UNL     1       0.004  -0.005  -0.013  0.00  0.00    +0.260 C 
BRANCH  29  30
ATOM     30  C   UNL     1      -1.431  -0.535   0.004  0.00  0.00    +0.200 C 
BRANCH  30  31
ATOM     31  O   UNL     1      -2.094  -0.154  -1.203  0.00  0.00    -0.380 OA
ATOM     32  C   UNL     1      -3.448  -0.602  -1.289  0.00  0.00    +0.194 C 
ENDBRANCH  30  31
ENDBRANCH  29  30
ENDBRANCH  28  29
ENDBRANCH  26  28
ENDBRANCH   7  26
BRANCH  13  33
ATOM     33  C   UNL     1      -1.567   8.196  -2.567  0.00  0.00    +0.318 C 
ATOM     34  O   UNL     1      -1.125   8.542  -3.637  0.00  0.00    -0.250 OA
BRANCH  33  35
ATOM     35  O   UNL     1      -2.894   8.097  -2.389  0.00  0.00    -0.467 OA
ATOM     36  C   UNL     1      -3.737   8.422  -3.525  0.00  0.00    +0.280 C 
ENDBRANCH  33  35
ENDBRANCH  13  33
TORSDOF 10
