REMARK  Name = ZINC09315035
REMARK  7 active torsions:
REMARK  status: ('A' for Active; 'I' for Inactive)
REMARK    1  A    between atoms: C_4  and  N_7
REMARK    2  A    between atoms: C_8  and  C_29
REMARK    3  A    between atoms: C_11  and  S_12
REMARK    4  A    between atoms: S_12  and  C_13
REMARK    5  A    between atoms: C_13  and  C_14
REMARK    6  A    between atoms: N_16  and  N_17
REMARK    7  A    between atoms: C_29  and  C_30
REMARK                            x       y       z     vdW  Elec       q    Type
REMARK                         _______ _______ _______ _____ _____    ______ ____
ROOT
ATOM      1  S   UNL     1      -3.874   2.010   0.031  0.00  0.00    -0.076 S 
ENDROOT
BRANCH   1   6
ATOM      2  N   UNL     1      -6.550   1.185   0.040  0.00  0.00    -0.274 N 
ATOM      3  C   UNL     1      -7.212  -0.014   0.036  0.00  0.00    +0.143 A 
ATOM      4  N   UNL     1      -6.310  -0.955   0.027  0.00  0.00    -0.133 NA
ATOM      5  N   UNL     1      -5.133  -0.439   0.018  0.00  0.00    -0.122 NA
ATOM      6  C   UNL     1      -5.218   0.872   0.032  0.00  0.00    +0.197 A 
BRANCH   2  10
ATOM      7  C   UNL     1      -8.242   4.995   0.066  0.00  0.00    +0.000 A 
ATOM      8  C   UNL     1      -7.503   4.576  -1.025  0.00  0.00    +0.002 A 
ATOM      9  C   UNL     1      -6.942   3.314  -1.037  0.00  0.00    +0.026 A 
ATOM     10  C   UNL     1      -7.119   2.467   0.049  0.00  0.00    +0.050 A 
ATOM     11  C   UNL     1      -7.865   2.889   1.140  0.00  0.00    +0.026 A 
ATOM     12  C   UNL     1      -8.420   4.154   1.148  0.00  0.00    +0.002 A 
ENDBRANCH   2  10
BRANCH   3  13
ATOM     13  C   UNL     1      -8.706  -0.210   0.043  0.00  0.00    +0.119 C 
BRANCH  13  14
ATOM     14  C   UNL     1      -9.212  -0.267  -1.375  0.00  0.00    -0.003 A 
ATOM     15  C   UNL     1      -9.361  -1.343  -2.186  0.00  0.00    +0.011 A 
ATOM     16  C   UNL     1      -9.850  -1.157  -3.465  0.00  0.00    +0.008 A 
ATOM     17  C   UNL     1     -10.165   0.098  -3.872  0.00  0.00    +0.045 A 
ATOM     18  S   UNL     1      -9.776   1.064  -2.422  0.00  0.00    -0.101 S 
ENDBRANCH  13  14
ENDBRANCH   3  13
ENDBRANCH   1   6
BRANCH   1  19
ATOM     19  C   UNL     1      -2.482   0.853   0.018  0.00  0.00    +0.174 C 
BRANCH  19  20
ATOM     20  C   UNL     1      -1.187   1.624   0.017  0.00  0.00    +0.240 C 
ATOM     21  O   UNL     1      -1.204   2.837   0.023  0.00  0.00    -0.273 OA
ATOM     22  N   UNL     1      -0.011   0.966   0.007  0.00  0.00    -0.223 N 
ATOM     23  H   UNL     1       0.002  -0.004   0.002  0.00  0.00    +0.174 HD
BRANCH  22  24
ATOM     24  N   UNL     1       1.193   1.683  -0.000  0.00  0.00    -0.137 N 
ATOM     25  C   UNL     1       2.002   1.817   1.071  0.00  0.00    +0.263 C 
ATOM     26  O   UNL     1       1.834   1.358   2.180  0.00  0.00    -0.271 OA
ATOM     27  C   UNL     1       3.163   2.660   0.596  0.00  0.00    +0.114 C 
ATOM     28  C   UNL     1       4.469   1.881   0.716  0.00  0.00    +0.035 C 
ATOM     29  C   UNL     1       5.628   2.741   0.204  0.00  0.00    +0.003 C 
ATOM     30  C   UNL     1       5.706   4.030   1.025  0.00  0.00    +0.000 C 
ATOM     31  C   UNL     1       4.399   4.811   0.874  0.00  0.00    +0.003 C 
ATOM     32  C   UNL     1       3.235   3.960   1.389  0.00  0.00    +0.035 C 
ATOM     33  N   UNL     1       2.854   2.932  -0.814  0.00  0.00    -0.284 N 
ATOM     34  C   UNL     1       1.685   2.315  -1.073  0.00  0.00    +0.326 C 
ATOM     35  O   UNL     1       1.137   2.333  -2.157  0.00  0.00    -0.251 OA
ATOM     36  H   UNL     1       3.388   3.450  -1.436  0.00  0.00    +0.151 HD
ENDBRANCH  22  24
ENDBRANCH  19  20
ENDBRANCH   1  19
TORSDOF 7
