REMARK  Name = ZINC54641364
REMARK  8 active torsions:
REMARK  status: ('A' for Active; 'I' for Inactive)
REMARK    1  A    between atoms: C_1  and  C_2
REMARK    2  A    between atoms: C_3  and  C_27
REMARK    3  A    between atoms: C_4  and  C_12
REMARK    4  A    between atoms: C_16  and  O_18
REMARK    5  A    between atoms: O_18  and  C_19
REMARK    6  A    between atoms: C_19  and  C_20
REMARK    7  A    between atoms: C_27  and  O_29
REMARK    8  A    between atoms: O_29  and  C_30
REMARK                            x       y       z     vdW  Elec       q    Type
REMARK                         _______ _______ _______ _____ _____    ______ ____
ROOT
ATOM      1  C   UNL     1      -0.018   1.503   0.010  0.00  0.00    +0.061 C 
ATOM      2  C   UNL     1       0.002  -0.004   0.002  0.00  0.00    +0.020 C 
ATOM      3  C   UNL     1      -1.164  -0.668   0.004  0.00  0.00    +0.082 C 
ATOM      4  C   UNL     1      -1.254  -2.171  -0.016  0.00  0.00    +0.179 C 
ATOM      5  N   UNL     1       0.064  -2.740   0.255  0.00  0.00    -0.221 N 
ATOM      6  C   UNL     1       1.210  -2.015   0.249  0.00  0.00    +0.218 A 
ATOM      7  N   UNL     1       2.199  -2.823   0.519  0.00  0.00    -0.201 NA
ATOM      8  C   UNL     1       1.727  -4.060   0.707  0.00  0.00    +0.247 A 
ATOM      9  N   UNL     1       0.426  -4.052   0.555  0.00  0.00    -0.156 NA
ATOM     10  N   UNL     1       1.212  -0.651  -0.013  0.00  0.00    -0.287 N 
ATOM     11  H   UNL     1       2.037  -0.173  -0.196  0.00  0.00    +0.155 HD
ENDROOT
BRANCH   4  12
ATOM     12  C   UNL     1      -1.730  -2.628  -1.371  0.00  0.00    -0.015 A 
ATOM     13  C   UNL     1      -0.991  -2.327  -2.501  0.00  0.00    +0.006 A 
ATOM     14  C   UNL     1      -1.425  -2.744  -3.745  0.00  0.00    +0.004 A 
ATOM     15  C   UNL     1      -2.599  -3.464  -3.863  0.00  0.00    +0.045 A 
ATOM     16  C   UNL     1      -3.341  -3.767  -2.731  0.00  0.00    +0.121 A 
ATOM     17  C   UNL     1      -2.900  -3.352  -1.483  0.00  0.00    +0.051 A 
BRANCH  16  18
ATOM     18  O   UNL     1      -4.496  -4.475  -2.845  0.00  0.00    -0.487 OA
BRANCH  18  19
ATOM     19  C   UNL     1      -4.886  -4.875  -4.160  0.00  0.00    +0.264 C 
BRANCH  19  20
ATOM     20  C   UNL     1      -6.180  -5.643  -4.089  0.00  0.00    -0.010 A 
ATOM     21  C   UNL     1      -6.161  -7.015  -3.923  0.00  0.00    +0.008 A 
ATOM     22  C   UNL     1      -7.348  -7.721  -3.858  0.00  0.00    +0.020 A 
ATOM     23  C   UNL     1      -8.555  -7.053  -3.959  0.00  0.00    +0.041 A 
ATOM     24  C   UNL     1      -8.574  -5.680  -4.126  0.00  0.00    +0.020 A 
ATOM     25  C   UNL     1      -7.386  -4.975  -4.185  0.00  0.00    +0.008 A 
ATOM     26 CL   UNL     1     -10.046  -7.938  -3.878  0.00  0.00    -0.084 Cl
ENDBRANCH  19  20
ENDBRANCH  18  19
ENDBRANCH  16  18
ENDBRANCH   4  12
BRANCH   3  27
ATOM     27  C   UNL     1      -2.364   0.077   0.027  0.00  0.00    +0.339 C 
ATOM     28  O   UNL     1      -2.324   1.293   0.044  0.00  0.00    -0.245 OA
BRANCH  27  29
ATOM     29  O   UNL     1      -3.554  -0.559   0.029  0.00  0.00    -0.458 OA
BRANCH  29  30
ATOM     30  C   UNL     1      -4.726   0.257   0.053  0.00  0.00    +0.177 C 
ATOM     31  C   UNL     1      -5.130   0.528   1.503  0.00  0.00    +0.044 C 
ATOM     32  C   UNL     1      -6.386   1.403   1.528  0.00  0.00    +0.004 C 
ATOM     33  C   UNL     1      -7.525   0.679   0.808  0.00  0.00    +0.000 C 
ATOM     34  C   UNL     1      -7.121   0.409  -0.643  0.00  0.00    +0.004 C 
ATOM     35  C   UNL     1      -5.866  -0.466  -0.668  0.00  0.00    +0.044 C 
ENDBRANCH  29  30
ENDBRANCH  27  29
ENDBRANCH   3  27
TORSDOF 7
