REMARK  Name = ZINC01237112
REMARK  9 active torsions:
REMARK  status: ('A' for Active; 'I' for Inactive)
REMARK    1  A    between atoms: C_1  and  C_2
REMARK    2  A    between atoms: C_4  and  C_32
REMARK    3  A    between atoms: C_5  and  N_9
REMARK    4  A    between atoms: C_6  and  C_8
REMARK    5  A    between atoms: C_12  and  C_13
REMARK    6  A    between atoms: N_14  and  C_15
REMARK    7  A    between atoms: C_20  and  C_21
REMARK    8  A    between atoms: C_20  and  N_63
REMARK    9  A    between atoms: C_27  and  O_31
REMARK                            x       y       z     vdW  Elec       q    Type
REMARK                         _______ _______ _______ _____ _____    ______ ____
ROOT
ATOM      1  N   UNL     1       2.816  -3.388   9.290  0.00  0.00    -0.191 N 
ATOM      2  C   UNL     1       3.014  -3.139   7.978  0.00  0.00    +0.245 C 
ATOM      3  O   UNL     1       4.137  -3.064   7.515  0.00  0.00    -0.274 OA
ATOM      4  C   UNL     1       1.826  -2.955   7.126  0.00  0.00    +0.199 C 
ATOM      5  C   UNL     1       0.514  -3.070   7.776  0.00  0.00    +0.198 C 
ATOM      6  N   UNL     1       0.473  -3.323   9.074  0.00  0.00    -0.131 NA
ATOM      7  C   UNL     1       1.578  -3.475   9.799  0.00  0.00    +0.339 C 
ATOM      8  O   UNL     1       1.460  -3.706  10.989  0.00  0.00    -0.250 OA
ENDROOT
BRANCH   1  13
ATOM      9  C   UNL     1       7.294  -4.097  12.704  0.00  0.00    +0.044 C 
ATOM     10  C   UNL     1       6.105  -3.909  11.797  0.00  0.00    -0.050 A 
ATOM     11  C   UNL     1       5.549  -4.998  11.153  0.00  0.00    +0.008 A 
ATOM     12  C   UNL     1       4.459  -4.829  10.321  0.00  0.00    -0.028 A 
ATOM     13  C   UNL     1       3.921  -3.563  10.133  0.00  0.00    +0.051 A 
ATOM     14  C   UNL     1       4.485  -2.470  10.777  0.00  0.00    -0.028 A 
ATOM     15  C   UNL     1       5.571  -2.646  11.612  0.00  0.00    +0.008 A 
ATOM     16  C   UNL     1       3.909  -1.093  10.571  0.00  0.00    +0.046 C 
ATOM     17  C   UNL     1       3.854  -6.017   9.619  0.00  0.00    +0.046 C 
ENDBRANCH   1  13
BRANCH   4  18
ATOM     18  C   UNL     1       1.941  -2.691   5.769  0.00  0.00    +0.100 C 
ATOM     19  N   UNL     1       0.850  -2.362   5.052  0.00  0.00    -0.291 NA
BRANCH  19  20
ATOM     20  C   UNL     1       0.949  -2.205   3.599  0.00  0.00    +0.101 C 
ATOM     21  C   UNL     1      -0.422  -2.453   2.964  0.00  0.00    +0.008 C 
ATOM     22  C   UNL     1      -0.327  -2.229   1.453  0.00  0.00    -0.076 C 
ATOM     23  C   UNL     1       1.448  -0.606   1.748  0.00  0.00    -0.076 C 
ATOM     24  C   UNL     1       1.406  -0.781   3.268  0.00  0.00    +0.008 C 
ATOM     25  N   UNL     1       0.094  -0.834   1.200  0.00  0.00    +0.382 N 
ATOM     26  H   UNL     1      -0.564  -0.198   1.665  0.00  0.00    -0.081 HD
BRANCH  25  27
ATOM     27  C   UNL     1       0.084  -0.559  -0.251  0.00  0.00    -0.043 C 
BRANCH  27  28
ATOM     28  C   UNL     1       0.301   0.916  -0.467  0.00  0.00    -0.064 A 
ATOM     29  C   UNL     1      -0.781   1.776  -0.510  0.00  0.00    +0.002 A 
ATOM     30  C   UNL     1      -0.581   3.130  -0.703  0.00  0.00    +0.000 A 
ATOM     31  C   UNL     1       0.700   3.623  -0.864  0.00  0.00    +0.000 A 
ATOM     32  C   UNL     1       1.782   2.764  -0.826  0.00  0.00    +0.000 A 
ATOM     33  C   UNL     1       1.582   1.410  -0.628  0.00  0.00    +0.002 A 
ENDBRANCH  27  28
ENDBRANCH  25  27
ENDBRANCH  19  20
ENDBRANCH   4  18
BRANCH   5  34
ATOM     34  O   UNL     1      -0.624  -2.921   7.066  0.00  0.00    -0.496 OA
ATOM     35  H   UNL     1      -1.431  -3.016   7.591  0.00  0.00    +0.293 HD
ENDBRANCH   5  34
TORSDOF 6
