REMARK  Name = ZINC15225998
REMARK  5 active torsions:
REMARK  status: ('A' for Active; 'I' for Inactive)
REMARK    1  A    between atoms: C_6  and  C_11
REMARK    2  A    between atoms: C_11  and  C_13
REMARK    3  A    between atoms: C_15  and  C_27
REMARK    4  A    between atoms: C_21  and  C_22
REMARK    5  A    between atoms: C_21  and  O_26
REMARK                            x       y       z     vdW  Elec       q    Type
REMARK                         _______ _______ _______ _____ _____    ______ ____
ROOT
ATOM      1  C   UNL     1      -1.402  -0.656  -0.587  0.00  0.00    +0.144 C 
ATOM      2  C   UNL     1      -1.725  -1.999   0.076  0.00  0.00    +0.120 C 
ATOM      3  N   UNL     1      -1.100  -3.078  -0.692  0.00  0.00    -0.292 N 
ATOM      4  C   UNL     1       0.028  -2.875  -1.389  0.00  0.00    +0.302 C 
ATOM      5  O   UNL     1       0.511  -3.808  -2.002  0.00  0.00    -0.253 OA
ATOM      6  N   UNL     1       0.644  -1.684  -1.438  0.00  0.00    -0.264 N 
ATOM      7  C   UNL     1       0.120  -0.526  -0.712  0.00  0.00    +0.243 C 
ATOM      8  H   UNL     1      -1.511  -3.956  -0.698  0.00  0.00    +0.151 HD
ATOM      9  H   UNL     1       1.453  -1.589  -1.964  0.00  0.00    +0.153 HD
ENDROOT
BRANCH   2  10
ATOM     10  C   UNL     1      -3.218  -2.202   0.107  0.00  0.00    -0.024 A 
ATOM     11  C   UNL     1      -3.954  -1.755   1.189  0.00  0.00    +0.005 A 
ATOM     12  C   UNL     1      -5.324  -1.936   1.216  0.00  0.00    +0.003 A 
ATOM     13  C   UNL     1      -5.958  -2.573   0.167  0.00  0.00    +0.038 A 
ATOM     14  C   UNL     1      -5.222  -3.025  -0.915  0.00  0.00    +0.124 A 
ATOM     15  C   UNL     1      -3.850  -2.839  -0.944  0.00  0.00    +0.043 A 
ATOM     16  F   UNL     1      -5.841  -3.649  -1.941  0.00  0.00    -0.205 F 
ENDBRANCH   2  10
BRANCH   7  17
ATOM     17  C   UNL     1       0.745  -0.472   0.684  0.00  0.00    +0.436 C 
ATOM     18  F   UNL     1       0.241   0.634   1.378  0.00  0.00    -0.166 F 
ATOM     19  F   UNL     1       0.430  -1.643   1.381  0.00  0.00    -0.166 F 
ATOM     20  F   UNL     1       2.134  -0.357   0.568  0.00  0.00    -0.166 F 
ENDBRANCH   7  17
BRANCH   1  21
ATOM     21  C   UNL     1      -2.029  -0.606  -1.956  0.00  0.00    +0.173 C 
ATOM     22  O   UNL     1      -2.104  -1.614  -2.626  0.00  0.00    -0.292 OA
BRANCH  21  28
ATOM     23  C   UNL     1      -4.578   4.350  -5.177  0.00  0.00    +0.001 A 
ATOM     24  C   UNL     1      -4.674   3.202  -5.961  0.00  0.00    +0.001 A 
ATOM     25  C   UNL     1      -4.206   2.006  -5.511  0.00  0.00    +0.008 A 
ATOM     26  C   UNL     1      -3.616   1.924  -4.237  0.00  0.00    -0.017 A 
ATOM     27  C   UNL     1      -3.124   0.707  -3.744  0.00  0.00    +0.020 A 
ATOM     28  C   UNL     1      -2.548   0.666  -2.481  0.00  0.00    +0.019 A 
ATOM     29  C   UNL     1      -2.462   1.834  -1.698  0.00  0.00    +0.012 A 
ATOM     30  C   UNL     1      -2.929   3.019  -2.163  0.00  0.00    +0.009 A 
ATOM     31  C   UNL     1      -3.518   3.093  -3.439  0.00  0.00    -0.018 A 
ATOM     32  C   UNL     1      -4.013   4.309  -3.939  0.00  0.00    +0.008 A 
ENDBRANCH  21  28
ENDBRANCH   1  21
BRANCH   7  33
ATOM     33  O   UNL     1       0.440   0.670  -1.425  0.00  0.00    -0.364 OA
ATOM     34  H   UNL     1       1.389   0.815  -1.544  0.00  0.00    +0.212 HD
ENDBRANCH   7  33
TORSDOF 5
