REMARK  Name = ZINC05256432
REMARK  5 active torsions:
REMARK  status: ('A' for Active; 'I' for Inactive)
REMARK    1  A    between atoms: C_1  and  C_2
REMARK    2  A    between atoms: C_5  and  C_8
REMARK    3  A    between atoms: N_20  and  C_21
REMARK    4  A    between atoms: C_21  and  C_22
REMARK    5  A    between atoms: C_22  and  C_23
REMARK                            x       y       z     vdW  Elec       q    Type
REMARK                         _______ _______ _______ _____ _____    ______ ____
ROOT
ATOM      1  C   UNL     1      -2.119   1.096  -1.412  0.00  0.00    +0.155 C 
ATOM      2  C   UNL     1      -2.577   1.407  -0.006  0.00  0.00    +0.044 A 
ATOM      3  C   UNL     1      -3.838   1.508   0.441  0.00  0.00    +0.025 A 
ATOM      4  C   UNL     1      -3.772   1.803   1.819  0.00  0.00    +0.019 A 
ATOM      5  C   UNL     1      -2.467   1.872   2.156  0.00  0.00    +0.086 A 
ATOM      6  N   UNL     1      -1.725   1.635   1.041  0.00  0.00    -0.347 N 
ATOM      7  C   UNL     1      -0.260   1.625   0.942  0.00  0.00    +0.140 C 
ATOM      8  C   UNL     1       0.153   0.881  -0.332  0.00  0.00    +0.132 C 
ATOM      9  N   UNL     1      -0.667   1.350  -1.458  0.00  0.00    -0.271 N 
ATOM     10  C   UNL     1      -0.108   1.994  -2.503  0.00  0.00    +0.303 C 
ATOM     11  O   UNL     1      -0.789   2.299  -3.463  0.00  0.00    -0.253 OA
ATOM     12  N   UNL     1       1.204   2.299  -2.483  0.00  0.00    -0.299 N 
ATOM     13  H   UNL     1       1.763   1.990  -1.752  0.00  0.00    +0.150 HD
ENDROOT
BRANCH   1  18
ATOM     14  C   UNL     1      -4.844   4.524  -5.183  0.00  0.00    +0.044 C 
ATOM     15  C   UNL     1      -4.133   3.630  -4.199  0.00  0.00    -0.050 A 
ATOM     16  C   UNL     1      -4.378   2.269  -4.200  0.00  0.00    +0.004 A 
ATOM     17  C   UNL     1      -3.726   1.449  -3.298  0.00  0.00    +0.006 A 
ATOM     18  C   UNL     1      -2.829   1.990  -2.396  0.00  0.00    -0.021 A 
ATOM     19  C   UNL     1      -2.589   3.351  -2.391  0.00  0.00    +0.006 A 
ATOM     20  C   UNL     1      -3.236   4.170  -3.297  0.00  0.00    +0.004 A 
ENDBRANCH   1  18
BRANCH  12  21
ATOM     21  C   UNL     1       1.788   3.095  -3.564  0.00  0.00    +0.110 C 
BRANCH  21  22
ATOM     22  C   UNL     1       3.282   3.296  -3.301  0.00  0.00    +0.054 C 
BRANCH  22  23
ATOM     23  C   UNL     1       3.882   4.116  -4.414  0.00  0.00    -0.046 A 
ATOM     24  C   UNL     1       4.405   3.489  -5.530  0.00  0.00    +0.004 A 
ATOM     25  C   UNL     1       4.952   4.241  -6.553  0.00  0.00    +0.000 A 
ATOM     26  C   UNL     1       4.984   5.620  -6.456  0.00  0.00    +0.000 A 
ATOM     27  C   UNL     1       4.466   6.247  -5.338  0.00  0.00    +0.000 A 
ATOM     28  C   UNL     1       3.916   5.495  -4.317  0.00  0.00    +0.004 A 
ENDBRANCH  22  23
ENDBRANCH  21  22
ENDBRANCH  12  21
TORSDOF 4
