REMARK  Name = ZINC44662740
REMARK  10 active torsions:
REMARK  status: ('A' for Active; 'I' for Inactive)
REMARK    1  A    between atoms: C_1  and  C_2
REMARK    2  A    between atoms: C_4  and  C_12
REMARK    3  A    between atoms: C_12  and  C_14
REMARK    4  A    between atoms: C_14  and  S_15
REMARK    5  A    between atoms: S_15  and  C_16
REMARK    6  A    between atoms: N_26  and  C_27
REMARK    7  A    between atoms: C_27  and  C_29
REMARK    8  A    between atoms: C_27  and  C_30
REMARK    9  A    between atoms: C_30  and  O_31
REMARK   10  A    between atoms: O_31  and  C_32
REMARK                            x       y       z     vdW  Elec       q    Type
REMARK                         _______ _______ _______ _____ _____    ______ ____
ROOT
ATOM      1  C   UNL     1       1.691  -1.202  -6.554  0.00  0.00    +0.173 A 
ATOM      2  N   UNL     1       2.711  -1.932  -6.176  0.00  0.00    -0.223 NA
ATOM      3  C   UNL     1       3.492  -2.572  -7.069  0.00  0.00    +0.079 A 
ATOM      4  C   UNL     1       4.580  -3.352  -6.665  0.00  0.00    +0.028 A 
ATOM      5  C   UNL     1       5.345  -3.983  -7.604  0.00  0.00    +0.002 A 
ATOM      6  C   UNL     1       5.059  -3.862  -8.958  0.00  0.00    +0.001 A 
ATOM      7  C   UNL     1       4.002  -3.107  -9.384  0.00  0.00    +0.015 A 
ATOM      8  C   UNL     1       3.204  -2.452  -8.448  0.00  0.00    +0.065 A 
ATOM      9  C   UNL     1       2.055  -1.628  -8.847  0.00  0.00    +0.263 A 
ATOM     10  O   UNL     1       1.756  -1.486 -10.019  0.00  0.00    -0.267 OA
ATOM     11  N   UNL     1       1.338  -1.036  -7.863  0.00  0.00    -0.282 N 
ENDROOT
BRANCH  11  12
ATOM     12  C   UNL     1       0.179  -0.208  -8.205  0.00  0.00    +0.115 C 
ATOM     13  C   UNL     1      -0.771  -1.005  -9.102  0.00  0.00    +0.033 C 
BRANCH  12  14
ATOM     14  C   UNL     1       0.648   1.045  -8.946  0.00  0.00    +0.184 C 
BRANCH  14  15
ATOM     15  O   UNL     1       1.200   0.672 -10.211  0.00  0.00    -0.381 OA
ATOM     16  C   UNL     1       1.671   1.776 -10.987  0.00  0.00    +0.194 C 
ENDBRANCH  14  15
ENDBRANCH  12  14
ENDBRANCH  11  12
BRANCH   1  17
ATOM     17  S   UNL     1       0.725  -0.402  -5.317  0.00  0.00    -0.080 S 
BRANCH  17  18
ATOM     18  C   UNL     1       1.524  -0.879  -3.760  0.00  0.00    +0.156 C 
BRANCH  18  19
ATOM     19  C   UNL     1       0.787  -0.253  -2.604  0.00  0.00    +0.172 C 
ATOM     20  O   UNL     1      -0.184   0.447  -2.811  0.00  0.00    -0.291 OA
BRANCH  19  23
ATOM     21  C   UNL     1       0.654   1.592  -0.015  0.00  0.00    +0.035 C 
ATOM     22  C   UNL     1       0.612   0.062  -0.009  0.00  0.00    +0.111 C 
ATOM     23  C   UNL     1       1.225  -0.480  -1.282  0.00  0.00    +0.027 C 
ATOM     24  C   UNL     1       2.304  -1.246  -0.878  0.00  0.00    +0.006 A 
ATOM     25  C   UNL     1       3.264  -2.005  -1.587  0.00  0.00    +0.010 A 
ATOM     26  C   UNL     1       4.233  -2.672  -0.920  0.00  0.00    +0.001 A 
ATOM     27  C   UNL     1       4.337  -2.648   0.480  0.00  0.00    +0.002 A 
ATOM     28  C   UNL     1       3.471  -1.954   1.250  0.00  0.00    +0.026 A 
ATOM     29  C   UNL     1       2.385  -1.200   0.603  0.00  0.00    +0.043 A 
ATOM     30  N   UNL     1       1.428  -0.461   1.091  0.00  0.00    -0.377 N 
ATOM     31  H   UNL     1       1.279  -0.284   2.033  0.00  0.00    +0.160 HD
ENDBRANCH  19  23
ENDBRANCH  18  19
ENDBRANCH  17  18
ENDBRANCH   1  17
TORSDOF 7
