REMARK  Name = ZINC12691259
REMARK  6 active torsions:
REMARK  status: ('A' for Active; 'I' for Inactive)
REMARK    1  A    between atoms: C_4  and  C_7
REMARK    2  A    between atoms: C_7  and  C_28
REMARK    3  A    between atoms: N_10  and  N_14
REMARK    4  A    between atoms: C_15  and  C_17
REMARK    5  A    between atoms: C_17  and  N_57
REMARK    6  A    between atoms: C_21  and  C_23
REMARK                            x       y       z     vdW  Elec       q    Type
REMARK                         _______ _______ _______ _____ _____    ______ ____
ROOT
ATOM      1  C   UNL     1      -2.240   3.633   0.427  0.00  0.00    +0.165 C 
ATOM      2  C   UNL     1      -2.261   3.355  -1.063  0.00  0.00    +0.272 C 
ATOM      3  O   UNL     1      -2.159   2.277  -1.608  0.00  0.00    -0.270 OA
ATOM      4  N   UNL     1      -2.414   4.556  -1.655  0.00  0.00    -0.137 N 
ATOM      5  C   UNL     1      -2.493   5.543  -0.756  0.00  0.00    +0.327 C 
ATOM      6  O   UNL     1      -2.633   6.715  -1.050  0.00  0.00    -0.251 OA
ATOM      7  N   UNL     1      -2.400   5.096   0.509  0.00  0.00    -0.276 N 
ATOM      8  H   UNL     1      -2.432   5.631   1.317  0.00  0.00    +0.152 HD
ENDROOT
BRANCH   1  12
ATOM      9  C   UNL     1       1.489   2.431   2.130  0.00  0.00    +0.000 A 
ATOM     10  C   UNL     1       0.924   3.641   2.486  0.00  0.00    +0.000 A 
ATOM     11  C   UNL     1      -0.285   4.028   1.939  0.00  0.00    +0.006 A 
ATOM     12  C   UNL     1      -0.924   3.209   1.027  0.00  0.00    -0.011 A 
ATOM     13  C   UNL     1      -0.360   1.999   0.671  0.00  0.00    +0.006 A 
ATOM     14  C   UNL     1       0.846   1.609   1.222  0.00  0.00    +0.000 A 
ENDBRANCH   1  12
BRANCH   1  15
ATOM     15  C   UNL     1      -3.385   2.936   1.116  0.00  0.00    -0.011 A 
ATOM     16  C   UNL     1      -3.478   1.557   1.076  0.00  0.00    +0.006 A 
ATOM     17  C   UNL     1      -4.526   0.917   1.712  0.00  0.00    +0.000 A 
ATOM     18  C   UNL     1      -5.485   1.656   2.378  0.00  0.00    +0.000 A 
ATOM     19  C   UNL     1      -5.394   3.035   2.414  0.00  0.00    +0.000 A 
ATOM     20  C   UNL     1      -4.344   3.675   1.782  0.00  0.00    +0.006 A 
ENDBRANCH   1  15
BRANCH   4  21
ATOM     21  N   UNL     1      -2.483   4.746  -3.042  0.00  0.00    -0.225 N 
ATOM     22  C   UNL     1      -1.427   5.260  -3.704  0.00  0.00    +0.213 C 
ATOM     23  O   UNL     1      -0.418   5.557  -3.100  0.00  0.00    -0.276 OA
ATOM     24  H   UNL     1      -3.290   4.508  -3.525  0.00  0.00    +0.173 HD
BRANCH  22  25
ATOM     25  C   UNL     1      -1.501   5.465  -5.196  0.00  0.00    +0.021 C 
BRANCH  25  30
ATOM     26  C   UNL     1      -0.162   7.491  -5.126  0.00  0.00    -0.077 C 
ATOM     27  C   UNL     1       0.527   8.344  -6.207  0.00  0.00    -0.020 C 
ATOM     28  C   UNL     1       0.771   7.378  -7.389  0.00  0.00    -0.012 C 
ATOM     29  C   UNL     1      -0.269   6.257  -7.140  0.00  0.00    -0.030 C 
ATOM     30  N   UNL     1      -0.256   6.134  -5.678  0.00  0.00    +0.390 N 
ATOM     31  H   UNL     1       0.559   5.583  -5.384  0.00  0.00    -0.080 HD
BRANCH  29  32
ATOM     32  C   UNL     1       0.168   4.972  -7.796  0.00  0.00    -0.024 A 
ATOM     33  C   UNL     1      -0.316   4.377  -8.914  0.00  0.00    +0.009 A 
ATOM     34  C   UNL     1       0.246   3.187  -9.336  0.00  0.00    +0.008 A 
ATOM     35  C   UNL     1       1.264   2.650  -8.620  0.00  0.00    +0.045 A 
ATOM     36  S   UNL     1       1.462   3.843  -7.307  0.00  0.00    -0.103 S 
ENDBRANCH  29  32
ENDBRANCH  25  30
ENDBRANCH  22  25
ENDBRANCH   4  21
TORSDOF 6
