REMARK  Name = ZINC09109809
REMARK  8 active torsions:
REMARK  status: ('A' for Active; 'I' for Inactive)
REMARK    1  A    between atoms: C_1  and  C_2
REMARK    2  A    between atoms: C_5  and  N_9
REMARK    3  A    between atoms: C_7  and  C_8
REMARK    4  A    between atoms: C_12  and  C_18
REMARK    5  A    between atoms: C_13  and  O_17
REMARK    6  A    between atoms: C_15  and  O_16
REMARK    7  A    between atoms: C_24  and  O_30
REMARK    8  A    between atoms: O_30  and  C_31
REMARK                            x       y       z     vdW  Elec       q    Type
REMARK                         _______ _______ _______ _____ _____    ______ ____
ROOT
ATOM      1  N   UNL     1      -2.650  -0.728   3.219  0.00  0.00    -0.231 N 
ATOM      2  C   UNL     1      -3.000   0.328   2.455  0.00  0.00    +0.267 A 
ATOM      3  O   UNL     1      -3.133   1.436   2.950  0.00  0.00    -0.267 OA
ATOM      4  C   UNL     1      -3.212   0.129   1.085  0.00  0.00    +0.071 A 
ATOM      5  C   UNL     1      -3.044  -1.142   0.564  0.00  0.00    +0.224 A 
ATOM      6  N   UNL     1      -2.691  -2.149   1.370  0.00  0.00    -0.161 NA
ATOM      7  C   UNL     1      -2.498  -1.957   2.656  0.00  0.00    +0.306 A 
ENDROOT
BRANCH   4   8
ATOM      8  C   UNL     1      -3.611   1.278   0.195  0.00  0.00    +0.018 C 
ATOM      9  C   UNL     1      -2.504   2.306   0.157  0.00  0.00    +0.011 A 
ATOM     10  C   UNL     1      -2.731   3.632   0.251  0.00  0.00    -0.022 A 
ATOM     11  C   UNL     1      -1.439   4.303   0.189  0.00  0.00    +0.006 A 
ATOM     12  C   UNL     1      -1.028   5.638   0.231  0.00  0.00    +0.056 A 
ATOM     13  C   UNL     1       0.315   5.944   0.144  0.00  0.00    +0.121 A 
ATOM     14  C   UNL     1       1.259   4.928   0.016  0.00  0.00    +0.047 A 
ATOM     15  C   UNL     1       0.868   3.609  -0.026  0.00  0.00    +0.030 A 
ATOM     16  C   UNL     1      -0.481   3.279   0.060  0.00  0.00    +0.047 A 
ATOM     17  N   UNL     1      -1.163   2.079   0.047  0.00  0.00    -0.359 N 
ATOM     18  H   UNL     1      -0.751   1.204  -0.032  0.00  0.00    +0.166 HD
ATOM     19  C   UNL     1      -4.104   4.240   0.385  0.00  0.00    +0.018 C 
ATOM     20  C   UNL     1      -5.133   3.165   0.009  0.00  0.00    -0.076 C 
ATOM     21  N   UNL     1      -4.832   1.914   0.737  0.00  0.00    +0.388 N 
ATOM     22  H   UNL     1      -4.689   2.128   1.731  0.00  0.00    -0.084 HD
ATOM     23  H   UNL     1      -5.623   1.267   0.637  0.00  0.00    -0.084 HD
BRANCH  13  24
ATOM     24  O   UNL     1       0.718   7.242   0.184  0.00  0.00    -0.495 OA
ATOM     25  C   UNL     1       2.122   7.488   0.089  0.00  0.00    +0.277 C 
ENDBRANCH  13  24
ENDBRANCH   4   8
BRANCH   1  30
ATOM     26  C   UNL     1      -1.788  -0.034   8.785  0.00  0.00    +0.044 C 
ATOM     27  C   UNL     1      -2.017  -0.219   7.307  0.00  0.00    -0.047 A 
ATOM     28  C   UNL     1      -0.966  -0.065   6.422  0.00  0.00    +0.005 A 
ATOM     29  C   UNL     1      -1.172  -0.233   5.067  0.00  0.00    +0.027 A 
ATOM     30  C   UNL     1      -2.437  -0.557   4.594  0.00  0.00    +0.055 A 
ATOM     31  C   UNL     1      -3.491  -0.706   5.484  0.00  0.00    +0.030 A 
ATOM     32  C   UNL     1      -3.277  -0.541   6.839  0.00  0.00    -0.046 A 
ATOM     33  C   UNL     1      -4.420  -0.708   7.808  0.00  0.00    +0.044 C 
ENDBRANCH   1  30
BRANCH   7  34
ATOM     34  O   UNL     1      -2.142  -3.000   3.433  0.00  0.00    -0.479 OA
ATOM     35  H   UNL     1      -2.043  -3.858   2.998  0.00  0.00    +0.295 HD
ENDBRANCH   7  34
BRANCH   5  36
ATOM     36  O   UNL     1      -3.238  -1.365  -0.756  0.00  0.00    -0.492 OA
ATOM     37  H   UNL     1      -3.096  -2.283  -1.025  0.00  0.00    +0.294 HD
ENDBRANCH   5  36
TORSDOF 5
