REMARK  Name = ZINC64097987
REMARK  5 active torsions:
REMARK  status: ('A' for Active; 'I' for Inactive)
REMARK    1  A    between atoms: C_8  and  N_11
REMARK    2  A    between atoms: C_12  and  C_14
REMARK    3  A    between atoms: C_14  and  S_15
REMARK    4  A    between atoms: S_15  and  C_16
REMARK    5  A    between atoms: C_22  and  N_26
REMARK                            x       y       z     vdW  Elec       q    Type
REMARK                         _______ _______ _______ _____ _____    ______ ____
ROOT
ATOM      1  C   UNL     1       4.225  -5.095  -2.571  0.00  0.00    +0.168 C 
ENDROOT
BRANCH   1   3
ATOM      2  N   UNL     1       2.931  -3.450  -1.252  0.00  0.00    -0.288 N 
ATOM      3  C   UNL     1       3.987  -4.285  -1.322  0.00  0.00    +0.225 C 
ATOM      4  O   UNL     1       4.745  -4.386  -0.381  0.00  0.00    -0.275 OA
ATOM      5  H   UNL     1       2.325  -3.370  -2.005  0.00  0.00    +0.151 HD
BRANCH   2  13
ATOM      6  C   UNL     1      -0.017   1.371   0.010  0.00  0.00    +0.002 A 
ATOM      7  C   UNL     1       1.157   2.102   0.002  0.00  0.00    +0.001 A 
ATOM      8  C   UNL     1       2.367   1.427  -0.013  0.00  0.00    +0.016 A 
ATOM      9  C   UNL     1       2.384   0.051  -0.020  0.00  0.00    +0.032 A 
ATOM     10  C   UNL     1       1.215  -0.716  -0.013  0.00  0.00    +0.043 A 
ATOM     11  C   UNL     1       0.002  -0.004   0.002  0.00  0.00    +0.024 A 
ATOM     12  N   UNL     1       1.341  -2.104  -0.022  0.00  0.00    -0.316 N 
ATOM     13  C   UNL     1       2.700  -2.663  -0.039  0.00  0.00    +0.224 C 
ATOM     14  S   UNL     1       3.714  -1.130  -0.039  0.00  0.00    -0.082 S 
ATOM     15  H   UNL     1       0.560  -2.680  -0.018  0.00  0.00    +0.149 HD
ENDBRANCH   2  13
ENDBRANCH   1   3
BRANCH   1  16
ATOM     16  S   UNL     1       5.711  -6.114  -2.356  0.00  0.00    -0.106 S 
BRANCH  16  17
ATOM     17  C   UNL     1       5.856  -7.014  -3.925  0.00  0.00    +0.236 C 
ATOM     18  N   UNL     1       5.944  -6.067  -5.043  0.00  0.00    -0.355 N 
ATOM     19  C   UNL     1       4.927  -6.288  -5.824  0.00  0.00    +0.061 A 
ATOM     20  C   UNL     1       4.479  -5.672  -7.080  0.00  0.00    +0.029 A 
ATOM     21  C   UNL     1       3.357  -6.121  -7.679  0.00  0.00    +0.035 A 
ATOM     22  C   UNL     1       2.583  -7.168  -7.149  0.00  0.00    +0.128 A 
ATOM     23  C   UNL     1       2.904  -7.802  -6.004  0.00  0.00    +0.060 A 
ATOM     24  C   UNL     1       4.107  -7.397  -5.263  0.00  0.00    +0.063 A 
ATOM     25  N   UNL     1       4.650  -7.819  -4.157  0.00  0.00    -0.355 N 
ATOM     26  H   UNL     1       4.319  -8.534  -3.591  0.00  0.00    +0.162 HD
ATOM     27  H   UNL     1       6.635  -5.399  -5.176  0.00  0.00    +0.162 HD
BRANCH  22  28
ATOM     28  N   UNL     1       1.367  -7.591  -7.879  0.00  0.00    +0.056 N 
ATOM     29  O   UNL     1       1.057  -7.039  -8.909  0.00  0.00    -0.126 OA
ATOM     30  O   UNL     1       0.683  -8.489  -7.445  0.00  0.00    -0.126 OA
ENDBRANCH  22  28
ENDBRANCH  16  17
ENDBRANCH   1  16
TORSDOF 5
