REMARK  Name = ZINC08514722
REMARK  1 active torsions:
REMARK  status: ('A' for Active; 'I' for Inactive)
REMARK    1  A    between atoms: C_3  and  C_6
REMARK                            x       y       z     vdW  Elec       q    Type
REMARK                         _______ _______ _______ _____ _____    ______ ____
ROOT
ATOM      1  C   UNL     1       3.761   1.845  -0.024  0.00  0.00    +0.097 C 
ATOM      2  C   UNL     1       4.469   1.355   1.204  0.00  0.00    +0.043 A 
ATOM      3  C   UNL     1       4.237   1.968   2.445  0.00  0.00    +0.126 A 
ATOM      4  N   UNL     1       4.869   1.522   3.526  0.00  0.00    -0.208 NA
ATOM      5  C   UNL     1       5.719   0.502   3.451  0.00  0.00    +0.180 A 
ATOM      6  S   UNL     1       6.509  -0.041   4.870  0.00  0.00    -0.011 S 
ATOM      7  N   UNL     1       5.969  -0.112   2.280  0.00  0.00    -0.322 N 
ATOM      8  C   UNL     1       5.346   0.312   1.138  0.00  0.00    +0.110 A 
ATOM      9  N   UNL     1       5.600  -0.301  -0.065  0.00  0.00    -0.304 N 
ATOM     10  C   UNL     1       5.314   0.332  -1.244  0.00  0.00    +0.017 C 
ATOM     11  C   UNL     1       4.448   1.366  -1.278  0.00  0.00    +0.024 C 
ATOM     12  C   UNL     1       4.162   2.030  -2.483  0.00  0.00    +0.162 C 
ATOM     13  O   UNL     1       3.373   2.954  -2.482  0.00  0.00    -0.292 OA
ATOM     14  C   UNL     1       4.813   1.618  -3.775  0.00  0.00    +0.080 C 
ATOM     15  C   UNL     1       6.183   1.004  -3.470  0.00  0.00    +0.014 C 
ATOM     16  C   UNL     1       5.986  -0.161  -2.502  0.00  0.00    +0.051 C 
ATOM     17  N   UNL     1       3.359   3.026   2.543  0.00  0.00    -0.343 N 
ATOM     18  H   UNL     1       5.987  -1.190  -0.078  0.00  0.00    +0.153 HD
ATOM     19  H   UNL     1       3.201   3.447   3.402  0.00  0.00    +0.144 HD
ATOM     20  H   UNL     1       2.900   3.349   1.752  0.00  0.00    +0.144 HD
ATOM     21  H   UNL     1       6.591  -0.856   2.245  0.00  0.00    +0.169 HD
ENDROOT
BRANCH   1  24
ATOM     22  C   UNL     1      -0.016   1.351   0.009  0.00  0.00    +0.008 A 
ATOM     23  C   UNL     1       1.183   2.038   0.002  0.00  0.00    +0.012 A 
ATOM     24  C   UNL     1       2.343   1.336  -0.013  0.00  0.00    +0.002 A 
ATOM     25  S   UNL     1       1.754  -0.349  -0.017  0.00  0.00    -0.101 S 
ATOM     26  C   UNL     1       0.002  -0.004   0.002  0.00  0.00    +0.045 A 
ENDBRANCH   1  24
TORSDOF 1
