REMARK  Name = ZINC42162089
REMARK  8 active torsions:
REMARK  status: ('A' for Active; 'I' for Inactive)
REMARK    1  A    between atoms: C_1  and  C_2
REMARK    2  A    between atoms: C_2  and  C_4
REMARK    3  A    between atoms: C_2  and  N_14
REMARK    4  A    between atoms: C_15  and  C_17
REMARK    5  A    between atoms: C_17  and  C_19
REMARK    6  A    between atoms: C_17  and  N_20
REMARK    7  A    between atoms: N_20  and  S_21
REMARK    8  A    between atoms: S_21  and  C_24
REMARK                            x       y       z     vdW  Elec       q    Type
REMARK                         _______ _______ _______ _____ _____    ______ ____
ROOT
ATOM      1  N   UNL     1      -1.372  -0.511   0.012  0.00  0.00    -0.307 N 
ATOM      2  C   UNL     1      -2.051  -0.643  -1.145  0.00  0.00    +0.232 C 
ATOM      3  O   UNL     1      -1.524  -0.341  -2.194  0.00  0.00    -0.274 OA
ATOM      4  H   UNL     1      -1.794  -0.752   0.852  0.00  0.00    +0.149 HD
ENDROOT
BRANCH   1   6
ATOM      5  C   UNL     1      -0.019   1.526   0.010  0.00  0.00    +0.033 C 
ATOM      6  C   UNL     1       0.002  -0.004   0.002  0.00  0.00    +0.100 C 
BRANCH   6   7
ATOM      7  C   UNL     1       0.731  -0.503   1.223  0.00  0.00    -0.027 A 
ATOM      8  C   UNL     1       0.066  -0.555   2.446  0.00  0.00    +0.006 A 
ATOM      9  C   UNL     1       0.695  -1.000   3.568  0.00  0.00    +0.009 A 
ATOM     10  C   UNL     1       2.035  -1.415   3.495  0.00  0.00    -0.018 A 
ATOM     11  C   UNL     1       2.718  -1.881   4.631  0.00  0.00    +0.008 A 
ATOM     12  C   UNL     1       4.016  -2.276   4.523  0.00  0.00    +0.001 A 
ATOM     13  C   UNL     1       4.681  -2.225   3.299  0.00  0.00    +0.001 A 
ATOM     14  C   UNL     1       4.052  -1.779   2.178  0.00  0.00    +0.008 A 
ATOM     15  C   UNL     1       2.712  -1.363   2.251  0.00  0.00    -0.018 A 
ATOM     16  C   UNL     1       2.027  -0.902   1.113  0.00  0.00    +0.014 A 
ENDBRANCH   6   7
ENDBRANCH   1   6
BRANCH   2  17
ATOM     17  C   UNL     1      -3.465  -1.164  -1.134  0.00  0.00    +0.159 C 
ATOM     18  C   UNL     1      -4.344  -0.237  -0.293  0.00  0.00    +0.035 C 
BRANCH  17  19
ATOM     19  N   UNL     1      -3.978  -1.213  -2.505  0.00  0.00    -0.178 NA
ATOM     20  H   UNL     1      -3.714  -0.534  -3.146  0.00  0.00    +0.149 HD
BRANCH  19  21
ATOM     21  S   UNL     1      -5.008  -2.426  -2.961  0.00  0.00    +0.059 S 
ATOM     22  O   UNL     1      -5.343  -2.185  -4.321  0.00  0.00    -0.153 OA
ATOM     23  O   UNL     1      -4.419  -3.644  -2.526  0.00  0.00    -0.153 OA
BRANCH  21  24
ATOM     24  C   UNL     1      -6.492  -2.225  -2.033  0.00  0.00    +0.105 A 
ATOM     25  C   UNL     1      -6.628  -2.843  -0.804  0.00  0.00    +0.028 A 
ATOM     26  C   UNL     1      -7.793  -2.686  -0.076  0.00  0.00    +0.002 A 
ATOM     27  C   UNL     1      -8.821  -1.910  -0.577  0.00  0.00    +0.000 A 
ATOM     28  C   UNL     1      -8.685  -1.291  -1.806  0.00  0.00    +0.002 A 
ATOM     29  C   UNL     1      -7.519  -1.445  -2.532  0.00  0.00    +0.028 A 
ENDBRANCH  21  24
ENDBRANCH  19  21
ENDBRANCH  17  19
ENDBRANCH   2  17
TORSDOF 6
