REMARK  Name = ZINC08952759
REMARK  10 active torsions:
REMARK  status: ('A' for Active; 'I' for Inactive)
REMARK    1  A    between atoms: C_1  and  C_2
REMARK    2  A    between atoms: C_13  and  C_14
REMARK    3  A    between atoms: C_13  and  O_15
REMARK    4  A    between atoms: N_21  and  O_22
REMARK    5  A    between atoms: O_22  and  C_23
REMARK    6  A    between atoms: C_23  and  C_24
REMARK    7  A    between atoms: N_26  and  C_27
REMARK    8  A    between atoms: C_27  and  C_28
REMARK    9  A    between atoms: C_28  and  C_29
REMARK   10  A    between atoms: C_41  and  C_42
REMARK                            x       y       z     vdW  Elec       q    Type
REMARK                         _______ _______ _______ _____ _____    ______ ____
ROOT
ATOM      1  C   UNL     1       8.835   6.248  -1.829  0.00  0.00    +0.014 C 
ATOM      2  C   UNL     1       7.926   5.739  -0.708  0.00  0.00    -0.000 C 
ATOM      3  C   UNL     1       7.431   4.347  -1.045  0.00  0.00    +0.010 C 
ATOM      4  C   UNL     1       6.758   4.420  -2.426  0.00  0.00    +0.005 C 
ATOM      5  C   UNL     1       5.622   5.446  -2.448  0.00  0.00    +0.006 C 
ATOM      6  C   UNL     1       6.111   6.821  -1.980  0.00  0.00    -0.003 C 
ATOM      7  C   UNL     1       6.683   6.661  -0.584  0.00  0.00    +0.001 C 
ATOM      8  C   UNL     1       7.294   7.920   0.040  0.00  0.00    +0.007 C 
ATOM      9  C   UNL     1       8.268   7.342   1.104  0.00  0.00    +0.035 C 
ATOM     10  C   UNL     1       8.624   5.909   0.637  0.00  0.00    +0.069 C 
ATOM     11  C   UNL     1       8.100   4.879   1.640  0.00  0.00    +0.042 C 
ATOM     12  C   UNL     1       4.918   7.782  -1.962  0.00  0.00    +0.008 C 
ATOM     13  C   UNL     1       4.029   7.405  -0.776  0.00  0.00    +0.032 C 
ATOM     14  C   UNL     1       3.728   5.935  -0.804  0.00  0.00    -0.058 C 
ATOM     15  C   UNL     1       2.751   5.473  -0.001  0.00  0.00    +0.031 C 
ATOM     16  C   UNL     1       2.586   3.988  -0.001  0.00  0.00    +0.102 C 
ATOM     17  N   UNL     1       1.415   3.410   0.007  0.00  0.00    -0.085 NA
ATOM     18  C   UNL     1       3.865   3.215  -0.018  0.00  0.00    +0.027 C 
ATOM     19  C   UNL     1       4.818   3.709  -0.829  0.00  0.00    -0.014 C 
ATOM     20  C   UNL     1       4.471   4.939  -1.623  0.00  0.00    +0.011 C 
ATOM     21  C   UNL     1       3.454   4.449  -2.655  0.00  0.00    +0.020 C 
ENDROOT
BRANCH  10  22
ATOM     22  O   UNL     1      10.038   5.773   0.482  0.00  0.00    -0.388 OA
ATOM     23  H   UNL     1      10.535   5.872   1.305  0.00  0.00    +0.210 HD
ENDBRANCH  10  22
BRANCH  17  24
ATOM     24  O   UNL     1       1.322   1.997   0.000  0.00  0.00    -0.384 OA
BRANCH  24  25
ATOM     25  C   UNL     1      -0.018   1.503   0.010  0.00  0.00    +0.358 C 
BRANCH  25  26
ATOM     26  C   UNL     1       0.002  -0.004   0.002  0.00  0.00    +0.253 C 
ATOM     27  O   UNL     1       1.060  -0.596  -0.011  0.00  0.00    -0.272 OA
ATOM     28  N   UNL     1      -1.156  -0.694   0.009  0.00  0.00    -0.312 N 
ATOM     29  H   UNL     1      -2.002  -0.220   0.020  0.00  0.00    +0.149 HD
BRANCH  28  30
ATOM     30  C   UNL     1      -1.136  -2.159   0.001  0.00  0.00    +0.109 C 
BRANCH  30  31
ATOM     31  C   UNL     1      -2.571  -2.688   0.012  0.00  0.00    +0.056 C 
BRANCH  31  32
ATOM     32  C   UNL     1      -2.551  -4.195   0.004  0.00  0.00    -0.021 A 
ATOM     33  C   UNL     1      -2.650  -4.989  -1.074  0.00  0.00    +0.087 A 
ATOM     34  N   UNL     1      -2.590  -6.302  -0.693  0.00  0.00    -0.360 N 
ATOM     35  H   UNL     1      -2.639  -7.060  -1.297  0.00  0.00    +0.165 HD
ATOM     36  C   UNL     1      -2.456  -6.387   0.674  0.00  0.00    +0.047 A 
ATOM     37  C   UNL     1      -2.425  -5.071   1.171  0.00  0.00    +0.003 A 
ATOM     38  C   UNL     1      -2.294  -4.847   2.543  0.00  0.00    +0.010 A 
ATOM     39  C   UNL     1      -2.196  -5.909   3.397  0.00  0.00    +0.001 A 
ATOM     40  C   UNL     1      -2.226  -7.209   2.912  0.00  0.00    +0.002 A 
ATOM     41  C   UNL     1      -2.354  -7.453   1.562  0.00  0.00    +0.026 A 
ENDBRANCH  31  32
ENDBRANCH  30  31
ENDBRANCH  28  30
ENDBRANCH  25  26
ENDBRANCH  24  25
ENDBRANCH  17  24
TORSDOF 7
