REMARK  Name = ZINC63737789
REMARK  4 active torsions:
REMARK  status: ('A' for Active; 'I' for Inactive)
REMARK    1  A    between atoms: C_4  and  N_7
REMARK    2  A    between atoms: C_13  and  C_15
REMARK    3  A    between atoms: C_15  and  C_16
REMARK    4  A    between atoms: C_22  and  C_24
REMARK                            x       y       z     vdW  Elec       q    Type
REMARK                         _______ _______ _______ _____ _____    ______ ____
ROOT
ATOM      1  C   UNL     1       8.478  -4.416   1.171  0.00  0.00    +0.001 C 
ATOM      2  C   UNL     1       9.220  -3.913   2.412  0.00  0.00    +0.023 C 
ATOM      3  C   UNL     1      10.680  -4.376   2.351  0.00  0.00    +0.108 C 
ATOM      4  N   UNL     1      10.707  -5.835   2.181  0.00  0.00    -0.300 N 
ATOM      5  C   UNL     1       9.951  -6.431   1.071  0.00  0.00    +0.108 C 
ATOM      6  C   UNL     1       8.499  -5.946   1.146  0.00  0.00    +0.023 C 
ATOM      7  C   UNL     1      11.412  -6.612   3.027  0.00  0.00    +0.242 C 
ATOM      8  O   UNL     1      12.032  -6.107   3.939  0.00  0.00    -0.273 OA
ENDROOT
BRANCH   7   9
ATOM      9  C   UNL     1      11.430  -8.107   2.840  0.00  0.00    +0.190 C 
ATOM     10  C   UNL     1      12.052  -8.458   1.507  0.00  0.00    +0.016 C 
ATOM     11  C   UNL     1      13.142  -9.209   1.788  0.00  0.00    -0.004 A 
ATOM     12  C   UNL     1      14.154  -9.849   0.940  0.00  0.00    +0.010 A 
ATOM     13  C   UNL     1      15.150 -10.553   1.524  0.00  0.00    +0.001 A 
ATOM     14  C   UNL     1      15.239 -10.686   2.917  0.00  0.00    +0.002 A 
ATOM     15  C   UNL     1      14.347 -10.127   3.761  0.00  0.00    +0.026 A 
ATOM     16  C   UNL     1      13.259  -9.364   3.256  0.00  0.00    +0.043 A 
ATOM     17  N   UNL     1      12.278  -8.734   3.859  0.00  0.00    -0.370 N 
ATOM     18  H   UNL     1      12.137  -8.690   4.818  0.00  0.00    +0.161 HD
ENDBRANCH   7   9
BRANCH   1  19
ATOM     19  C   UNL     1       7.029  -3.927   1.211  0.00  0.00    +0.099 C 
BRANCH  19  26
ATOM     20  N   UNL     1       3.620  -0.649  -0.036  0.00  0.00    -0.327 N 
ATOM     21  C   UNL     1       4.886   0.088  -0.149  0.00  0.00    +0.124 C 
ATOM     22  C   UNL     1       5.786  -0.301   1.030  0.00  0.00    +0.126 C 
ATOM     23  N   UNL     1       5.827  -1.767   1.127  0.00  0.00    -0.298 N 
ATOM     24  C   UNL     1       4.560  -2.504   1.239  0.00  0.00    +0.126 C 
ATOM     25  C   UNL     1       3.660  -2.115   0.066  0.00  0.00    +0.124 C 
ATOM     26  C   UNL     1       7.003  -2.423   1.111  0.00  0.00    +0.216 C 
ATOM     27  O   UNL     1       8.042  -1.804   1.018  0.00  0.00    -0.276 OA
BRANCH  20  31
ATOM     28  C   UNL     1      -0.017   1.379   0.011  0.00  0.00    +0.000 A 
ATOM     29  C   UNL     1       0.002  -0.004  -0.013  0.00  0.00    +0.002 A 
ATOM     30  C   UNL     1       1.206  -0.680  -0.030  0.00  0.00    +0.023 A 
ATOM     31  C   UNL     1       2.400   0.031  -0.021  0.00  0.00    +0.030 A 
ATOM     32  C   UNL     1       2.377   1.420   0.004  0.00  0.00    +0.023 A 
ATOM     33  C   UNL     1       1.170   2.089   0.021  0.00  0.00    +0.002 A 
ENDBRANCH  20  31
ENDBRANCH  19  26
ENDBRANCH   1  19
TORSDOF 4
