REMARK  Name = ZINC19531820
REMARK  11 active torsions:
REMARK  status: ('A' for Active; 'I' for Inactive)
REMARK    1  A    between atoms: C_1  and  C_2
REMARK    2  A    between atoms: C_2  and  O_3
REMARK    3  A    between atoms: O_3  and  C_4
REMARK    4  A    between atoms: C_6  and  C_14
REMARK    5  A    between atoms: C_8  and  C_11
REMARK    6  A    between atoms: C_9  and  O_10
REMARK    7  A    between atoms: C_11  and  C_12
REMARK    8  A    between atoms: C_14  and  N_15
REMARK    9  A    between atoms: C_19  and  C_22
REMARK   10  A    between atoms: C_24  and  N_32
REMARK   11  A    between atoms: C_29  and  C_31
REMARK                            x       y       z     vdW  Elec       q    Type
REMARK                         _______ _______ _______ _____ _____    ______ ____
ROOT
ATOM      1  N   UNL     1      -6.298  -0.313  -1.470  0.00  0.00    +0.383 N 
ATOM      2  C   UNL     1      -6.199   0.391  -0.185  0.00  0.00    -0.078 C 
ATOM      3  C   UNL     1      -7.464   1.221   0.042  0.00  0.00    -0.018 C 
ATOM      4  C   UNL     1      -8.684   0.296   0.039  0.00  0.00    +0.006 C 
ATOM      5  C   UNL     1      -8.736  -0.461  -1.291  0.00  0.00    +0.021 C 
ATOM      6  C   UNL     1      -7.434  -1.243  -1.480  0.00  0.00    -0.069 C 
ATOM      7  H   UNL     1      -6.474   0.440  -2.253  0.00  0.00    -0.081 HD
ENDROOT
BRANCH   5   8
ATOM      8  C   UNL     1      -9.901  -1.418  -1.281  0.00  0.00    +0.048 A 
ATOM      9  C   UNL     1     -10.262  -2.057  -0.095  0.00  0.00    +0.067 A 
ATOM     10  C   UNL     1     -11.324  -2.920  -0.094  0.00  0.00    +0.122 A 
ATOM     11  N   UNL     1     -12.000  -3.141  -1.265  0.00  0.00    -0.201 N 
ATOM     12  C   UNL     1     -11.607  -2.495  -2.409  0.00  0.00    +0.158 A 
ATOM     13  N   UNL     1     -10.567  -1.649  -2.391  0.00  0.00    -0.232 NA
ATOM     14  C   UNL     1     -12.463  -2.909  -3.420  0.00  0.00    +0.073 A 
ATOM     15  C   UNL     1     -13.366  -3.806  -2.865  0.00  0.00    +0.063 A 
ATOM     16  N   UNL     1     -13.097  -3.948  -1.588  0.00  0.00    -0.169 NA
ATOM     17  C   UNL     1     -14.475  -4.503  -3.609  0.00  0.00    +0.067 C 
BRANCH  10  18
ATOM     18  N   UNL     1     -11.705  -3.561   1.065  0.00  0.00    -0.343 N 
ATOM     19  H   UNL     1     -12.560  -4.253   1.056  0.00  0.00    +0.144 HD
ATOM     20  H   UNL     1     -11.153  -3.381   2.000  0.00  0.00    +0.144 HD
ENDBRANCH  10  18
ENDBRANCH   5   8
BRANCH   1  21
ATOM     21  C   UNL     1      -5.044  -1.010  -1.787  0.00  0.00    -0.043 C 
BRANCH  21  24
ATOM     22  C   UNL     1      -2.714   1.432  -3.484  0.00  0.00    +0.162 A 
ATOM     23  C   UNL     1      -3.721   0.502  -3.277  0.00  0.00    +0.051 A 
ATOM     24  C   UNL     1      -3.949   0.001  -2.010  0.00  0.00    -0.060 A 
ATOM     25  C   UNL     1      -3.175   0.424  -0.945  0.00  0.00    +0.009 A 
ATOM     26  C   UNL     1      -2.170   1.352  -1.144  0.00  0.00    +0.002 A 
ATOM     27  C   UNL     1      -1.939   1.863  -2.411  0.00  0.00    +0.162 A 
BRANCH  27  28
ATOM     28  O   UNL     1      -0.954   2.779  -2.608  0.00  0.00    -0.503 OA
ATOM     29  H   UNL     1      -0.342   3.119  -1.759  0.00  0.00    +0.292 HD
ENDBRANCH  27  28
BRANCH  22  30
ATOM     30  O   UNL     1      -2.488   1.926  -4.730  0.00  0.00    -0.489 OA
BRANCH  30  32
ATOM     31  C   UNL     1      -2.926   2.108  -7.100  0.00  0.00    +0.048 C 
ATOM     32  C   UNL     1      -3.327   1.443  -5.782  0.00  0.00    +0.226 C 
ENDBRANCH  30  32
ENDBRANCH  22  30
BRANCH  26  33
ATOM     33  C   UNL     1      -1.328   1.812   0.018  0.00  0.00    +0.065 C 
BRANCH  33  34
ATOM     34  C   UNL     1      -0.013   1.076   0.008  0.00  0.00    -0.030 C 
ATOM     35  C   UNL     1       1.113   1.746   0.001  0.00  0.00    +0.004 C 
ENDBRANCH  33  34
ENDBRANCH  26  33
ENDBRANCH  21  24
ENDBRANCH   1  21
TORSDOF 9
