REMARK  Name = ZINC29237402
REMARK  4 active torsions:
REMARK  status: ('A' for Active; 'I' for Inactive)
REMARK    1  A    between atoms: C_3  and  O_28
REMARK    2  A    between atoms: C_10  and  O_27
REMARK    3  A    between atoms: N_14  and  C_15
REMARK    4  A    between atoms: C_15  and  C_16
REMARK                            x       y       z     vdW  Elec       q    Type
REMARK                         _______ _______ _______ _____ _____    ______ ____
ROOT
ATOM      1  C   UNL     1      -0.254   1.251   0.485  0.00  0.00    +0.007 A 
ATOM      2  C   UNL     1       0.897   2.015   0.585  0.00  0.00    +0.049 A 
ATOM      3  C   UNL     1       2.180   1.473   0.557  0.00  0.00    +0.159 A 
ATOM      4  C   UNL     1       2.281   0.086   0.397  0.00  0.00    +0.167 A 
ATOM      5  C   UNL     1       1.106  -0.635   0.242  0.00  0.00    +0.014 A 
ATOM      6  C   UNL     1      -0.167  -0.121   0.328  0.00  0.00    -0.041 A 
ATOM      7  C   UNL     1      -1.333  -1.056   0.317  0.00  0.00    +0.023 C 
ATOM      8  C   UNL     1      -0.942  -2.513   0.140  0.00  0.00    -0.031 C 
ATOM      9  C   UNL     1       0.415  -2.881   0.747  0.00  0.00    +0.068 C 
ATOM     10  C   UNL     1       1.480  -2.085   0.051  0.00  0.00    +0.069 C 
ATOM     11  C   UNL     1       1.480  -2.423  -1.438  0.00  0.00    -0.000 C 
ATOM     12  C   UNL     1       0.090  -2.107  -2.005  0.00  0.00    -0.077 C 
ATOM     13  N   UNL     1      -0.931  -2.872  -1.283  0.00  0.00    +0.384 N 
ATOM     14  C   UNL     1       2.884  -2.105   0.641  0.00  0.00    +0.252 C 
ATOM     15  O   UNL     1       3.345  -0.745   0.379  0.00  0.00    -0.476 OA
ATOM     16  C   UNL     1       2.866  -2.311   2.127  0.00  0.00    +0.175 C 
ATOM     17  O   UNL     1       3.796  -1.896   2.777  0.00  0.00    -0.293 OA
ATOM     18  C   UNL     1       1.749  -3.007   2.844  0.00  0.00    +0.081 C 
ATOM     19  C   UNL     1       0.432  -2.538   2.236  0.00  0.00    +0.042 C 
ATOM     20  H   UNL     1      -0.735  -3.857  -1.375  0.00  0.00    -0.081 HD
ENDROOT
BRANCH   9  21
ATOM     21  O   UNL     1       0.653  -4.279   0.574  0.00  0.00    -0.389 OA
ATOM     22  H   UNL     1      -0.010  -4.846   0.994  0.00  0.00    +0.210 HD
ENDBRANCH   9  21
BRANCH   3  23
ATOM     23  O   UNL     1       3.285   2.256   0.678  0.00  0.00    -0.503 OA
ATOM     24  H   UNL     1       3.581   2.380   1.591  0.00  0.00    +0.292 HD
ENDBRANCH   3  23
BRANCH  13  25
ATOM     25  C   UNL     1      -2.249  -2.585  -1.864  0.00  0.00    -0.075 C 
BRANCH  25  26
ATOM     26  C   UNL     1      -2.301  -3.115  -3.298  0.00  0.00    -0.028 C 
ATOM     27  C   UNL     1      -1.787  -2.113  -4.344  0.00  0.00    +0.002 C 
ATOM     28  C   UNL     1      -2.941  -2.581  -5.246  0.00  0.00    +0.000 C 
ATOM     29  C   UNL     1      -3.683  -2.974  -3.958  0.00  0.00    +0.002 C 
ENDBRANCH  25  26
ENDBRANCH  13  25
TORSDOF 4
