REMARK  Name = ZINC39337753
REMARK  10 active torsions:
REMARK  status: ('A' for Active; 'I' for Inactive)
REMARK    1  A    between atoms: C_6  and  C_7
REMARK    2  A    between atoms: C_11  and  C_13
REMARK    3  A    between atoms: C_13  and  N_14
REMARK    4  A    between atoms: C_16  and  O_32
REMARK    5  A    between atoms: N_19  and  C_23
REMARK    6  A    between atoms: C_23  and  C_24
REMARK    7  A    between atoms: C_24  and  C_25
REMARK    8  A    between atoms: C_25  and  N_26
REMARK    9  A    between atoms: O_32  and  C_33
REMARK   10  A    between atoms: C_33  and  C_34
REMARK                            x       y       z     vdW  Elec       q    Type
REMARK                         _______ _______ _______ _____ _____    ______ ____
ROOT
ATOM      1  N   UNL     1      -0.963  -4.342   1.221  0.00  0.00    +0.388 N 
ATOM      2  C   UNL     1      -0.611  -4.894   2.522  0.00  0.00    -0.045 C 
ATOM      3  C   UNL     1      -0.948  -6.362   2.689  0.00  0.00    +0.119 C 
ATOM      4  C   UNL     1      -0.073  -7.229   1.780  0.00  0.00    +0.137 C 
ATOM      5  N   UNL     1      -0.706  -7.289   0.451  0.00  0.00    -0.301 N 
ATOM      6  C   UNL     1      -0.734  -6.199  -0.320  0.00  0.00    +0.199 C 
ATOM      7  O   UNL     1      -1.259  -6.246  -1.412  0.00  0.00    -0.278 OA
ATOM      8  C   UNL     1      -0.114  -4.904   0.162  0.00  0.00    +0.019 C 
ATOM      9  H   UNL     1      -1.928  -4.557   1.021  0.00  0.00    -0.081 HD
ENDROOT
BRANCH   1  10
ATOM     10  C   UNL     1      -0.790  -2.884   1.253  0.00  0.00    -0.063 C 
BRANCH  10  15
ATOM     11  C   UNL     1      -1.098  -0.780  -0.072  0.00  0.00    +0.077 C 
ATOM     12  N   UNL     1      -2.277  -0.222  -0.115  0.00  0.00    -0.153 NA
ATOM     13  N   UNL     1      -3.303  -1.161  -0.104  0.00  0.00    -0.161 NA
ATOM     14  C   UNL     1      -2.863  -2.376  -0.054  0.00  0.00    +0.115 C 
ATOM     15  C   UNL     1      -1.351  -2.275  -0.034  0.00  0.00    +0.066 C 
BRANCH  11  21
ATOM     16  C   UNL     1       0.271   1.296  -0.108  0.00  0.00    +0.012 A 
ATOM     17  C   UNL     1       1.496   1.927  -0.105  0.00  0.00    +0.039 A 
ATOM     18  C   UNL     1       2.663   1.179  -0.063  0.00  0.00    +0.123 A 
ATOM     19  C   UNL     1       2.607  -0.205  -0.024  0.00  0.00    +0.039 A 
ATOM     20  C   UNL     1       1.388  -0.849  -0.027  0.00  0.00    +0.012 A 
ATOM     21  C   UNL     1       0.206  -0.101  -0.069  0.00  0.00    -0.001 A 
ATOM     22  F   UNL     1       3.862   1.804  -0.060  0.00  0.00    -0.205 F 
ENDBRANCH  11  21
ENDBRANCH  10  15
ENDBRANCH   1  10
BRANCH   5  23
ATOM     23  C   UNL     1      -1.303  -8.540  -0.024  0.00  0.00    +0.109 C 
BRANCH  23  24
ATOM     24  C   UNL     1      -2.773  -8.596   0.395  0.00  0.00    +0.038 C 
BRANCH  24  25
ATOM     25  C   UNL     1      -3.396  -9.902  -0.100  0.00  0.00    +0.109 C 
BRANCH  25  26
ATOM     26  N   UNL     1      -4.804  -9.955   0.301  0.00  0.00    -0.301 N 
ATOM     27  C   UNL     1      -5.284 -10.523   1.567  0.00  0.00    +0.108 C 
ATOM     28  C   UNL     1      -6.718  -9.979   1.746  0.00  0.00    +0.028 C 
ATOM     29  C   UNL     1      -7.134  -9.699   0.283  0.00  0.00    +0.097 C 
ATOM     30  C   UNL     1      -5.822  -9.485  -0.440  0.00  0.00    +0.216 C 
ATOM     31  O   UNL     1      -5.706  -8.966  -1.530  0.00  0.00    -0.276 OA
ENDBRANCH  25  26
ENDBRANCH  24  25
ENDBRANCH  23  24
ENDBRANCH   5  23
BRANCH   3  32
ATOM     32  O   UNL     1      -0.731  -6.741   4.050  0.00  0.00    -0.377 OA
BRANCH  32  33
ATOM     33  C   UNL     1      -1.586  -7.793   4.503  0.00  0.00    +0.163 C 
BRANCH  33  34
ATOM     34  C   UNL     1      -1.267  -8.115   5.965  0.00  0.00    +0.015 C 
ATOM     35  C   UNL     1      -0.727  -9.512   6.279  0.00  0.00    +0.006 C 
ATOM     36  C   UNL     1      -2.158  -9.138   6.673  0.00  0.00    +0.006 C 
ENDBRANCH  33  34
ENDBRANCH  32  33
ENDBRANCH   3  32
TORSDOF 10
