REMARK  Name = ZINC13128134
REMARK  11 active torsions:
REMARK  status: ('A' for Active; 'I' for Inactive)
REMARK    1  A    between atoms: C_1  and  C_2
REMARK    2  A    between atoms: C_2  and  C_3
REMARK    3  A    between atoms: C_3  and  N_4
REMARK    4  A    between atoms: N_4  and  C_5
REMARK    5  A    between atoms: C_5  and  C_6
REMARK    6  A    between atoms: C_9  and  C_11
REMARK    7  A    between atoms: C_16  and  C_18
REMARK    8  A    between atoms: C_18  and  S_19
REMARK    9  A    between atoms: S_19  and  C_20
REMARK   10  A    between atoms: C_23  and  C_26
REMARK   11  A    between atoms: N_24  and  C_25
REMARK                            x       y       z     vdW  Elec       q    Type
REMARK                         _______ _______ _______ _____ _____    ______ ____
ROOT
ATOM      1  N   UNL     1       4.990   1.475   0.882  0.00  0.00    -0.292 N 
ATOM      2  C   UNL     1       5.005   2.568   1.670  0.00  0.00    +0.226 C 
ATOM      3  O   UNL     1       4.791   3.663   1.193  0.00  0.00    -0.275 OA
ENDROOT
BRANCH   1   4
ATOM      4  C   UNL     1       5.248   0.153   1.459  0.00  0.00    +0.108 C 
BRANCH   4   6
ATOM      5  C   UNL     1       7.019  -1.523   2.007  0.00  0.00    +0.005 C 
ATOM      6  C   UNL     1       6.749  -0.142   1.405  0.00  0.00    +0.016 C 
ENDBRANCH   4   6
ENDBRANCH   1   4
BRANCH   1   7
ATOM      7  C   UNL     1       4.716   1.608  -0.551  0.00  0.00    +0.205 C 
BRANCH   7   8
ATOM      8  C   UNL     1       3.232   1.492  -0.791  0.00  0.00    +0.235 A 
ATOM      9  N   UNL     1       2.375   2.473  -0.799  0.00  0.00    -0.110 NA
ATOM     10  N   UNL     1       1.197   2.015  -1.037  0.00  0.00    -0.107 NA
ATOM     11  C   UNL     1       1.262   0.710  -1.191  0.00  0.00    +0.255 A 
ATOM     12  O   UNL     1       2.555   0.356  -1.038  0.00  0.00    -0.418 OA
BRANCH  11  13
ATOM     13  C   UNL     1       0.137  -0.193  -1.476  0.00  0.00    +0.076 A 
ATOM     14  C   UNL     1      -1.202   0.108  -1.637  0.00  0.00    +0.021 A 
ATOM     15  C   UNL     1      -2.076  -0.920  -1.905  0.00  0.00    +0.008 A 
ATOM     16  C   UNL     1      -1.602  -2.190  -1.991  0.00  0.00    +0.046 A 
ATOM     17  S   UNL     1       0.144  -1.964  -1.696  0.00  0.00    -0.092 S 
ENDBRANCH  11  13
ENDBRANCH   7   8
ENDBRANCH   1   7
BRANCH   2  18
ATOM     18  C   UNL     1       5.287   2.431   3.144  0.00  0.00    +0.173 C 
BRANCH  18  19
ATOM     19  S   UNL     1       5.237   4.065   3.922  0.00  0.00    -0.077 S 
BRANCH  19  20
ATOM     20  C   UNL     1       5.590   3.620   5.590  0.00  0.00    +0.192 A 
ATOM     21  N   UNL     1       5.808   2.404   6.044  0.00  0.00    -0.122 NA
ATOM     22  N   UNL     1       6.037   2.440   7.308  0.00  0.00    -0.128 NA
ATOM     23  C   UNL     1       5.971   3.678   7.740  0.00  0.00    +0.165 A 
ATOM     24  N   UNL     1       5.682   4.471   6.653  0.00  0.00    -0.305 N 
ATOM     25  C   UNL     1       5.511   5.926   6.639  0.00  0.00    +0.153 C 
BRANCH  23  26
ATOM     26  C   UNL     1       6.169   4.135   9.132  0.00  0.00    +0.022 A 
ATOM     27  C   UNL     1       6.792   3.311  10.078  0.00  0.00    +0.031 A 
ATOM     28  C   UNL     1       6.961   3.779  11.363  0.00  0.00    +0.111 A 
ATOM     29  N   UNL     1       6.536   4.980  11.709  0.00  0.00    -0.263 NA
ATOM     30  C   UNL     1       5.939   5.786  10.851  0.00  0.00    +0.111 A 
ATOM     31  C   UNL     1       5.734   5.401   9.543  0.00  0.00    +0.031 A 
ENDBRANCH  23  26
ENDBRANCH  19  20
ENDBRANCH  18  19
ENDBRANCH   2  18
TORSDOF 9
