REMARK  Name = ZINC37508666
REMARK  7 active torsions:
REMARK  status: ('A' for Active; 'I' for Inactive)
REMARK    1  A    between atoms: C_1  and  C_2
REMARK    2  A    between atoms: C_2  and  C_3
REMARK    3  A    between atoms: C_3  and  C_5
REMARK    4  A    between atoms: C_3  and  C_6
REMARK    5  A    between atoms: C_6  and  C_8
REMARK    6  A    between atoms: C_6  and  N_22
REMARK    7  A    between atoms: N_10  and  C_11
REMARK                            x       y       z     vdW  Elec       q    Type
REMARK                         _______ _______ _______ _____ _____    ______ ____
ROOT
ATOM      1  C   UNL     1       1.334  -2.515  -2.568  0.00  0.00    +0.203 C 
ATOM      2  O   UNL     1       2.462  -2.955  -2.491  0.00  0.00    -0.277 OA
ATOM      3  N   UNL     1       0.715  -2.451  -3.763  0.00  0.00    -0.286 N 
ATOM      4  H   UNL     1      -0.209  -2.161  -3.816  0.00  0.00    +0.155 HD
ENDROOT
BRANCH   3   5
ATOM      5  C   UNL     1       1.407  -2.804  -4.930  0.00  0.00    +0.051 A 
ATOM      6  C   UNL     1       2.346  -3.825  -4.898  0.00  0.00    +0.073 A 
ATOM      7  C   UNL     1       3.030  -4.175  -6.052  0.00  0.00    +0.164 A 
ATOM      8  C   UNL     1       2.771  -3.503  -7.242  0.00  0.00    +0.163 A 
ATOM      9  C   UNL     1       1.833  -2.482  -7.270  0.00  0.00    +0.066 A 
ATOM     10  C   UNL     1       1.148  -2.137  -6.120  0.00  0.00    +0.043 A 
ATOM     11 BR   UNL     1      -0.137  -0.750  -6.166  0.00  0.00    -0.048 Br
ATOM     12  O   UNL     1       3.427  -3.838  -8.387  0.00  0.00    -0.485 OA
ATOM     13  C   UNL     1       4.625  -4.609  -8.241  0.00  0.00    +0.270 C 
ATOM     14  C   UNL     1       4.343  -5.751  -7.255  0.00  0.00    +0.270 C 
ATOM     15  O   UNL     1       3.952  -5.175  -6.004  0.00  0.00    -0.485 OA
ENDBRANCH   3   5
BRANCH   1  16
ATOM     16  C   UNL     1       0.625  -2.039  -1.326  0.00  0.00    +0.016 C 
BRANCH  16  17
ATOM     17  N   UNL     1       1.264  -2.628  -0.141  0.00  0.00    +0.386 N 
ATOM     18  H   UNL     1       1.209  -3.634  -0.196  0.00  0.00    -0.089 HD
ATOM     19  H   UNL     1       2.231  -2.345  -0.105  0.00  0.00    -0.089 HD
ATOM     20  H   UNL     1       0.789  -2.310   0.690  0.00  0.00    -0.089 HD
ENDBRANCH  16  17
BRANCH  16  21
ATOM     21  C   UNL     1       0.707  -0.514  -1.244  0.00  0.00    -0.020 C 
ATOM     22  C   UNL     1       2.175  -0.084  -1.190  0.00  0.00    +0.006 C 
BRANCH  21  24
ATOM     23  C   UNL     1      -0.039   1.499   0.035  0.00  0.00    +0.004 C 
ATOM     24  C   UNL     1      -0.013  -0.031   0.017  0.00  0.00    -0.001 C 
ENDBRANCH  21  24
ENDBRANCH  16  21
ENDBRANCH   1  16
TORSDOF 5
