REMARK  Name = ZINC36543579
REMARK  8 active torsions:
REMARK  status: ('A' for Active; 'I' for Inactive)
REMARK    1  A    between atoms: C_1  and  C_2
REMARK    2  A    between atoms: C_3  and  C_4
REMARK    3  A    between atoms: C_4  and  C_6
REMARK    4  A    between atoms: C_4  and  N_15
REMARK    5  A    between atoms: N_8  and  C_9
REMARK    6  A    between atoms: N_15  and  C_16
REMARK    7  A    between atoms: C_23  and  C_25
REMARK    8  A    between atoms: C_30  and  O_31
REMARK                            x       y       z     vdW  Elec       q    Type
REMARK                         _______ _______ _______ _____ _____    ______ ____
ROOT
ATOM      1  N   UNL     1      -0.133  -2.416  -0.302  0.00  0.00    -0.250 N 
ATOM      2  C   UNL     1       0.660  -2.491  -1.390  0.00  0.00    +0.255 C 
ATOM      3  O   UNL     1       1.844  -2.228  -1.299  0.00  0.00    -0.269 OA
ENDROOT
BRANCH   1   4
ATOM      4  C   UNL     1      -1.470  -2.818  -0.382  0.00  0.00    +0.056 A 
ATOM      5  C   UNL     1      -2.466  -1.880  -0.620  0.00  0.00    +0.025 A 
ATOM      6  C   UNL     1      -3.785  -2.281  -0.699  0.00  0.00    +0.002 A 
ATOM      7  C   UNL     1      -4.116  -3.614  -0.541  0.00  0.00    +0.002 A 
ATOM      8  C   UNL     1      -3.128  -4.551  -0.303  0.00  0.00    +0.022 A 
ATOM      9  C   UNL     1      -1.804  -4.158  -0.229  0.00  0.00    +0.062 A 
ATOM     10 CL   UNL     1      -0.563  -5.336   0.062  0.00  0.00    -0.082 Cl
ENDBRANCH   1   4
BRANCH   2  11
ATOM     11  C   UNL     1       0.092  -2.894  -2.690  0.00  0.00    +0.079 A 
ATOM     12  C   UNL     1      -1.040  -2.247  -3.193  0.00  0.00    +0.017 A 
ATOM     13  C   UNL     1      -1.566  -2.627  -4.408  0.00  0.00    +0.001 A 
ATOM     14  C   UNL     1      -0.977  -3.650  -5.135  0.00  0.00    +0.004 A 
ATOM     15  C   UNL     1       0.141  -4.298  -4.650  0.00  0.00    +0.046 A 
ATOM     16  C   UNL     1       0.687  -3.924  -3.431  0.00  0.00    +0.129 A 
BRANCH  16  17
ATOM     17  O   UNL     1       1.790  -4.555  -2.956  0.00  0.00    -0.506 OA
ATOM     18  H   UNL     1       1.595  -5.330  -2.411  0.00  0.00    +0.292 HD
ENDBRANCH  16  17
ENDBRANCH   2  11
BRANCH   1  19
ATOM     19  C   UNL     1       0.406  -1.912   0.963  0.00  0.00    +0.190 C 
BRANCH  19  20
ATOM     20  C   UNL     1       1.556  -2.783   1.402  0.00  0.00    +0.238 C 
ATOM     21  O   UNL     1       1.891  -3.731   0.724  0.00  0.00    -0.273 OA
ATOM     22  N   UNL     1       2.210  -2.508   2.547  0.00  0.00    -0.311 N 
ATOM     23  H   UNL     1       1.942  -1.750   3.090  0.00  0.00    +0.149 HD
BRANCH  22  24
ATOM     24  C   UNL     1       3.328  -3.355   2.974  0.00  0.00    +0.073 C 
ATOM     25  C   UNL     1       2.788  -4.562   3.743  0.00  0.00    +0.022 C 
ATOM     26  C   UNL     1       3.955  -5.446   4.189  0.00  0.00    +0.002 C 
ATOM     27  C   UNL     1       4.889  -4.640   5.093  0.00  0.00    +0.000 C 
ATOM     28  C   UNL     1       5.428  -3.433   4.324  0.00  0.00    +0.002 C 
ATOM     29  C   UNL     1       4.262  -2.549   3.879  0.00  0.00    +0.022 C 
ENDBRANCH  22  24
ENDBRANCH  19  20
BRANCH  19  32
ATOM     30  C   UNL     1       1.096   1.562  -0.520  0.00  0.00    +0.035 C 
ATOM     31  C   UNL     1       0.673   0.125  -0.356  0.00  0.00    -0.032 C 
ATOM     32  C   UNL     1       0.891  -0.498   0.776  0.00  0.00    +0.000 C 
ENDBRANCH  19  32
ENDBRANCH   1  19
TORSDOF 7
