REMARK  Name = ZINC21887431
REMARK  7 active torsions:
REMARK  status: ('A' for Active; 'I' for Inactive)
REMARK    1  A    between atoms: C_1  and  C_2
REMARK    2  A    between atoms: C_5  and  C_28
REMARK    3  A    between atoms: C_7  and  S_8
REMARK    4  A    between atoms: S_8  and  N_11
REMARK    5  A    between atoms: C_14  and  C_17
REMARK    6  A    between atoms: C_17  and  N_18
REMARK    7  A    between atoms: C_30  and  C_33
REMARK                            x       y       z     vdW  Elec       q    Type
REMARK                         _______ _______ _______ _____ _____    ______ ____
ROOT
ATOM      1  N   UNL     1       4.684  -0.458  -1.479  0.00  0.00    -0.177 NA
ATOM      2  C   UNL     1       4.464  -1.300  -2.662  0.00  0.00    +0.109 C 
ATOM      3  C   UNL     1       5.817  -1.740  -3.218  0.00  0.00    +0.019 C 
ATOM      4  C   UNL     1       6.685  -0.506  -3.477  0.00  0.00    -0.025 C 
ATOM      5  C   UNL     1       6.921   0.239  -2.162  0.00  0.00    +0.019 C 
ATOM      6  C   UNL     1       5.576   0.704  -1.595  0.00  0.00    +0.109 C 
ENDROOT
BRANCH   1   7
ATOM      7  S   UNL     1       3.946  -0.815  -0.040  0.00  0.00    +0.061 S 
ATOM      8  O   UNL     1       4.744  -0.232   0.981  0.00  0.00    -0.153 OA
ATOM      9  O   UNL     1       3.645  -2.203  -0.072  0.00  0.00    -0.153 OA
BRANCH   7  16
ATOM     10  C   UNL     1       3.670   2.193  -0.020  0.00  0.00    +0.046 C 
ATOM     11  C   UNL     1       2.378   1.419  -0.013  0.00  0.00    -0.024 A 
ATOM     12  C   UNL     1       1.170   2.095   0.002  0.00  0.00    +0.006 A 
ATOM     13  C   UNL     1      -0.017   1.392   0.010  0.00  0.00    +0.012 A 
ATOM     14  C   UNL     1       0.002  -0.004   0.002  0.00  0.00    +0.022 A 
ATOM     15  C   UNL     1       1.223  -0.679  -0.013  0.00  0.00    +0.040 A 
ATOM     16  C   UNL     1       2.403   0.036  -0.021  0.00  0.00    +0.109 A 
BRANCH  14  17
ATOM     17  C   UNL     1      -1.266  -0.764   0.010  0.00  0.00    +0.168 A 
ATOM     18  C   UNL     1      -2.533  -0.248   0.029  0.00  0.00    +0.075 A 
ATOM     19  C   UNL     1      -3.363  -1.388   0.026  0.00  0.00    +0.081 A 
ATOM     20  N   UNL     1      -2.572  -2.423   0.013  0.00  0.00    -0.083 NA
ATOM     21  O   UNL     1      -1.407  -2.101   0.004  0.00  0.00    -0.354 OA
ATOM     22  C   UNL     1      -4.870  -1.406   0.040  0.00  0.00    +0.069 C 
ENDBRANCH  14  17
ENDBRANCH   7  16
ENDBRANCH   1   7
BRANCH   4  23
ATOM     23  C   UNL     1       8.030  -0.943  -4.064  0.00  0.00    -0.075 C 
BRANCH  23  24
ATOM     24  N   UNL     1       7.814  -1.552  -5.383  0.00  0.00    +0.383 N 
ATOM     25  C   UNL     1       9.048  -2.177  -5.884  0.00  0.00    -0.074 C 
ATOM     26  C   UNL     1       8.689  -3.093  -7.053  0.00  0.00    +0.017 C 
ATOM     27  C   UNL     1       7.837  -2.347  -8.048  0.00  0.00    -0.048 A 
ATOM     28  C   UNL     1       7.701  -2.870  -9.325  0.00  0.00    +0.004 A 
ATOM     29  C   UNL     1       6.923  -2.223 -10.264  0.00  0.00    +0.000 A 
ATOM     30  C   UNL     1       6.277  -1.047  -9.930  0.00  0.00    +0.000 A 
ATOM     31  C   UNL     1       6.414  -0.525  -8.660  0.00  0.00    +0.002 A 
ATOM     32  C   UNL     1       7.196  -1.173  -7.715  0.00  0.00    -0.061 A 
ATOM     33  C   UNL     1       7.319  -0.562  -6.344  0.00  0.00    -0.043 C 
ATOM     34  H   UNL     1       7.048  -2.333  -5.268  0.00  0.00    -0.081 HD
ENDBRANCH  23  24
ENDBRANCH   4  23
TORSDOF 5
