REMARK  Name = ZINC54155683
REMARK  5 active torsions:
REMARK  status: ('A' for Active; 'I' for Inactive)
REMARK    1  A    between atoms: C_4  and  C_7
REMARK    2  A    between atoms: C_9  and  C_12
REMARK    3  A    between atoms: C_12  and  S_13
REMARK    4  A    between atoms: S_13  and  C_14
REMARK    5  A    between atoms: C_17  and  C_19
REMARK                            x       y       z     vdW  Elec       q    Type
REMARK                         _______ _______ _______ _____ _____    ______ ____
ROOT
ATOM      1  C   UNL     1       6.802  -5.846  -1.652  0.00  0.00    +0.278 A 
ATOM      2  N   UNL     1       7.088  -6.470  -0.534  0.00  0.00    -0.101 NA
ATOM      3  N   UNL     1       7.617  -7.611  -0.808  0.00  0.00    -0.108 NA
ATOM      4  C   UNL     1       7.689  -7.759  -2.098  0.00  0.00    +0.262 A 
ATOM      5  O   UNL     1       7.172  -6.652  -2.665  0.00  0.00    -0.412 OA
ENDROOT
BRANCH   4   6
ATOM      6  C   UNL     1       8.246  -8.955  -2.826  0.00  0.00    +0.297 C 
ATOM      7  C   UNL     1       7.253 -10.122  -2.741  0.00  0.00    +0.283 C 
ATOM      8  O   UNL     1       7.818 -11.243  -3.429  0.00  0.00    -0.484 OA
ATOM      9  C   UNL     1       9.120 -11.533  -3.159  0.00  0.00    +0.162 A 
ATOM     10  C   UNL     1       9.621 -12.783  -3.492  0.00  0.00    +0.049 A 
ATOM     11  C   UNL     1      10.942 -13.091  -3.227  0.00  0.00    +0.004 A 
ATOM     12  C   UNL     1      11.767 -12.156  -2.631  0.00  0.00    +0.004 A 
ATOM     13  C   UNL     1      11.273 -10.909  -2.295  0.00  0.00    +0.049 A 
ATOM     14  C   UNL     1       9.948 -10.594  -2.557  0.00  0.00    +0.163 A 
ATOM     15  O   UNL     1       9.474  -9.365  -2.214  0.00  0.00    -0.472 OA
ENDBRANCH   4   6
BRANCH   1  16
ATOM     16  S   UNL     1       6.064  -4.252  -1.799  0.00  0.00    -0.058 S 
BRANCH  16  17
ATOM     17  C   UNL     1       5.824  -3.720  -0.082  0.00  0.00    +0.156 C 
BRANCH  17  20
ATOM     18  C   UNL     1       3.699  -0.689  -0.037  0.00  0.00    +0.114 A 
ATOM     19  C   UNL     1       3.872  -2.094  -0.052  0.00  0.00    +0.076 A 
ATOM     20  C   UNL     1       5.191  -2.352  -0.065  0.00  0.00    +0.148 A 
ATOM     21  O   UNL     1       5.848  -1.182  -0.058  0.00  0.00    -0.358 OA
ATOM     22  N   UNL     1       4.889  -0.139  -0.047  0.00  0.00    -0.078 NA
BRANCH  18  26
ATOM     23  C   UNL     1      -0.017   1.379   0.010  0.00  0.00    +0.000 A 
ATOM     24  C   UNL     1       1.169   2.092   0.002  0.00  0.00    +0.001 A 
ATOM     25  C   UNL     1       2.377   1.426  -0.013  0.00  0.00    +0.010 A 
ATOM     26  C   UNL     1       2.402   0.033  -0.021  0.00  0.00    +0.004 A 
ATOM     27  C   UNL     1       1.205  -0.680  -0.013  0.00  0.00    +0.010 A 
ATOM     28  C   UNL     1       0.002  -0.004   0.002  0.00  0.00    +0.001 A 
ENDBRANCH  18  26
ENDBRANCH  17  20
ENDBRANCH  16  17
ENDBRANCH   1  16
TORSDOF 5
