REMARK  Name = ZINC20706496
REMARK  5 active torsions:
REMARK  status: ('A' for Active; 'I' for Inactive)
REMARK    1  A    between atoms: C_1  and  C_2
REMARK    2  A    between atoms: C_2  and  C_3
REMARK    3  A    between atoms: N_5  and  C_6
REMARK    4  A    between atoms: C_19  and  C_22
REMARK    5  A    between atoms: C_24  and  N_29
REMARK                            x       y       z     vdW  Elec       q    Type
REMARK                         _______ _______ _______ _____ _____    ______ ____
ROOT
ATOM      1  C   UNL     1       3.025  -0.664  -0.037  0.00  0.00    +0.034 A 
ATOM      2  C   UNL     1       1.651  -0.474   0.048  0.00  0.00    +0.025 A 
ATOM      3  C   UNL     1       1.141   0.808   0.075  0.00  0.00    +0.025 A 
ATOM      4  C   UNL     1       1.996   1.901   0.016  0.00  0.00    +0.031 A 
ATOM      5  C   UNL     1       3.368   1.719  -0.069  0.00  0.00    -0.018 A 
ATOM      6  C   UNL     1       3.876   0.428  -0.095  0.00  0.00    +0.029 A 
ATOM      7  C   UNL     1       4.325   2.867  -0.136  0.00  0.00    +0.049 C 
ATOM      8  C   UNL     1       4.871   3.048  -1.532  0.00  0.00    -0.023 C 
ATOM      9  C   UNL     1       5.026   4.322  -1.797  0.00  0.00    -0.030 C 
ATOM     10  C   UNL     1       4.609   5.166  -0.609  0.00  0.00    +0.033 C 
ATOM     11  C   UNL     1       3.666   4.221   0.193  0.00  0.00    +0.029 C 
ATOM     12  C   UNL     1       2.274   4.293  -0.441  0.00  0.00    +0.106 C 
ATOM     13  N   UNL     1       1.460   3.188   0.075  0.00  0.00    -0.336 N 
ATOM     14  H   UNL     1       0.461   3.387   0.490  0.00  0.00    +0.147 HD
ENDROOT
BRANCH  12  15
ATOM     15  C   UNL     1       2.394   4.175  -1.939  0.00  0.00    -0.007 A 
ATOM     16  C   UNL     1       2.436   2.928  -2.533  0.00  0.00    +0.039 A 
ATOM     17  C   UNL     1       2.546   2.819  -3.906  0.00  0.00    +0.127 A 
ATOM     18  C   UNL     1       2.614   3.959  -4.687  0.00  0.00    +0.034 A 
ATOM     19  C   UNL     1       2.572   5.206  -4.094  0.00  0.00    +0.022 A 
ATOM     20  C   UNL     1       2.457   5.315  -2.719  0.00  0.00    +0.046 A 
ATOM     21 CL   UNL     1       2.397   6.882  -1.974  0.00  0.00    -0.083 Cl
BRANCH  17  22
ATOM     22  N   UNL     1       2.591   1.484  -4.542  0.00  0.00    +0.056 N 
ATOM     23  O   UNL     1       2.532   0.480  -3.854  0.00  0.00    -0.126 OA
ATOM     24  O   UNL     1       2.688   1.388  -5.752  0.00  0.00    -0.126 OA
ENDBRANCH  17  22
ENDBRANCH  12  15
BRANCH   1  27
ATOM     25  C   UNL     1       2.806  -2.981  -0.538  0.00  0.00    +0.217 C 
ATOM     26  O   UNL     1       1.719  -2.761  -1.030  0.00  0.00    -0.275 OA
ATOM     27  N   UNL     1       3.550  -1.962  -0.064  0.00  0.00    -0.285 N 
ATOM     28  H   UNL     1       4.571  -2.151   0.301  0.00  0.00    +0.155 HD
BRANCH  25  30
ATOM     29  C   UNL     1       2.293  -5.350  -1.060  0.00  0.00    +0.013 C 
ATOM     30  C   UNL     1       3.324  -4.394  -0.458  0.00  0.00    +0.093 C 
ENDBRANCH  25  30
ENDBRANCH   1  27
TORSDOF 4
