REMARK  Name = ZINC14459578
REMARK  5 active torsions:
REMARK  status: ('A' for Active; 'I' for Inactive)
REMARK    1  A    between atoms: C_1  and  O_2
REMARK    2  A    between atoms: O_2  and  C_3
REMARK    3  A    between atoms: C_7  and  C_10
REMARK    4  A    between atoms: C_8  and  O_9
REMARK    5  A    between atoms: C_21  and  C_26
REMARK                            x       y       z     vdW  Elec       q    Type
REMARK                         _______ _______ _______ _____ _____    ______ ____
ROOT
ATOM      1  C   UNL     1       0.667   3.207   2.146  0.00  0.00    +0.109 C 
ATOM      2  C   UNL     1       0.290   3.817   0.793  0.00  0.00    +0.029 C 
ATOM      3  C   UNL     1      -1.240   4.106   0.828  0.00  0.00    +0.033 C 
ATOM      4  C   UNL     1      -1.860   2.762   0.500  0.00  0.00    -0.030 C 
ATOM      5  C   UNL     1      -0.995   1.998  -0.122  0.00  0.00    -0.023 C 
ATOM      6  C   UNL     1       0.316   2.727  -0.297  0.00  0.00    +0.049 C 
ATOM      7  C   UNL     1       1.480   1.798  -0.163  0.00  0.00    -0.018 A 
ATOM      8  C   UNL     1       1.770   0.943  -1.212  0.00  0.00    +0.025 A 
ATOM      9  C   UNL     1       2.847   0.061  -1.129  0.00  0.00    +0.052 A 
ATOM     10  C   UNL     1       3.643   0.038   0.020  0.00  0.00    +0.020 A 
ATOM     11  C   UNL     1       3.355   0.887   1.063  0.00  0.00    +0.024 A 
ATOM     12  C   UNL     1       2.278   1.766   0.975  0.00  0.00    +0.031 A 
ATOM     13  N   UNL     1       2.005   2.616   2.045  0.00  0.00    -0.336 N 
ATOM     14  H   UNL     1       2.685   2.813   2.708  0.00  0.00    +0.147 HD
ENDROOT
BRANCH   1  19
ATOM     15  C   UNL     1      -2.325   1.455   3.667  0.00  0.00    +0.162 A 
ATOM     16  C   UNL     1      -2.160   0.168   3.183  0.00  0.00    +0.049 A 
ATOM     17  C   UNL     1      -1.084  -0.132   2.368  0.00  0.00    +0.004 A 
ATOM     18  C   UNL     1      -0.174   0.852   2.029  0.00  0.00    +0.009 A 
ATOM     19  C   UNL     1      -0.330   2.138   2.513  0.00  0.00    +0.018 A 
ATOM     20  C   UNL     1      -1.406   2.445   3.331  0.00  0.00    +0.163 A 
BRANCH  15  22
ATOM     21  C   UNL     1      -4.285   0.686   4.773  0.00  0.00    +0.277 C 
ATOM     22  O   UNL     1      -3.382   1.752   4.469  0.00  0.00    -0.491 OA
ENDBRANCH  15  22
BRANCH  20  23
ATOM     23  O   UNL     1      -1.563   3.710   3.804  0.00  0.00    -0.503 OA
ATOM     24  H   UNL     1      -2.170   4.252   3.282  0.00  0.00    +0.292 HD
ENDBRANCH  20  23
ENDBRANCH   1  19
BRANCH   9  25
ATOM     25  C   UNL     1       3.139  -0.819  -2.221  0.00  0.00    +0.099 C 
ATOM     26  N   UNL     1       3.370  -1.517  -3.087  0.00  0.00    -0.191 NA
ENDBRANCH   9  25
TORSDOF 4
